data_mof_unit_48507.cif
_audit_creation_date              2012-12-11T14:33:49-0500
_audit_creation_method            fapswitch 2.2
_symmetry_space_group_name_H-M    P1
_symmetry_Int_Tables_number       1
_space_group_crystal_system       triclinic
_cell_length_a                    14.026736
_cell_length_b                    14.046312
_cell_length_c                    27.385659
_cell_angle_alpha                 90.242845
_cell_angle_beta                  89.900824
_cell_angle_gamma                 119.683819
_cell_volume                      4687.5261902

loop_
_atom_site_label
_atom_site_type_symbol
_atom_type_description
_atom_site_fract_x
_atom_site_fract_y
_atom_site_fract_z
_atom_type_partial_charge
C1    C     C_R   0.235525 0.786297 0.569266 0.549840
C2    C     C_R   0.214749 0.451141 0.569872 0.553831
C3    C     C_R   0.548407 0.763206 0.569879 0.548053
C4    C     C_3   0.634325 0.717424 0.792090 -0.057914
C5    C     C_3   0.278130 0.913151 0.791005 -0.049296
C6    C     C_3   0.116208 0.399305 0.795401 -0.062142
C7    C     C_3   0.619091 0.710605 0.735367 -0.252807
C8    C     C_3   0.283666 0.908785 0.734042 -0.224716
C9    C     C_3   0.115245 0.408184 0.738662 -0.235578
C10   C     C_1   0.699454 0.853222 0.862264 0.028331
C11   C     C_1   0.143977 0.844676 0.861680 -0.026733
C12   C     C_1   0.160641 0.306009 0.863300 -0.043665
C13   C     C_1   0.604497 0.803375 0.662164 -0.073686
C14   C     C_1   0.188548 0.807237 0.660072 -0.068276
C15   C     C_1   0.199071 0.392202 0.661970 -0.065692
C16   C     C_1   0.584387 0.788416 0.619279 -0.009336
C17   C     C_1   0.206337 0.800396 0.617616 -0.004146
C18   C     C_1   0.203654 0.413306 0.619130 -0.006517
C19   C     C_R   0.067424 0.155150 0.096347 0.554473
C20   C     C_R   0.776529 0.883128 0.087746 0.543946
C21   C     C_R   0.116306 0.895317 0.088602 0.544616
C22   C     C_R   0.107297 0.220981 0.951397 0.570482
C23   C     C_R   0.779514 0.886483 0.951248 0.556310
C24   C     C_R   0.113500 0.893078 0.951114 0.558955
C25   C     C_R   0.593576 0.876327 0.357477 -0.096136
C26   C     C_R   0.142991 0.710796 0.354276 -0.146932
C27   C     C_R   0.278897 0.420161 0.353499 -0.116727
C28   C     C_R   0.616496 0.889407 0.307768 0.070859
C29   C     C_R   0.126541 0.722768 0.305299 0.048156
C30   C     C_R   0.260765 0.380690 0.305822 0.075015
C31   C     C_R   0.658092 0.909391 0.207102 -0.003007
C32   C     C_R   0.105790 0.751052 0.205617 0.026737
C33   C     C_R   0.219718 0.301584 0.209908 0.001583
C34   C     C_R   0.232730 0.787064 0.431951 0.576595
C35   C     C_R   0.212280 0.444726 0.432092 0.570469
C36   C     C_R   0.554844 0.766709 0.431646 0.551651
C37   C     C_R   0.607675 0.962966 0.228667 -0.062099
C38   C     C_R   0.060021 0.645529 0.224781 -0.063371
C39   C     C_R   0.327378 0.371723 0.225178 -0.048896
C40   C     C_R   0.583735 0.951372 0.278655 0.143565
C41   C     C_R   0.071640 0.630219 0.274374 0.130295
C42   C     C_R   0.349003 0.413014 0.272878 0.146748
C43   C     C_R   0.686738 0.925167 0.157588 -0.144050
C44   C     C_R   0.090820 0.765895 0.156283 -0.100089
C45   C     C_R   0.199526 0.258062 0.162866 -0.125378
C46   C     C_R   0.723235 0.859528 0.135565 -0.011839
C47   C     C_R   0.136610 0.871657 0.138003 0.009139
C48   C     C_R   0.091522 0.192773 0.146780 -0.007870
C49   C     C_R   0.676827 0.760207 0.365635 0.064310
C50   C     C_R   0.216840 0.905909 0.368694 0.058409
C51   C     C_R   0.086374 0.300285 0.373383 0.066251
C52   C     C_R   0.703031 0.773924 0.315108 -0.025735
C53   C     C_R   0.223971 0.923288 0.317682 -0.016198
C54   C     C_R   0.062486 0.279067 0.323003 -0.017777
C55   C     C_R   0.667285 0.834382 0.286247 0.000083
C56   C     C_R   0.172640 0.829923 0.286413 0.001116
C57   C     C_R   0.151346 0.312635 0.290092 0.004430
C58   C     C_R   0.757033 0.723113 0.291732 0.052002
C59   C     C_R   0.288086 0.029394 0.296964 0.050294
C60   C     C_R   0.954108 0.234377 0.304113 0.053132
C61   C     C_R   0.746694 0.707028 0.240852 0.016002
C62   C     C_R   0.294320 0.040333 0.245486 0.009098
C63   C     C_R   0.935762 0.214405 0.253043 0.010892
C64   C     C_R   0.715449 0.771266 0.212698 -0.036890
C65   C     C_R   0.222640 0.949170 0.216474 -0.017456
C66   C     C_R   0.022105 0.219648 0.224102 -0.006185
C67   C     C_3   0.543617 0.837594 0.743067 -0.209589
C68   C     C_3   0.149803 0.708580 0.739106 -0.213558
C69   C     C_3   0.304982 0.434164 0.740175 -0.214236
C70   C     C_R   0.681772 0.839495 0.235509 0.027692
C71   C     C_R   0.166705 0.843468 0.236275 0.032921
C72   C     C_R   0.130896 0.277144 0.241534 0.028481
C73   C     C_R   0.722477 0.773716 0.162097 -0.104905
C74   C     C_R   0.204219 0.961975 0.167827 -0.082550
C75   C     C_R   0.003652 0.172890 0.177362 -0.083812
C76   C     C_R   0.616045 0.806667 0.385618 -0.029163
C77   C     C_R   0.192597 0.802110 0.385383 -0.044341
C78   C     C_R   0.192154 0.383043 0.386799 -0.030991
C79   C     C_3   0.747010 0.919326 0.724096 0.249647
C80   C     C_3   0.079906 0.844342 0.723678 0.245536
C81   C     C_3   0.140030 0.242181 0.724323 0.247228
C82   C     C_3   0.777315 0.917069 0.779161 0.026507
C83   C     C_3   0.081966 0.868873 0.780041 0.027393
C84   C     C_3   0.116407 0.221346 0.780710 0.034792
C85   C     C_1   0.730509 0.868741 0.903979 0.033681
C86   C     C_1   0.130342 0.861052 0.903640 0.019775
C87   C     C_1   0.141472 0.272941 0.904708 -0.001754
C88   C     C_3   0.628972 0.818222 0.714750 0.040263
C89   C     C_3   0.173851 0.816243 0.712817 0.031738
C90   C     C_3   0.190756 0.368824 0.714823 0.035680
C91   C     C_3   0.578248 0.862758 0.798113 -0.018409
C92   C     C_3   0.122280 0.713241 0.793790 -0.029399
C93   C     C_3   0.297235 0.397156 0.794358 -0.034216
C94   C     C_3   0.672974 0.837965 0.809596 0.036765
C95   C     C_3   0.156871 0.834414 0.808623 0.007308
C96   C     C_3   0.173265 0.331546 0.810480 0.004221
Cr1   Cr    Cr6+3 0.164410 0.584450 0.499910 1.074148
Cr2   Cr    Cr6+3 0.415550 0.579960 0.499910 1.068047
Cr3   Cr    Cr6+3 0.420040 0.835590 0.499910 1.077715
Cr4   Cr    Cr6+3 0.155170 0.075460 0.019960 1.041748
Cr5   Cr    Cr6+3 0.924540 0.079710 0.019960 1.046594
Cr6   Cr    Cr6+3 0.920290 0.844830 0.019960 1.043308
H1    H     H_    0.608745 0.951524 0.804296 0.166274
H2    H     H_    0.032178 0.660702 0.797758 0.169964
H3    H     H_    0.333399 0.342694 0.795974 0.172034
H4    H     H_    0.460682 0.764535 0.738693 0.101492
H5    H     H_    0.222892 0.697463 0.735915 0.130872
H6    H     H_    0.332768 0.523371 0.738622 0.132166
H7    H     H_    0.681129 0.987490 0.136602 0.128352
H8    H     H_    0.042516 0.696389 0.132566 0.117205
H9    H     H_    0.267686 0.276868 0.138564 0.134516
H10   H     H_    0.548849 0.913067 0.373580 0.184577
H11   H     H_    0.120857 0.630226 0.368028 0.185390
H12   H     H_    0.360528 0.482182 0.364689 0.173757
H13   H     H_    0.585947 0.013127 0.206463 0.152511
H14   H     H_    0.015563 0.574989 0.201099 0.119853
H15   H     H_    0.394832 0.393947 0.199981 0.137297
H16   H     H_    0.739700 0.716213 0.143421 0.187180
H17   H     H_    0.238105 0.044385 0.153711 0.165864
H18   H     H_    0.920838 0.120576 0.164195 0.158763
H19   H     H_    0.537714 0.907153 0.727112 0.140985
H20   H     H_    0.081056 0.635925 0.721122 0.115052
H21   H     H_    0.368147 0.423030 0.720438 0.121077
H22   H     H_    0.833082 0.882423 0.780369 0.192084
H23   H     H_    0.121445 0.958768 0.784177 0.206062
H24   H     H_    0.027167 0.186793 0.785760 0.220241
H25   H     H_    0.536537 0.640378 0.726612 0.113686
H26   H     H_    0.352284 0.894318 0.723709 0.091668
H27   H     H_    0.144135 0.494873 0.728605 0.098956
H28   H     H_    0.677666 0.692275 0.716099 0.176616
H29   H     H_    0.302360 0.987387 0.716595 0.209115
H30   H     H_    0.030726 0.359625 0.723690 0.189857
H31   H     H_    0.552588 0.663521 0.808356 0.175333
H32   H     H_    0.331121 0.882399 0.805176 0.099910
H33   H     H_    0.166635 0.483383 0.809611 0.160607
O1    O     O_R   0.137150 0.468200 0.553200 -0.485424
O2    O     O_R   0.531800 0.668950 0.553200 -0.498471
O3    O     O_R   0.331050 0.862850 0.553200 -0.487535
O4    O     O_R   0.179100 0.982980 0.967000 -0.486573
O5    O     O_R   0.017020 0.196120 0.967000 -0.491679
O6    O     O_R   0.803880 0.820900 0.967000 -0.487821
O7    O     O_R   0.173970 0.688730 0.549930 -0.503826
O8    O     O_R   0.311270 0.485240 0.549930 -0.500677
O9    O     O_R   0.514760 0.826030 0.549930 -0.498812
O10   O     O_R   0.140110 0.470540 0.446010 -0.458529
O11   O     O_R   0.529460 0.669570 0.446010 -0.483202
O12   O     O_R   0.330430 0.859890 0.446010 -0.454601
O13   O     O_R   0.176710 0.690910 0.450560 -0.515257
O14   O     O_R   0.309090 0.485800 0.450560 -0.506768
O15   O     O_R   0.514200 0.823290 0.450560 -0.507691
O16   O     O_3   0.333333 0.666667 0.499990 -0.308888
O17   O     O_R   0.176750 0.985260 0.074180 -0.528360
O18   O     O_R   0.014740 0.191490 0.074180 -0.479927
O19   O     O_R   0.808510 0.823250 0.074180 -0.511373
O20   O     O_R   0.146100 0.172630 0.068980 -0.498889
O21   O     O_R   0.827370 0.973470 0.068980 -0.515213
O22   O     O_R   0.026530 0.853900 0.068980 -0.486227
O23   O     O_3   1.000000 1.000000 0.020040 -0.258870
O24   O     O_R   0.148270 0.170520 0.969620 -0.495284
O25   O     O_R   0.829480 0.977750 0.969620 -0.506416
O26   O     O_R   0.022250 0.851730 0.969620 -0.504686
N1    N     N_3   0.486051 0.801445 0.831682 -0.648618
H34   H     H_    0.450507 0.849052 0.840800 0.234709
H35   H     H_    0.426272 0.728208 0.816066 0.225221
N2    N     N_3   0.171187 0.663706 0.824669 -0.649202
H36   H     H_    0.139256 0.653331 0.859996 0.269880
H37   H     H_    0.255801 0.713645 0.826982 0.223795
N3    N     N_3   0.365917 0.490853 0.826111 -0.657373
H38   H     H_    0.373874 0.462107 0.860162 0.255699
H39   H     H_    0.330782 0.540127 0.831863 0.235184
C97   C     C_2   0.704588 0.669551 0.809831 0.555399
O27   O     O_2   0.748046 0.636232 0.780909 -0.525971
O28   O     O_R   0.714098 0.657284 0.859918 -0.689515
H40   H     H_    0.761544 0.623362 0.867456 0.339057
C98   C     C_2   0.329042 0.029578 0.811080 0.546836
O29   O     O_2   0.353438 0.107495 0.784106 -0.540887
O30   O     O_R   0.352014 0.047927 0.860987 -0.691927
H41   H     H_    0.385789 0.128136 0.870288 0.343301
C99   C     C_2   0.003348 0.359603 0.817402 0.566357
O31   O     O_2   0.922925 0.277738 0.801623 -0.532818
O32   O     O_R   0.991556 0.418935 0.855764 -0.691632
H42   H     H_    0.912882 0.385564 0.867455 0.346450
N4    N     N_3   0.525686 0.001791 0.299794 -0.592252
H43   H     H_    0.498719 0.034780 0.272553 0.255889
H44   H     H_    0.581377 0.067768 0.321118 0.315038
N5    N     N_3   0.026593 0.521189 0.293566 -0.609774
H45   H     H_    0.997541 0.463206 0.265348 0.244221
H46   H     H_    0.958523 0.506112 0.314743 0.308483
N6    N     N_3   0.460080 0.486047 0.288140 -0.614467
H47   H     H_    0.513194 0.510774 0.258180 0.254831
H48   H     H_    0.483684 0.441987 0.311040 0.306004
C100  C     C_2   0.770202 0.624750 0.217944 0.580215
O33   O     O_2   0.717724 0.528894 0.230568 -0.459878
O34   O     O_R   0.851178 0.655975 0.182230 -0.720908
H49   H     H_    0.854945 0.591035 0.168185 0.329931
C101  C     C_2   0.386417 0.138605 0.221363 0.545930
O35   O     O_2   0.422668 0.230243 0.238700 -0.477959
O36   O     O_R   0.434869 0.124642 0.179235 -0.719921
H50   H     H_    0.497137 0.196254 0.166500 0.347322
C102  C     C_2   0.837746 0.210439 0.228495 0.553560
O37   O     O_2   0.756691 0.193483 0.251881 -0.490997
O38   O     O_R   0.841700 0.235455 0.178860 -0.714531
H51   H     H_    0.771617 0.231768 0.166816 0.342195
C103  C     C_2   0.840783 0.706870 0.318053 0.608510
O39   O     O_2   0.843182 0.621405 0.313926 -0.464660
O40   O     O_R   0.917104 0.790911 0.348004 -0.655152
H52   H     H_    0.967945 0.770045 0.365214 0.342554
C104  C     C_2   0.359676 0.125035 0.328400 0.638130
O41   O     O_2   0.347347 0.205315 0.329062 -0.461732
O42   O     O_R   0.437769 0.121170 0.358672 -0.688636
H53   H     H_    0.480281 0.190486 0.378755 0.357807
C105  C     C_2   0.864423 0.223078 0.336630 0.646610
O43   O     O_2   0.783484 0.133148 0.342545 -0.486194
O44   O     O_R   0.874520 0.314489 0.361701 -0.684438
H54   H     H_    0.808655 0.296054 0.383135 0.356838
C106  C     C_2   0.700811 0.688292 0.396840 0.631423
O45   O     O_2   0.663237 0.591556 0.386202 -0.488973
O46   O     O_R   0.762560 0.730795 0.439453 -0.657114
H55   H     H_    0.772450 0.673965 0.457996 0.343956
C107  C     C_2   0.211873 0.985772 0.403316 0.605329
O47   O     O_2   0.246654 0.996283 0.445026 -0.480171
O48   O     O_R   0.162447 0.046211 0.388254 -0.640598
H56   H     H_    0.162843 0.097227 0.414659 0.357614
C108  C     C_2   0.010664 0.222888 0.411011 0.592258
O49   O     O_2   0.005873 0.254460 0.452116 -0.483519
O50   O     O_R   0.947480 0.111454 0.399452 -0.647751
H57   H     H_    0.899847 0.066283 0.427655 0.359010
N7    N     N_3   0.830834 0.915317 0.692899 -0.658654
H58   H     H_    0.817494 0.924891 0.656150 0.239652
H59   H     H_    0.829506 0.840769 0.696456 0.255403
N8    N     N_3   0.101523 0.943497 0.696733 -0.583646
H60   H     H_    0.041680 0.963589 0.706452 0.280485
H61   H     H_    0.091729 0.927007 0.659248 0.239123
N9    N     N_3   0.035348 0.181707 0.697959 -0.624915
H62   H     H_    0.999315 0.099527 0.707794 0.280074
H63   H     H_    0.049388 0.183882 0.660363 0.243155
N10   N     N_3   0.745266 0.021504 0.713543 -0.586160
H64   H     H_    0.720445 0.020167 0.677442 0.229065
H65   H     H_    0.824478 0.088570 0.715897 0.300489
N11   N     N_3   0.971249 0.754218 0.708621 -0.580052
H66   H     H_    0.948078 0.683778 0.729204 0.256600
H67   H     H_    0.973252 0.733891 0.672012 0.225867
N12   N     N_3   0.213573 0.201664 0.707245 -0.558072
H68   H     H_    0.286491 0.236035 0.727149 0.258062
H69   H     H_    0.234321 0.222356 0.670622 0.230903
N13   N     N_3   0.838997 0.027820 0.800207 -0.622597
H70   H     H_    0.882098 0.026112 0.831010 0.214736
H71   H     H_    0.786383 0.056288 0.811350 0.278019
N14   N     N_3   0.971080 0.823791 0.800594 -0.611672
H72   H     H_    0.973512 0.873008 0.829901 0.214001
H73   H     H_    0.943502 0.745742 0.814783 0.259805
N15   N     N_3   0.141319 0.137959 0.799109 -0.624319
H74   H     H_    0.089095 0.096761 0.828352 0.211713
H75   H     H_    0.220983 0.173355 0.812739 0.263841

loop_
_geom_bond_atom_site_label_1
_geom_bond_atom_site_label_2
_ccdc_geom_bond_type
C59   C104  S    
C15   C18   T    
C97   O27   D    
C10   C85   T    
N2    H36   S    
C82   C94   S    
C4    C97   S    
C6    C99   S    
C2    C18   S    
C19   O20   A    
N13   H71   S    
C31   C43   A    
C24   O26   A    
C48   C75   A    
C62   C101  S    
C27   C78   A    
C36   O15   A    
C108  O49   D    
Cr6   O23   S    
C6    C9    S    
N7    H59   S    
C53   C59   A    
C98   O30   S    
C54   C60   A    
O32   H42   S    
Cr4   O17   S    
C25   C28   A    
C74   H17   S    
C97   O28   S    
C49   C106  S    
N14   H72   S    
C33   C39   A    
C20   O19   A    
C60   C63   A    
C106  O46   S    
C37   C40   A    
C69   C93   S    
N4    H44   S    
C34   C77   S    
C35   O10   A    
Cr2   O8    S    
C53   C56   A    
C84   N15   S    
C22   O24   A    
C69   H21   S    
C11   C86   T    
N12   H68   S    
C30   C57   A    
C22   O5    A    
C33   C45   A    
C63   C102  S    
C84   C96   S    
C21   O17   A    
C80   C89   S    
N6    H48   S    
C6    C96   S    
C79   C88   S    
C7    H28   S    
C1    O7    A    
C36   C76   S    
C33   C72   A    
C93   H3    S    
C34   O13   A    
C92   N2    S    
C8    H26   S    
C31   C70   A    
C66   C72   A    
C7    C88   S    
Cr5   O25   S    
C28   C40   A    
C104  O41   D    
N12   H69   S    
C61   C100  S    
C64   C73   A    
Cr3   O3    S    
O36   H50   S    
C3    O2    A    
Cr6   O6    S    
C32   C38   A    
C39   C42   A    
C51   C54   A    
Cr6   O19   S    
C25   H10   S    
C44   C47   A    
C9    H30   S    
C40   N4    S    
C49   C52   A    
C58   C61   A    
N3    H39   S    
O34   H49   S    
C63   C66   A    
C58   C103  S    
N2    H37   S    
O28   H40   S    
N10   H64   S    
C83   N14   S    
C27   C30   A    
C2    O8    A    
C5    C98   S    
C14   C17   T    
O48   H56   S    
N9    H63   S    
C83   H23   S    
C80   C83   S    
C67   H19   S    
Cr6   O22   S    
C82   H22   S    
C107  O47   D    
C5    C95   S    
C69   H6    S    
C32   C71   A    
N1    H35   S    
Cr2   O16   S    
C24   O4    A    
C84   H24   S    
C5    H32   S    
Cr3   O15   S    
C28   C55   A    
N14   H73   S    
C26   C77   A    
O38   H51   S    
C82   N13   S    
Cr2   O2    S    
C50   C53   A    
Cr3   O9    S    
C106  O45   D    
C93   N3    S    
C38   C41   A    
C101  O36   S    
C68   H20   S    
O40   H52   S    
C102  O37   D    
Cr2   O11   S    
Cr5   O21   S    
C4    C7    S    
C65   C71   A    
Cr3   O16   S    
C92   C95   S    
C2    O1    A    
C65   C74   A    
C31   C37   A    
C100  O34   S    
C61   C64   A    
N4    H43   S    
C14   C89   S    
C6    H33   S    
Cr4   O4    S    
C5    C8    S    
C38   H14   S    
C34   O12   A    
C98   O29   D    
Cr5   O18   S    
C51   C108  S    
C56   C71   A    
C83   C95   S    
C23   O25   A    
C8    H29   S    
N11   H67   S    
C68   C89   S    
Cr1   O16   S    
C49   C76   A    
C91   N1    S    
C1    O3    A    
C22   C87   S    
C103  O39   D    
C60   C105  S    
C52   C58   A    
C4    C94   S    
C81   C90   S    
Cr4   O20   S    
C36   O11   A    
N3    H38   S    
C68   H5    S    
C105  O44   S    
Cr5   O23   S    
O50   H57   S    
C93   C96   S    
C64   C70   A    
N8    H61   S    
C19   O18   A    
Cr1   O13   S    
C4    H31   S    
N9    H62   S    
C79   N10   S    
C80   N8    S    
Cr5   O5    S    
C69   C90   S    
C50   C77   A    
C21   O22   A    
C79   N7    S    
C81   C84   S    
N15   H75   S    
N1    H34   S    
C45   C48   A    
C11   C95   S    
C62   C65   A    
Cr3   O12   S    
N13   H70   S    
C59   C62   A    
C73   H16   S    
C20   O21   A    
C12   C87   T    
C29   C41   A    
O44   H54   S    
Cr1   O10   S    
C30   C42   A    
C3    O9    A    
C47   C74   A    
C91   H1    S    
C101  O35   D    
C108  O50   S    
C9    C90   S    
C79   C82   S    
C52   C55   A    
C67   H4    S    
C67   C88   S    
C37   H13   S    
C29   C56   A    
C9    H27   S    
C35   O14   A    
C35   C78   S    
C1    C17   S    
C67   C91   S    
C107  O48   S    
C25   C76   A    
C7    H25   S    
C100  O33   D    
C80   N11   S    
N10   H65   S    
C26   H11   S    
C39   H15   S    
C45   H9    S    
C15   C90   S    
C103  O40   S    
Cr4   O24   S    
C81   N12   S    
O46   H55   S    
C24   C86   S    
Cr6   O26   S    
C66   C75   A    
C46   C73   A    
C13   C88   S    
C50   C107  S    
N11   H66   S    
C68   C92   S    
C41   N5    S    
O42   H53   S    
C75   H18   S    
N6    H47   S    
C43   C46   A    
Cr1   O7    S    
C51   C78   A    
C55   C70   A    
C92   H2    S    
N7    H58   S    
C99   O31   D    
C27   H12   S    
Cr4   O23   S    
C105  O43   D    
C32   C44   A    
C26   C29   A    
C104  O42   S    
O30   H41   S    
C23   C85   S    
C13   C16   T    
C23   O6    A    
N8    H60   S    
C42   N6    S    
C57   C72   A    
C10   C94   S    
C81   N9    S    
C12   C96   S    
C99   O32   S    
C8    C89   S    
C43   H7    S    
Cr1   O1    S    
C21   C47   S    
N5    H45   S    
N5    H46   S    
Cr2   O14   S    
C102  O38   S    
C20   C46   S    
C3    C16   S    
C19   C48   S    
N15   H74   S    
C91   C94   S    
C54   C57   A    
C44   H8    S    
