data_mof_unit_49893.cif
_audit_creation_date              2012-12-11T14:27:41-0500
_audit_creation_method            fapswitch 2.2
_symmetry_space_group_name_H-M    P1
_symmetry_Int_Tables_number       1
_space_group_crystal_system       triclinic
_cell_length_a                    6.936879
_cell_length_b                    14.809339
_cell_length_c                    16.103627
_cell_angle_alpha                 90.92898
_cell_angle_beta                  88.776148
_cell_angle_gamma                 89.726562
_cell_volume                      1653.71868056

loop_
_atom_site_label
_atom_site_type_symbol
_atom_type_description
_atom_site_fract_x
_atom_site_fract_y
_atom_site_fract_z
_atom_type_partial_charge
O1    O     O_R   0.494510 0.415970 0.413200 -0.522662
O2    O     O_R   0.823800 0.407430 0.586200 -0.555821
O3    O     O_R   0.994130 0.584030 0.586800 -0.554505
C1    C     C_R   0.653393 0.388858 0.616629 0.708073
O4    O     O_R   0.824220 0.405090 0.413820 -0.517101
O5    O     O_R   0.994560 0.581670 0.413190 -0.554157
C2    C     C_R   0.659276 0.384857 0.384372 0.815414
O6    O     O_R   0.494090 0.418330 0.586810 -0.500080
O7    O     O_3   0.660810 0.557940 0.500000 -0.406334
V1    V     V_3+5 0.935650 0.489250 0.500000 1.611441
O8    O     O_R   0.324270 0.592570 0.413800 -0.544968
C3    C     C_R   0.157520 0.610380 0.382632 0.646953
O9    O     O_R   0.323850 0.594910 0.586180 -0.541357
C4    C     C_R   0.153609 0.616878 0.614938 0.709979
V2    V     V_3+5 0.435660 0.510750 0.500000 1.600324
O10   O     O_3   0.160630 0.442060 0.500000 -0.338252
C5    C     C_3   0.953535 0.717402 0.729862 -0.181837
C6    C     C_3   0.057285 0.709942 0.813149 0.480770
C7    C     C_3   0.123857 0.808063 0.807600 -0.109256
C8    C     C_3   0.021645 0.816896 0.723848 -0.208881
C9    C     C_3   0.209062 0.784768 0.677656 -0.127782
C10   C     C_3   0.310971 0.776673 0.762107 -0.165052
C11   C     C_3   0.243806 0.677188 0.768372 -0.158553
C12   C     C_3   0.141308 0.686069 0.684667 -0.084045
C13   C     C_2   0.999919 0.712111 0.283979 -0.211982
C14   C     C_2   0.157778 0.663528 0.305017 0.274498
C15   C     C_2   0.982020 0.767806 0.208160 0.041747
C16   C     C_2   0.120672 0.824790 0.183047 -0.180318
C17   C     C_2   0.773668 0.212599 0.783078 -0.040433
C18   C     C_2   0.618575 0.163438 0.804206 -0.212139
C19   C     C_2   0.776237 0.273167 0.710454 -0.205711
C20   C     C_2   0.634938 0.332550 0.691627 0.301855
C21   C     C_2   0.694141 0.170499 0.248862 0.436189
C22   C     C_2   0.594641 0.173492 0.178233 -0.297920
C23   C     C_2   0.638485 0.234655 0.317265 0.246908
C24   C     C_2   0.671475 0.324669 0.310825 0.034383
O11   O     O_R   0.771000 0.074870 0.906030 -0.560960
O12   O     O_R   0.440710 0.088040 0.078970 -0.535322
O13   O     O_R   0.270540 0.911420 0.079570 -0.535354
C25   C     C_R   0.605745 0.107339 0.109309 0.840641
O14   O     O_R   0.441280 0.085700 0.906600 -0.542101
O15   O     O_R   0.271110 0.909060 0.905960 -0.552933
C26   C     C_R   0.610963 0.104630 0.876821 0.701570
O16   O     O_R   0.770430 0.077230 0.079640 -0.504313
O17   O     O_3   0.604340 0.935220 0.992820 -0.372385
V3    V     V_3+5 0.329430 0.003850 0.992770 1.618696
O18   O     O_R   0.941400 0.898110 0.906530 -0.537816
C27   C     C_R   0.111610 0.876693 0.877544 0.720168
O19   O     O_R   0.940830 0.900450 0.078910 -0.527629
C28   C     C_R   0.108470 0.881646 0.108975 0.837557
V4    V     V_3+5 0.829450 0.982250 0.992700 1.639555
O20   O     O_3   0.104410 0.051000 0.992740 -0.369979
S1    S     S_3+6 0.954757 0.658597 0.902933 0.053049
O21   O     O_2   0.090890 0.668294 0.973831 -0.285158
O22   O     O_2   0.766249 0.704081 0.925468 -0.319801
O23   O     O_3   0.917207 0.548544 0.882159 -0.483002
H1    H     H_    0.855744 0.524809 0.933368 0.417329
H2    H     H_    0.250123 0.831356 0.218946 0.183408
H3    H     H_    0.906365 0.205176 0.816954 0.173193
H4    H     H_    0.491111 0.165841 0.766772 0.187878
H5    H     H_    0.905776 0.269999 0.671440 0.171745
S2    S     S_3+6 0.429248 0.354033 0.757719 0.027690
O24   O     O_2   0.272175 0.288650 0.736331 -0.368556
O25   O     O_2   0.478956 0.345132 0.847633 -0.283101
O26   O     O_3   0.346832 0.459200 0.742753 -0.515019
H6    H     H_    0.214008 0.459907 0.766632 0.373417
S3    S     S_3+6 0.878773 0.090044 0.265599 0.083189
O27   O     O_2   0.800034 0.996304 0.254366 -0.362414
O28   O     O_2   0.041367 0.103257 0.203908 -0.297192
O29   O     O_3   0.965291 0.102614 0.361932 -0.437045
H7    H     H_    0.897391 0.057033 0.395899 0.378406
H8    H     H_    0.474829 0.221045 0.176138 0.147478
S4    S     S_3+6 0.526545 0.188976 0.407202 0.030432
O30   O     O_2   0.654407 0.203192 0.480417 -0.359195
O31   O     O_2   0.336609 0.235801 0.423923 -0.296278
O32   O     O_3   0.488170 0.077833 0.392709 -0.474069
H9    H     H_    0.423145 0.058028 0.444606 0.371707
S5    S     S_3+6 0.797623 0.369636 0.222996 0.076812
O33   O     O_2   0.867816 0.463469 0.241858 -0.304169
O34   O     O_2   0.968965 0.310956 0.200691 -0.267157
O35   O     O_3   0.652076 0.373295 0.140933 -0.448831
H10   H     H_    0.527236 0.396516 0.163498 0.379966
H11   H     H_    0.805906 0.692668 0.717396 0.143426
H12   H     H_    0.930461 0.874832 0.705724 0.131206
H13   H     H_    0.272176 0.815607 0.620963 0.123216
H14   H     H_    0.458510 0.801081 0.775237 0.147864
H15   H     H_    0.337525 0.621489 0.788899 0.202370
H16   H     H_    0.871937 0.709518 0.323870 0.146049
S6    S     S_3+6 0.362355 0.648739 0.237190 0.069644
O36   O     O_2   0.305217 0.649844 0.147715 -0.233462
O37   O     O_2   0.504385 0.723108 0.252830 -0.380491
O38   O     O_3   0.469012 0.548971 0.255090 -0.468139
H17   H     H_    0.576652 0.563217 0.292449 0.353823
H18   H     H_    0.846552 0.765766 0.175697 0.201003

loop_
_geom_bond_atom_site_label_1
_geom_bond_atom_site_label_2
_ccdc_geom_bond_type
O14   C26   A    
C2    C24   S    
C19   H5    S    
C7    C8    S    
C1    O6    A    
O35   H10   S    
S1    O21   D    
C14   S6    S    
C17   C18   D    
C22   C25   S    
O5    C3    A    
O11   V4    S    
S5    O34   D    
O17   V4    S    
V2    O10   S    
V3    O20   S    
C5    C8    S    
O23   H1    S    
C6    C7    S    
S4    O30   D    
C4    C12   S    
S2    O25   D    
C6    S1    S    
O1    C2    A    
C16   C28   S    
C17   H3    S    
O19   V4    S    
C18   H4    S    
O14   V3    S    
O29   H7    S    
O1    V2    S    
S6    O37   D    
O7    V1    S    
C11   H15   S    
O9    C4    A    
S4    O31   D    
O8    V2    S    
C5    C6    S    
S1    O22   D    
C9    H13   S    
C5    C12   S    
C6    C11   S    
C7    C10   S    
O32   H9    S    
O4    C2    A    
S5    O33   D    
O18   V4    S    
C13   C14   D    
O17   V3    S    
C13   H16   S    
S3    O27   D    
C3    C14   S    
C5    H11   S    
C23   C24   D    
O11   C26   A    
O2    C1    A    
S2    O24   D    
O18   C27   A    
C25   O16   A    
C11   C12   S    
C21   C22   D    
O15   C27   A    
S6    O38   S    
C1    C20   S    
O3    C4    A    
O13   V3    S    
O16   V4    S    
O19   C28   A    
O6    V2    S    
C8    H12   S    
O15   V3    S    
S4    O32   S    
C18   C26   S    
O2    V1    S    
C22   H8    S    
C21   S3    S    
S1    O23   S    
C23   S4    S    
S2    O26   S    
C7    C27   S    
C19   C20   D    
O5    V1    S    
O8    C3    A    
C16   H2    S    
C13   C15   S    
S3    O29   S    
O9    V2    S    
O7    V2    S    
C20   S2    S    
V4    O20   S    
C17   C19   S    
O3    V1    S    
V1    O10   S    
O12   C25   A    
S5    O35   S    
O38   H17   S    
C21   C23   S    
C10   H14   S    
O12   V3    S    
O4    V1    S    
O13   C28   A    
C8    C9    S    
O26   H6    S    
C9    C12   S    
C15   C16   D    
C10   C11   S    
C15   H18   S    
C24   S5    S    
S3    O28   D    
S6    O36   D    
C9    C10   S    
