data_mof_unit_64819.cif
_audit_creation_date              2012-12-10T20:19:17-0500
_audit_creation_method            fapswitch 2.2
_symmetry_space_group_name_H-M    P1
_symmetry_Int_Tables_number       1
_space_group_crystal_system       triclinic
_cell_length_a                    41.797386
_cell_length_b                    35.592454
_cell_length_c                    21.659081
_cell_angle_alpha                 89.953744
_cell_angle_beta                  58.191053
_cell_angle_gamma                 89.960083
_cell_volume                      27382.2389415

loop_
_atom_site_label
_atom_site_type_symbol
_atom_type_description
_atom_site_fract_x
_atom_site_fract_y
_atom_site_fract_z
_atom_type_partial_charge
C1    C     C_R   0.926455 0.499880 0.573350 0.896823
C2    C     C_R   0.325677 0.478245 0.139786 0.173475
C3    C     C_R   0.000004 0.807828 0.000086 0.015559
C4    C     C_1   0.500055 0.267656 0.999996 0.002468
C5    C     C_1   0.999990 0.767654 0.000076 0.002492
C6    C     C_1   0.999979 0.734147 0.000061 -0.010174
C7    C     C_1   0.500036 0.234148 0.999969 -0.010181
C8    C     C_R   0.029503 0.674778 0.940474 0.155562
C9    C     C_R   0.970444 0.674755 0.059576 0.155606
C10   C     C_R   0.529491 0.174765 0.940327 0.155591
C11   C     C_R   0.470498 0.174764 0.059539 0.155656
C12   C     C_R   0.030750 0.635230 0.942224 0.006144
C13   C     C_R   0.174339 0.978271 0.860238 0.173480
C14   C     C_R   0.969211 0.635211 0.057800 0.006445
C15   C     C_R   0.530725 0.135216 0.942088 0.006074
C16   C     C_R   0.469239 0.135221 0.057772 0.006534
C17   C     C_R   0.999984 0.615179 0.000006 -0.225615
C18   C     C_R   0.499984 0.115177 0.999948 -0.225641
C19   C     C_3   0.983780 0.536544 0.229138 -0.315169
C20   C     C_3   0.016291 0.536478 0.770689 -0.315039
C21   C     C_3   0.483754 0.036564 0.229179 -0.314843
C22   C     C_3   0.516185 0.036498 0.770809 -0.315330
C23   C     C_R   0.999973 0.693976 0.000035 0.056130
C24   C     C_R   0.825678 0.978221 0.139849 0.173411
C25   C     C_R   0.500008 0.193976 0.999945 0.056090
C26   C     C_R   0.526182 0.672894 0.012459 0.151095
C27   C     C_R   0.479043 0.673254 0.977156 0.158102
C28   C     C_R   0.023207 0.173100 0.018567 0.156778
C29   C     C_R   0.977034 0.173156 0.980802 0.156793
C30   C     C_R   0.527266 0.633362 0.009186 0.131552
C31   C     C_R   0.475525 0.634007 0.985858 0.121891
C32   C     C_R   0.025545 0.133698 0.012561 0.124168
C33   C     C_R   0.974596 0.133764 0.987056 0.123907
C34   C     C_R   0.500764 0.614071 0.998884 -0.119922
C35   C     C_R   0.634915 0.474695 0.896336 0.164716
C36   C     C_R   0.000042 0.114099 0.999877 -0.121541
C37   C     C_R   0.503143 0.692419 0.993653 0.027744
C38   C     C_R   0.000143 0.192503 0.999630 0.032233
C39   C     C_1   0.503090 0.732549 0.994338 0.055647
C40   C     C_1   0.000153 0.232585 0.999605 0.058124
C41   C     C_1   0.000143 0.266095 0.999636 0.079236
C42   C     C_1   0.502542 0.766069 0.995758 0.080384
C43   C     C_R   0.028464 0.325551 0.003428 -0.028328
C44   C     C_R   0.971702 0.325583 0.996173 -0.028311
C45   C     C_R   0.529255 0.825870 0.003208 -0.027578
C46   C     C_R   0.365076 0.474517 0.104193 0.164543
C47   C     C_R   0.472906 0.825281 0.994670 -0.027838
C48   C     C_R   0.028092 0.365108 0.004864 -0.104280
C49   C     C_R   0.971977 0.365142 0.994997 -0.104188
C50   C     C_R   0.528320 0.865404 0.005503 -0.104663
C51   C     C_R   0.472543 0.864858 0.994574 -0.103755
C52   C     C_R   0.000021 0.384969 0.999964 -0.176294
C53   C     C_R   0.500217 0.884973 0.000231 -0.176499
C54   C     C_3   0.038568 0.496970 0.249183 -0.182221
C55   C     C_3   0.961431 0.497036 0.750824 -0.183098
C56   C     C_3   0.538544 0.997003 0.249240 -0.181929
C57   C     C_R   0.134946 0.974522 0.895794 0.164533
C58   C     C_3   0.461429 0.996916 0.750838 -0.182223
C59   C     C_R   0.000109 0.306230 0.999726 0.007379
C60   C     C_R   0.501566 0.806222 0.997881 0.005912
C61   C     C_3   0.972809 0.460978 0.313135 0.358892
C62   C     C_3   0.027122 0.460883 0.687036 0.359138
C63   C     C_3   0.472786 0.960999 0.313182 0.358952
C64   C     C_3   0.527212 0.960934 0.686941 0.359020
C65   C     C_3   0.996157 0.497416 0.314779 0.022866
C66   C     C_3   0.003842 0.497373 0.685227 0.022970
C67   C     C_3   0.496132 0.997434 0.314824 0.022899
C68   C     C_R   0.865077 0.974494 0.104266 0.164507
C69   C     C_3   0.503840 0.997367 0.685235 0.022947
C70   C     C_3   0.998593 0.497172 0.190896 -0.104420
C71   C     C_3   0.001404 0.497145 0.809114 -0.104475
C72   C     C_3   0.498578 0.997193 0.190929 -0.104618
C73   C     C_3   0.501404 0.997125 0.809120 -0.104387
C74   C     C_3   0.039853 0.491959 0.176767 -0.174479
C75   C     C_3   0.960135 0.492034 0.823264 -0.174461
C76   C     C_3   0.539835 0.992002 0.176823 -0.175487
C77   C     C_3   0.460148 0.991902 0.823266 -0.174258
C78   C     C_3   0.977875 0.426931 0.198518 -1.046222
C79   C     C_R   0.614057 0.502279 0.885018 -0.190536
C80   C     C_3   0.022003 0.426856 0.801796 -1.046368
C81   C     C_3   0.477819 0.926953 0.198627 -1.047085
C82   C     C_3   0.522154 0.926882 0.801639 -1.046643
C83   C     C_3   0.068027 0.474208 0.256918 -0.779509
C84   C     C_3   0.931936 0.474343 0.743188 -0.777961
C85   C     C_3   0.568015 0.974253 0.256965 -0.779271
C86   C     C_3   0.431986 0.974155 0.743144 -0.779818
C87   C     C_2   0.062901 0.458494 0.131445 0.442068
C88   C     C_2   0.937020 0.458629 0.868742 0.442256
C89   C     C_2   0.562916 0.958562 0.131494 0.442971
C90   C     C_R   0.385956 0.502295 0.114891 -0.189714
C91   C     C_2   0.437138 0.958425 0.868645 0.441715
C92   C     C_3   0.696514 0.450980 0.877905 -0.803243
C93   C     C_3   0.303410 0.450428 0.123621 -0.803180
C94   C     C_3   0.196628 0.950431 0.876403 -0.803200
C95   C     C_3   0.803410 0.950364 0.123764 -0.803087
C96   C     C_3   0.615898 0.440939 0.945455 -0.851356
C97   C     C_3   0.384093 0.440642 0.055495 -0.852472
C98   C     C_3   0.115961 0.940604 0.944433 -0.852463
C99   C     C_3   0.884093 0.940587 0.055665 -0.852477
C100  C     C_2   0.609771 0.564696 0.834617 0.362511
C101  C     C_R   0.114041 0.002314 0.885101 -0.189827
C102  C     C_2   0.390351 0.565152 0.163464 0.362845
C103  C     C_2   0.109577 0.065181 0.836478 0.362095
C104  C     C_2   0.890367 0.065184 0.163344 0.362172
C105  C     C_3   0.693011 0.562687 0.735111 -0.782428
C106  C     C_3   0.307102 0.563398 0.263279 -0.782601
C107  C     C_3   0.192840 0.063540 0.736840 -0.782950
C108  C     C_3   0.807111 0.063499 0.263064 -0.782963
C109  C     C_2   0.800529 0.434270 0.712467 0.373928
C110  C     C_2   0.199531 0.434142 0.289513 0.373727
C111  C     C_2   0.300481 0.934211 0.710561 0.373657
C112  C     C_R   0.073550 0.499871 0.426714 0.896841
C113  C     C_R   0.885958 0.002299 0.114892 -0.189772
C114  C     C_2   0.699537 0.934143 0.289653 0.373671
C115  C     C_2   0.881089 0.431085 0.644492 0.387308
C116  C     C_2   0.118992 0.430876 0.357239 0.388524
C117  C     C_2   0.381019 0.930894 0.642805 0.388637
C118  C     C_2   0.618999 0.930861 0.357385 0.388698
C119  C     C_2   0.940527 0.547640 0.365361 0.434786
C120  C     C_2   0.059563 0.547466 0.634415 0.434799
C121  C     C_2   0.440502 0.047661 0.365413 0.434941
C122  C     C_2   0.559444 0.047593 0.634574 0.435037
C123  C     C_3   0.811257 0.574514 0.655620 -0.887209
C124  C     C_R   0.632314 0.532924 0.837256 -0.061776
C125  C     C_3   0.188688 0.574688 0.343458 -0.887189
C126  C     C_3   0.311290 0.074789 0.656616 -0.887238
C127  C     C_3   0.688685 0.074717 0.343344 -0.887247
C128  C     C_3   0.558803 0.304383 0.874922 -0.867584
C129  C     C_3   0.441367 0.304309 0.125205 -0.867654
C130  C     C_3   0.058483 0.804352 0.874612 -0.867750
C131  C     C_3   0.941540 0.804337 0.125579 -0.867792
C132  C     C_3   0.563136 0.387391 0.878227 -0.858836
C133  C     C_3   0.436995 0.387321 0.122044 -0.859112
C134  C     C_3   0.062942 0.887344 0.877890 -0.858660
C135  C     C_R   0.367741 0.533194 0.161859 -0.061483
C136  C     C_3   0.937094 0.887339 0.122285 -0.858808
C137  C     C_3   0.058729 0.697216 0.874998 -0.800248
C138  C     C_3   0.941207 0.697165 0.125059 -0.800368
C139  C     C_3   0.558678 0.197191 0.874786 -0.800157
C140  C     C_3   0.441313 0.197181 0.125070 -0.800213
C141  C     C_2   0.064081 0.615089 0.883140 0.479901
C142  C     C_2   0.935897 0.615048 0.116888 0.479863
C143  C     C_2   0.564010 0.115055 0.882928 0.479918
C144  C     C_2   0.435922 0.115074 0.116888 0.479895
C145  C     C_3   0.550293 0.694600 0.033525 -0.800256
C146  C     C_R   0.132225 0.033242 0.838148 -0.061539
C147  C     C_3   0.456340 0.694371 0.951967 -0.796022
C148  C     C_3   0.045983 0.194121 0.043650 -0.797962
C149  C     C_3   0.954308 0.194227 0.955590 -0.797807
C150  C     C_3   0.557700 0.612375 0.013565 -0.777820
C151  C     C_3   0.444608 0.613972 0.981654 -0.770857
C152  C     C_3   0.055467 0.113056 0.019163 -0.770166
C153  C     C_3   0.944621 0.113207 0.980576 -0.770282
C154  C     C_2   0.057711 0.304503 0.008916 0.460799
C155  C     C_2   0.942495 0.304573 0.990580 0.460925
C156  C     C_2   0.558407 0.805166 0.009429 0.469529
C157  C     C_R   0.867748 0.033225 0.161781 -0.061477
C158  C     C_2   0.444072 0.803964 0.988427 0.460483
C159  C     C_2   0.056530 0.385873 0.013116 0.420439
C160  C     C_2   0.943451 0.385943 0.986985 0.420094
C161  C     C_2   0.556283 0.886467 0.014787 0.421383
C162  C     C_2   0.443805 0.885377 0.986801 0.418780
C163  C     C_2   0.008509 0.569413 0.184264 0.365117
C164  C     C_2   0.991624 0.569409 0.815415 0.365105
C165  C     C_2   0.508473 0.069440 0.184316 0.365175
C166  C     C_2   0.491425 0.069361 0.815623 0.365169
C167  C     C_3   0.991232 0.422094 0.311919 -0.811451
C168  C     C_R   0.671979 0.534043 0.795548 0.157619
C169  C     C_3   0.008620 0.422051 0.688432 -0.811846
C170  C     C_3   0.491215 0.922115 0.311964 -0.811223
C171  C     C_3   0.508814 0.922057 0.688214 -0.811752
C172  C     C_3   0.933438 0.457626 0.385632 -0.824686
C173  C     C_3   0.066486 0.457430 0.614555 -0.824812
C174  C     C_3   0.433416 0.957639 0.385682 -0.824870
C175  C     C_3   0.566585 0.957589 0.614452 -0.825225
C176  C     C_2   0.928781 0.473115 0.262249 0.428355
C177  C     C_2   0.071169 0.472927 0.737881 0.428286
C178  C     C_2   0.428759 0.973164 0.262290 0.428368
C179  C     C_R   0.328078 0.534366 0.203657 0.157474
C180  C     C_2   0.571227 0.973057 0.737819 0.428393
C181  C     C_R   0.171886 0.034452 0.796408 0.157519
C182  C     C_R   0.828085 0.034413 0.203551 0.157529
C183  C     C_R   0.692473 0.507350 0.809072 0.038097
C184  C     C_R   0.426450 0.999883 0.573291 0.896549
C185  C     C_R   0.307536 0.507362 0.191015 0.038224
C186  C     C_R   0.192454 0.007432 0.809051 0.038211
C187  C     C_R   0.807540 0.007376 0.190990 0.038205
C188  C     C_1   0.732660 0.508116 0.765847 0.021906
C189  C     C_1   0.267349 0.508128 0.234439 0.021838
C190  C     C_1   0.232641 0.008218 0.765641 0.021842
C191  C     C_1   0.767352 0.008145 0.234420 0.021812
C192  C     C_1   0.766215 0.507198 0.729422 0.036445
C193  C     C_1   0.233796 0.507206 0.270982 0.036557
C194  C     C_1   0.266196 0.007300 0.729100 0.036446
C195  C     C_R   0.573550 0.999872 0.426723 0.896556
C196  C     C_1   0.733799 0.007222 0.270972 0.036540
C197  C     C_R   0.823462 0.469241 0.682091 -0.045297
C198  C     C_R   0.176575 0.469165 0.319058 -0.045555
C199  C     C_R   0.323428 0.969229 0.681007 -0.045559
C200  C     C_R   0.676579 0.969169 0.319130 -0.045557
C201  C     C_R   0.996844 0.499551 0.382155 0.963454
C202  C     C_R   0.003158 0.499528 0.617844 0.963321
C203  C     C_R   0.496822 0.999555 0.382187 0.963380
C204  C     C_R   0.503150 0.999527 0.617854 0.963168
C205  C     C_R   0.863046 0.467322 0.646706 -0.096225
C206  C     C_3   0.969669 0.464747 0.242134 0.175922
C207  C     C_R   0.136997 0.467223 0.354310 -0.096487
C208  C     C_R   0.363007 0.967263 0.645736 -0.096479
C209  C     C_R   0.637001 0.967220 0.354385 -0.096507
C210  C     C_R   0.884957 0.499956 0.613006 -0.158383
C211  C     C_R   0.115053 0.499941 0.387232 -0.157961
C212  C     C_R   0.384945 0.999979 0.612795 -0.157984
C213  C     C_R   0.615055 0.999944 0.387248 -0.158007
C214  C     C_R   0.867063 0.533931 0.616772 -0.156705
C215  C     C_R   0.132922 0.534002 0.382882 -0.156224
C216  C     C_R   0.367068 0.034061 0.617155 -0.156411
C217  C     C_3   0.030270 0.464651 0.758021 0.175858
C218  C     C_R   0.632922 0.034015 0.382843 -0.156369
C219  C     C_R   0.828074 0.536589 0.653524 0.175452
C220  C     C_R   0.171906 0.536669 0.346243 0.175387
C221  C     C_R   0.328082 0.036750 0.653820 0.175460
C222  C     C_R   0.671906 0.036687 0.346195 0.175442
C223  C     C_R   0.806263 0.504272 0.686775 0.092581
C224  C     C_R   0.193747 0.504279 0.313709 0.092911
C225  C     C_R   0.306248 0.004361 0.686366 0.092909
C226  C     C_R   0.693749 0.004292 0.313714 0.092942
C227  C     C_R   0.999995 0.573501 0.999999 0.920770
C228  C     C_3   0.469642 0.964776 0.242189 0.176222
C229  C     C_R   0.499994 0.073501 0.999984 0.920807
C230  C     C_R   0.999787 0.499027 0.121562 0.891962
C231  C     C_R   0.000213 0.499014 0.878441 0.891932
C232  C     C_R   0.499784 0.999037 0.121571 0.891320
C233  C     C_R   0.500213 0.998995 0.878444 0.892442
C234  C     C_R   0.000005 0.426494 0.000003 0.782646
C235  C     C_R   0.500023 0.926495 0.000095 0.782313
C236  C     C_R   0.499997 0.427103 0.000029 0.886234
C237  C     C_R   0.999998 0.927102 0.000025 0.886125
C238  C     C_R   0.572973 0.500609 0.926708 0.848982
C239  C     C_3   0.530345 0.964698 0.757945 0.176089
C240  C     C_R   0.427032 0.500583 0.073271 0.850098
C241  C     C_R   0.072967 0.000588 0.926727 0.850194
C242  C     C_R   0.927033 0.000584 0.073271 0.850205
C243  C     C_3   0.979656 0.535814 0.304881 -0.298842
C244  C     C_3   0.020414 0.535733 0.694954 -0.298908
C245  C     C_3   0.479628 0.035833 0.304928 -0.299036
C246  C     C_3   0.520318 0.035765 0.695067 -0.298932
C247  C     C_R   0.500047 0.573057 0.999909 0.872597
C248  C     C_R   0.000004 0.073064 0.999974 0.873681
C249  C     C_R   0.529042 0.327042 0.939329 0.176622
C250  C     C_R   0.674297 0.478485 0.860919 0.173221
C251  C     C_R   0.471096 0.327008 0.060797 0.176721
C252  C     C_R   0.028872 0.827024 0.939194 0.176644
C253  C     C_R   0.971148 0.827018 0.060983 0.176688
C254  C     C_R   0.529864 0.366634 0.940195 0.128464
C255  C     C_R   0.470244 0.366601 0.059970 0.128461
C256  C     C_R   0.029735 0.866613 0.940048 0.128537
C257  C     C_R   0.970290 0.866610 0.060115 0.128499
C258  C     C_R   0.500032 0.386159 0.000063 -0.129167
C259  C     C_R   0.000009 0.886156 0.000068 -0.129383
C260  C     C_R   0.500066 0.307832 0.000041 0.015525
H1    H     H_    0.997318 0.558975 0.305892 0.156630
H2    H     H_    0.043768 0.542310 0.764953 0.223600
H3    H     H_    0.580006 0.057524 0.646849 0.138204
H4    H     H_    0.780120 0.574259 0.684528 0.240922
H5    H     H_    0.819556 0.595081 0.683216 0.245457
H6    H     H_    0.822137 0.584323 0.599253 0.256111
H7    H     H_    0.219818 0.574433 0.314754 0.240992
H8    H     H_    0.180467 0.595004 0.315291 0.245404
H9    H     H_    0.177709 0.584821 0.399645 0.256097
H10   H     H_    0.280159 0.074552 0.685346 0.240990
H11   H     H_    0.319519 0.095070 0.684762 0.245400
H12   H     H_    0.322255 0.084956 0.600432 0.256098
H13   H     H_    0.456288 0.042454 0.234881 0.223388
H14   H     H_    0.719815 0.074466 0.314640 0.240987
H15   H     H_    0.680462 0.095008 0.315143 0.245413
H16   H     H_    0.677706 0.084879 0.399514 0.256092
H17   H     H_    0.579774 0.321354 0.828217 0.250999
H18   H     H_    0.574380 0.286471 0.892404 0.241415
H19   H     H_    0.544912 0.286179 0.854265 0.237923
H20   H     H_    0.420410 0.321249 0.171964 0.251005
H21   H     H_    0.425770 0.286452 0.107754 0.241392
H22   H     H_    0.455292 0.286052 0.145777 0.237929
H23   H     H_    0.079337 0.821316 0.827753 0.250999
H24   H     H_    0.543642 0.042403 0.765104 0.223541
H25   H     H_    0.074205 0.786453 0.891777 0.241434
H26   H     H_    0.044438 0.786138 0.854290 0.237913
H27   H     H_    0.920704 0.821293 0.172452 0.250993
H28   H     H_    0.925797 0.786494 0.108439 0.241426
H29   H     H_    0.955588 0.786065 0.145871 0.237916
H30   H     H_    0.589785 0.376421 0.870983 0.239487
H31   H     H_    0.563192 0.383507 0.827319 0.251535
H32   H     H_    0.563507 0.417926 0.886864 0.241015
H33   H     H_    0.410329 0.376378 0.129387 0.239394
H34   H     H_    0.437004 0.383364 0.172882 0.251607
H35   H     H_    0.049480 0.525946 0.246316 0.160480
H36   H     H_    0.436593 0.417870 0.113490 0.241229
H37   H     H_    0.089643 0.876293 0.870281 0.239374
H38   H     H_    0.062802 0.883530 0.827168 0.251532
H39   H     H_    0.063413 0.917864 0.886549 0.241186
H40   H     H_    0.910386 0.876324 0.129928 0.239382
H41   H     H_    0.937250 0.883479 0.172991 0.251535
H42   H     H_    0.936622 0.917867 0.113625 0.241265
H43   H     H_    0.077486 0.679889 0.826727 0.261917
H44   H     H_    0.044346 0.716731 0.857326 0.221517
H45   H     H_    0.076267 0.713691 0.889788 0.245386
H46   H     H_    0.950572 0.526038 0.753553 0.160633
H47   H     H_    0.922438 0.679814 0.173308 0.261920
H48   H     H_    0.955581 0.716628 0.142771 0.221576
H49   H     H_    0.923682 0.713697 0.110257 0.245326
H50   H     H_    0.577374 0.179857 0.826484 0.261927
H51   H     H_    0.544260 0.216727 0.857224 0.221460
H52   H     H_    0.576278 0.213645 0.889451 0.245423
H53   H     H_    0.422576 0.179830 0.173344 0.261916
H54   H     H_    0.455732 0.216636 0.142693 0.221531
H55   H     H_    0.423751 0.213718 0.110364 0.245347
H56   H     H_    0.060587 0.592027 0.854545 0.117285
H57   H     H_    0.549447 0.025981 0.246392 0.160529
H58   H     H_    0.939412 0.591966 0.145482 0.117039
H59   H     H_    0.560455 0.091971 0.854455 0.117074
H60   H     H_    0.439433 0.091964 0.145432 0.117130
H61   H     H_    0.559930 0.677243 0.063153 0.233811
H62   H     H_    0.575278 0.706098 0.983894 0.286209
H63   H     H_    0.533934 0.717944 0.071045 0.236382
H64   H     H_    0.456807 0.679024 0.906904 0.229556
H65   H     H_    0.426783 0.697508 0.997838 0.273503
H66   H     H_    0.467998 0.722560 0.929850 0.243286
H67   H     H_    0.045626 0.178760 0.088634 0.230368
H68   H     H_    0.450498 0.025892 0.753653 0.160484
H69   H     H_    0.075502 0.197285 0.997634 0.273398
H70   H     H_    0.034285 0.222280 0.065913 0.243496
H71   H     H_    0.954714 0.178890 0.910575 0.230341
H72   H     H_    0.924772 0.197397 0.001535 0.273362
H73   H     H_    0.966011 0.222388 0.933333 0.243517
H74   H     H_    0.585071 0.627221 0.981511 0.263079
H75   H     H_    0.549759 0.610149 0.071076 0.232554
H76   H     H_    0.563156 0.583865 0.989681 0.235551
H77   H     H_    0.418012 0.630303 0.010484 0.259062
H78   H     H_    0.453281 0.610321 0.923972 0.232627
H79   H     H_    0.056920 0.515941 0.142046 0.166638
H80   H     H_    0.437413 0.586170 0.008707 0.236673
H81   H     H_    0.082155 0.129241 0.993021 0.257021
H82   H     H_    0.045418 0.108550 0.077345 0.233173
H83   H     H_    0.063129 0.085632 0.990720 0.237011
H84   H     H_    0.917950 0.129440 0.006781 0.257100
H85   H     H_    0.954618 0.108743 0.922418 0.233174
H86   H     H_    0.936948 0.085770 0.009026 0.237030
H87   H     H_    0.065703 0.313605 0.046754 0.083447
H88   H     H_    0.934481 0.313769 0.952796 0.083302
H89   H     H_    0.565317 0.813862 0.049052 0.081272
H90   H     H_    0.943115 0.516060 0.857869 0.166635
H91   H     H_    0.436045 0.813125 0.950643 0.082835
H92   H     H_    0.048015 0.410124 0.048336 0.096117
H93   H     H_    0.951875 0.410273 0.951929 0.096475
H94   H     H_    0.547408 0.910871 0.049627 0.095235
H95   H     H_    0.451931 0.909894 0.952251 0.097404
H96   H     H_    0.035759 0.574030 0.177807 0.086928
H97   H     H_    0.964387 0.574101 0.821832 0.086880
H98   H     H_    0.535714 0.074075 0.177889 0.086918
H99   H     H_    0.464176 0.073976 0.822048 0.086864
H100  H     H_    0.018696 0.417397 0.262938 0.216522
H101  H     H_    0.556885 0.015998 0.142127 0.166806
H102  H     H_    0.994017 0.416181 0.358789 0.259295
H103  H     H_    0.973210 0.398468 0.314652 0.229522
H104  H     H_    0.981159 0.417414 0.737457 0.216561
H105  H     H_    0.005789 0.416171 0.641622 0.259297
H106  H     H_    0.026607 0.398375 0.685757 0.229626
H107  H     H_    0.518700 0.917440 0.263019 0.216501
H108  H     H_    0.493961 0.916183 0.358874 0.259292
H109  H     H_    0.473214 0.898486 0.314626 0.229591
H110  H     H_    0.481363 0.917347 0.737221 0.216576
H111  H     H_    0.506009 0.916179 0.641373 0.259325
H112  H     H_    0.002795 0.558939 0.693846 0.156756
H113  H     H_    0.443055 0.015876 0.857950 0.166594
H114  H     H_    0.526859 0.898426 0.685479 0.229501
H115  H     H_    0.916561 0.434797 0.381356 0.231906
H116  H     H_    0.936204 0.450405 0.432481 0.234111
H117  H     H_    0.916141 0.483135 0.401959 0.277190
H118  H     H_    0.083326 0.434570 0.618950 0.231961
H119  H     H_    0.063708 0.450197 0.567744 0.233826
H120  H     H_    0.083824 0.482901 0.598088 0.277220
H121  H     H_    0.416536 0.934819 0.381390 0.232024
H122  H     H_    0.436185 0.950400 0.432521 0.233690
H123  H     H_    0.416124 0.983151 0.402043 0.277285
H124  H     H_    0.005788 0.414776 0.177859 0.232189
H125  H     H_    0.583470 0.934745 0.618752 0.231873
H126  H     H_    0.563820 0.950394 0.567609 0.233759
H127  H     H_    0.583875 0.983090 0.598104 0.277299
H128  H     H_    0.915947 0.456468 0.238842 0.120219
H129  H     H_    0.083956 0.456283 0.761438 0.120333
H130  H     H_    0.415950 0.956575 0.238764 0.120282
H131  H     H_    0.584077 0.956390 0.761223 0.120053
H132  H     H_    0.956867 0.405101 0.232542 0.251822
H133  H     H_    0.975296 0.430283 0.150453 0.238349
H134  H     H_    0.994068 0.414769 0.822518 0.232112
H135  H     H_    0.042971 0.404976 0.767860 0.251925
H136  H     H_    0.024594 0.430208 0.849836 0.238195
H137  H     H_    0.505698 0.914757 0.178126 0.232029
H138  H     H_    0.456766 0.905155 0.232651 0.252036
H139  H     H_    0.475296 0.930305 0.150498 0.238145
H140  H     H_    0.497289 0.058995 0.305940 0.156614
H141  H     H_    0.494239 0.914737 0.822357 0.232253
H142  H     H_    0.543163 0.905043 0.767654 0.251657
H143  H     H_    0.524743 0.930234 0.849682 0.238406
H144  H     H_    0.061253 0.444303 0.270048 0.265903
H145  H     H_    0.096106 0.476229 0.206034 0.251614
H146  H     H_    0.071372 0.486581 0.300168 0.233756
H147  H     H_    0.938654 0.444420 0.730213 0.266279
H148  H     H_    0.903857 0.476440 0.794053 0.251957
H149  H     H_    0.928623 0.486716 0.699867 0.233602
H150  H     H_    0.561266 0.944341 0.270053 0.265868
H151  H     H_    0.502645 0.058930 0.694009 0.156680
H152  H     H_    0.596097 0.976299 0.206092 0.251715
H153  H     H_    0.571347 0.986620 0.300234 0.233690
H154  H     H_    0.438784 0.944251 0.730058 0.265882
H155  H     H_    0.403907 0.976168 0.794029 0.251551
H156  H     H_    0.428629 0.986532 0.699878 0.233842
H157  H     H_    0.060571 0.431164 0.154757 0.066161
H158  H     H_    0.939314 0.431286 0.845568 0.066220
H159  H     H_    0.560491 0.931192 0.154730 0.066390
H160  H     H_    0.439445 0.931114 0.845347 0.066508
H161  H     H_    0.726384 0.458954 0.853929 0.246350
H162  H     H_    0.883563 0.558954 0.590890 0.200343
H163  H     H_    0.684232 0.449636 0.937458 0.230338
H164  H     H_    0.695816 0.422607 0.857438 0.259608
H165  H     H_    0.273493 0.458277 0.147757 0.246405
H166  H     H_    0.315533 0.448803 0.064147 0.230348
H167  H     H_    0.304272 0.422197 0.144493 0.259443
H168  H     H_    0.226535 0.958289 0.852292 0.246369
H169  H     H_    0.184497 0.948761 0.935878 0.230291
H170  H     H_    0.195802 0.922219 0.855504 0.259503
H171  H     H_    0.773492 0.958206 0.147888 0.246433
H172  H     H_    0.815529 0.948695 0.064296 0.230328
H173  H     H_    0.116409 0.559095 0.408183 0.199803
H174  H     H_    0.804276 0.922155 0.144706 0.259453
H175  H     H_    0.629707 0.414636 0.915811 0.236476
H176  H     H_    0.617932 0.443017 0.994394 0.248060
H177  H     H_    0.585826 0.437796 0.964005 0.240776
H178  H     H_    0.370467 0.414394 0.085648 0.236588
H179  H     H_    0.381798 0.442391 0.006812 0.248169
H180  H     H_    0.414245 0.437698 0.036463 0.240705
H181  H     H_    0.129611 0.914381 0.914229 0.236667
H182  H     H_    0.118256 0.942286 0.993118 0.248115
H183  H     H_    0.085811 0.937667 0.963466 0.240583
H184  H     H_    0.383577 0.059153 0.591840 0.199757
H185  H     H_    0.870479 0.914356 0.085909 0.236639
H186  H     H_    0.881782 0.942271 0.006996 0.248143
H187  H     H_    0.914250 0.937665 0.036608 0.240621
H188  H     H_    0.584063 0.559646 0.835260 0.105290
H189  H     H_    0.416035 0.560263 0.163027 0.104063
H190  H     H_    0.083954 0.060264 0.836720 0.103780
H191  H     H_    0.916011 0.060290 0.163057 0.103677
H192  H     H_    0.674857 0.577240 0.719558 0.267060
H193  H     H_    0.706480 0.583845 0.751873 0.243749
H194  H     H_    0.715091 0.548504 0.684828 0.220734
H195  H     H_    0.616407 0.059113 0.408102 0.199758
H196  H     H_    0.325326 0.578381 0.278095 0.267204
H197  H     H_    0.293472 0.584182 0.246112 0.243737
H198  H     H_    0.285153 0.549475 0.314074 0.220771
H199  H     H_    0.174607 0.078576 0.722057 0.267167
H200  H     H_    0.206459 0.084279 0.754043 0.243662
H201  H     H_    0.214798 0.049657 0.686020 0.220830
H202  H     H_    0.825336 0.078545 0.277799 0.267163
H203  H     H_    0.793465 0.084229 0.245832 0.243691
H204  H     H_    0.785173 0.049612 0.313918 0.220805
H205  H     H_    0.809788 0.411806 0.733240 0.126084
H206  H     H_    0.956316 0.542443 0.234840 0.223494
H207  H     H_    0.190309 0.411455 0.269196 0.125850
H208  H     H_    0.309703 0.911500 0.730901 0.125836
H209  H     H_    0.690320 0.911436 0.269370 0.125893
H210  H     H_    0.897451 0.416013 0.593565 0.091734
H211  H     H_    0.102605 0.416056 0.408483 0.090937
H212  H     H_    0.397395 0.916090 0.591568 0.090926
H213  H     H_    0.602611 0.916066 0.408658 0.090829
H214  H     H_    0.919949 0.557559 0.353085 0.138222
H215  H     H_    0.080162 0.557332 0.646640 0.138304
H216  H     H_    0.419926 0.057591 0.353139 0.138260
O1    O     O_R   0.944550 0.531270 0.555450 -0.594250
O2    O     O_R   0.444590 0.500090 0.003140 -0.600851
O3    O     O_R   0.055410 0.000090 0.996860 -0.600944
O4    O     O_R   0.944590 0.000090 0.003140 -0.600920
O5    O     O_R   0.500010 0.555520 0.947680 -0.619282
O6    O     O_R   0.499990 0.555520 0.052320 -0.618743
O7    O     O_R   0.000010 0.055520 0.947680 -0.619623
O8    O     O_R   0.999990 0.055520 0.052320 -0.619607
O9    O     O_R   0.944500 0.468660 0.555500 -0.646195
O10   O     O_R   0.055500 0.468660 0.444500 -0.645654
O11   O     O_R   0.444500 0.968660 0.555500 -0.645687
O12   O     O_R   0.055450 0.531270 0.444550 -0.594335
O13   O     O_R   0.555500 0.968660 0.444500 -0.645596
O14   O     O_R   0.999990 0.531270 0.407410 -0.600049
O15   O     O_R   0.000010 0.531270 0.592590 -0.600201
O16   O     O_R   0.499990 0.031270 0.407410 -0.600156
O17   O     O_R   0.500010 0.031270 0.592590 -0.600071
O18   O     O_R   0.999940 0.468660 0.407460 -0.643424
O19   O     O_R   0.000060 0.468660 0.592540 -0.643625
O20   O     O_R   0.499940 0.968660 0.407460 -0.643440
O21   O     O_R   0.500060 0.968660 0.592540 -0.643454
O22   O     O_R   0.968670 0.555400 0.031330 -0.618545
O23   O     O_R   0.444550 0.031270 0.555450 -0.594387
O24   O     O_R   0.031330 0.555400 0.968670 -0.618489
O25   O     O_R   0.468670 0.055400 0.031330 -0.618561
O26   O     O_R   0.531330 0.055400 0.968670 -0.618397
O27   O     O_R   0.968670 0.499940 0.123930 -0.642724
O28   O     O_R   0.031330 0.499940 0.876070 -0.642602
O29   O     O_R   0.468670 0.999940 0.123930 -0.642752
O30   O     O_R   0.531330 0.999940 0.876070 -0.642643
O31   O     O_R   0.031270 0.499990 0.061330 -0.579604
O32   O     O_R   0.968730 0.499990 0.938670 -0.579673
O33   O     O_R   0.531270 0.999990 0.061330 -0.580044
O34   O     O_R   0.555450 0.031270 0.444550 -0.594308
O35   O     O_R   0.468730 0.999990 0.938670 -0.579410
O36   O     O_R   0.968660 0.444490 0.031330 -0.610901
O37   O     O_R   0.031340 0.444490 0.968670 -0.610716
O38   O     O_R   0.468660 0.944490 0.031330 -0.610856
O39   O     O_R   0.531340 0.944490 0.968670 -0.610980
O40   O     O_R   0.499920 0.444610 0.947830 -0.609443
O41   O     O_R   0.500080 0.444610 0.052170 -0.609526
O42   O     O_R   0.999920 0.944610 0.947830 -0.609454
O43   O     O_R   0.000080 0.944610 0.052170 -0.609504
O44   O     O_2   0.087223 0.462638 0.067395 -0.530599
O45   O     O_R   0.555400 0.500060 0.892310 -0.636789
O46   O     O_2   0.912684 0.462843 0.932756 -0.530661
O47   O     O_2   0.587371 0.962766 0.067547 -0.529442
O48   O     O_2   0.412878 0.962537 0.932735 -0.531247
O49   O     O_2   0.619137 0.597209 0.834419 -0.559662
O50   O     O_2   0.381097 0.597591 0.162458 -0.557987
O51   O     O_2   0.118723 0.097627 0.837656 -0.557453
O52   O     O_2   0.881173 0.097622 0.162122 -0.557435
O53   O     O_2   0.771700 0.429528 0.712110 -0.565326
O54   O     O_2   0.228337 0.429621 0.290066 -0.565079
O55   O     O_2   0.271682 0.929721 0.709986 -0.565072
O56   O     O_R   0.444600 0.500060 0.107690 -0.636354
O57   O     O_2   0.728340 0.929644 0.290228 -0.565123
O58   O     O_2   0.878046 0.418209 0.699599 -0.581001
O59   O     O_2   0.122070 0.417642 0.302378 -0.580114
O60   O     O_2   0.377958 0.917623 0.697659 -0.580030
O61   O     O_2   0.622077 0.917589 0.302550 -0.579842
O62   O     O_2   0.932116 0.548825 0.428504 -0.587529
O63   O     O_2   0.067970 0.548636 0.571271 -0.587247
O64   O     O_2   0.432093 0.048839 0.428556 -0.587179
O65   O     O_2   0.567870 0.048767 0.571418 -0.587062
O66   O     O_2   0.095812 0.623447 0.867647 -0.555054
O67   O     O_R   0.055400 0.000060 0.892310 -0.636342
O68   O     O_2   0.904159 0.623414 0.132386 -0.555130
O69   O     O_2   0.595772 0.123417 0.867240 -0.555062
O70   O     O_2   0.404180 0.123487 0.132471 -0.555174
O71   O     O_2   0.074012 0.277718 0.969447 -0.559951
O72   O     O_2   0.926245 0.277720 0.029913 -0.559976
O73   O     O_2   0.575896 0.779244 0.968494 -0.566708
O74   O     O_2   0.428103 0.776899 0.027323 -0.560008
O75   O     O_2   0.089723 0.376943 0.978835 -0.525570
O76   O     O_2   0.910282 0.376946 0.021289 -0.525584
O77   O     O_2   0.589504 0.877644 0.981702 -0.524772
O78   O     O_R   0.944600 0.000060 0.107690 -0.636336
O79   O     O_2   0.410772 0.875892 0.020689 -0.525585
O80   O     O_2   0.997625 0.591803 0.156594 -0.611414
O81   O     O_2   0.002542 0.591763 0.843011 -0.611434
O82   O     O_2   0.497592 0.091818 0.156623 -0.611501
O83   O     O_2   0.502279 0.091745 0.843286 -0.611351
O84   O     O_2   0.909592 0.498410 0.302814 -0.632664
O85   O     O_2   0.090415 0.498153 0.697147 -0.632527
O86   O     O_2   0.409555 0.998425 0.302943 -0.632652
O87   O     O_2   0.590395 0.998366 0.697243 -0.632557
O88   O     O_R   0.555410 0.500090 0.996860 -0.601222
Zn1   Zn    Zn3+2 0.000000 0.541770 0.500000 1.022857
Zn2   Zn    Zn3+2 0.500040 0.500060 0.069780 0.963342
Zn3   Zn    Zn3+2 0.999960 0.000060 0.930220 0.962407
Zn4   Zn    Zn3+2 0.000040 0.000060 0.069780 0.962371
Zn5   Zn    Zn3+2 0.500000 0.041770 0.500000 1.022879
Zn6   Zn    Zn3+2 0.000000 0.458160 0.500000 0.933457
Zn7   Zn    Zn3+2 0.500000 0.958160 0.500000 0.934035
Zn8   Zn    Zn3+2 0.958170 0.499940 0.041830 1.054969
Zn9   Zn    Zn3+2 0.041830 0.499940 0.958170 1.055169
Zn10  Zn    Zn3+2 0.458170 0.999940 0.041830 1.054524
Zn11  Zn    Zn3+2 0.541830 0.999940 0.958170 1.054970
Zn12  Zn    Zn3+2 0.499960 0.500060 0.930220 0.962694

loop_
_geom_bond_atom_site_label_1
_geom_bond_atom_site_label_2
_ccdc_geom_bond_type
C207  C211  A    
C95   H172  S    
C107  H199  S    
C84   H149  S    
C248  O8    A    
C95   H174  S    
C109  C197  S    
C104  C157  S    
C52   C234  S    
C54   C65   S    
C107  C181  S    
C115  O58   D    
C126  H12   S    
C81   H138  S    
C16   C144  S    
C148  H69   S    
C73   C239  S    
C5    C6    T    
C106  H198  S    
C102  H189  S    
C221  C225  A    
C8    C23   A    
C106  H196  S    
C176  C206  S    
C143  H59   S    
C191  C196  T    
C93   H167  S    
C218  H195  S    
C144  H60   S    
C20   H2    S    
C124  C168  A    
C145  H61   S    
C238  O45   A    
C77   C91   S    
C139  H52   S    
C184  O11   A    
C70   C74   S    
C99   H186  S    
C20   C71   S    
C218  C222  A    
C128  H17   S    
C128  H19   S    
C19   C243  S    
C61   C206  S    
C122  C246  S    
C4    C260  S    
C173  H119  S    
C106  H197  S    
C163  O80   D    
C92   H163  S    
O43   Zn4   S    
C235  O38   A    
C80   H134  S    
C54   C83   S    
C126  H10   S    
C63   C67   S    
C50   C53   A    
C21   C72   S    
C27   C31   A    
C83   H144  S    
C28   C32   A    
O56   Zn2   S    
C127  H15   S    
O29   Zn10  S    
C62   C66   S    
C136  H41   S    
C180  C239  S    
C240  O2    A    
C87   O44   D    
C109  O53   D    
C162  O79   D    
C75   H90   S    
C100  C124  S    
C186  C190  S    
C105  H192  S    
C11   C140  S    
C3    C253  A    
O14   Zn1   S    
C251  C260  A    
C237  O43   A    
C152  H81   S    
O41   Zn2   S    
C231  O28   A    
C208  C212  A    
C227  O22   A    
C97   H178  S    
C26   C37   A    
C160  H93   S    
C179  C185  A    
C122  O65   D    
C159  O75   D    
C130  C252  S    
O3    Zn4   S    
C145  H63   S    
C151  H80   S    
C174  H123  S    
C216  H184  S    
C112  O10   A    
C150  H74   S    
O18   Zn6   S    
C146  C181  A    
C202  O15   A    
C143  O69   D    
C153  H84   S    
C195  O13   A    
C200  C209  A    
C192  C223  S    
C177  C217  S    
C164  H97   S    
C7    C25   S    
C131  C253  S    
C166  H99   S    
C121  O64   D    
C111  O55   D    
C236  C258  S    
C128  C249  S    
C13   C94   S    
O13   Zn7   S    
C64   C171  S    
C162  H95   S    
C236  O41   A    
C22   H24   S    
C183  C188  S    
C62   C173  S    
C139  H50   S    
C45   C50   A    
C116  H211  S    
C231  O32   A    
C169  H106  S    
C82   H142  S    
C147  H65   S    
C67   C203  S    
C29   C149  S    
C163  H96   S    
C22   C166  S    
C61   C65   S    
C48   C52   A    
C158  O74   D    
C73   C77   S    
C83   H145  S    
C80   H136  S    
C240  O56   A    
C103  O51   D    
C15   C18   A    
C104  O52   D    
C29   C33   A    
C149  H71   S    
C238  O88   A    
C130  H26   S    
C117  C208  S    
C133  C255  S    
C35   C96   S    
C241  O67   A    
C86   H154  S    
C130  H23   S    
C94   H170  S    
C24   C187  A    
C84   H148  S    
C194  C225  S    
C105  H194  S    
C152  H83   S    
C33   C153  S    
C13   C57   A    
C11   C25   A    
C44   C59   A    
O21   Zn7   S    
C12   C141  S    
C51   C162  S    
C134  H38   S    
C242  O78   A    
C102  C135  S    
C58   C77   S    
O1    Zn1   S    
C193  C224  S    
C29   C38   A    
C97   H179  S    
C151  H78   S    
C74   C87   S    
C215  H173  S    
C43   C154  S    
C102  O50   D    
C174  H121  S    
C112  O12   A    
C43   C59   A    
C76   C89   S    
C138  H48   S    
C136  C257  S    
C78   H124  S    
C246  H151  S    
C98   H182  S    
C54   C74   S    
C125  H7    S    
C99   H187  S    
C14   C17   A    
C58   H68   S    
C153  H86   S    
C4    C7    T    
C58   C86   S    
C128  H18   S    
O88   Zn2   S    
C116  O59   D    
C96   H175  S    
C132  H31   S    
C195  C213  S    
C75   C88   S    
C30   C34   A    
C159  H92   S    
C142  H58   S    
C62   C217  S    
C1    O9    A    
C247  O5    A    
C235  O39   A    
C80   C217  S    
C22   C246  S    
C138  H49   S    
C170  H108  S    
C56   H57   S    
C9    C23   A    
C63   C170  S    
C19   C163  S    
O17   Zn5   S    
C64   C69   S    
C140  H55   S    
C78   H132  S    
C89   H159  S    
C35   C250  A    
C142  O68   D    
C51   C53   A    
O24   Zn9   S    
C76   H101  S    
C155  O72   D    
C31   C151  S    
O26   Zn11  S    
C110  H207  S    
C32   C152  S    
C123  H4    S    
C8    C12   A    
C168  C183  A    
C82   C239  S    
C31   C34   A    
C49   C160  S    
C45   C156  S    
C200  C226  A    
C133  H34   S    
O10   Zn6   S    
C15   C143  S    
C10   C25   A    
C26   C30   A    
C117  O60   D    
C249  C260  A    
C154  O71   D    
C137  H45   S    
C1    O1    A    
C180  H131  S    
C123  C219  S    
C176  H128  S    
C71   C231  S    
C72   C232  S    
C94   H168  S    
C198  C207  A    
C156  H89   S    
C197  C223  A    
C21   H13   S    
C181  C186  A    
C185  C189  S    
C158  H91   S    
C132  C254  S    
C57   C101  A    
C79   C124  A    
C105  C168  S    
C188  C192  T    
C113  C157  A    
C81   H137  S    
C2    C185  A    
C148  H70   S    
C90   C135  A    
C67   C245  S    
C123  H6    S    
C205  C210  A    
C108  H203  S    
C109  H205  S    
C35   C79   A    
C199  C208  A    
C233  O30   A    
C100  O49   D    
C129  H22   S    
C93   H166  S    
C236  O40   A    
O35   Zn10  S    
C66   C202  S    
C125  C220  S    
C253  C257  A    
C249  C254  A    
C139  H51   S    
C69   C204  S    
C113  C242  S    
C34   C247  S    
C99   H185  S    
C241  O3    A    
C243  H1    S    
C79   C238  S    
O38   Zn10  S    
C115  H210  S    
O6    Zn2   S    
C81   C228  S    
C173  H118  S    
C110  C198  S    
O45   Zn12  S    
C92   H164  S    
C197  C205  A    
O42   Zn3   S    
C118  H213  S    
C14   C142  S    
C145  H62   S    
C126  C221  S    
C65   C243  S    
C203  O20   A    
C118  C209  S    
C229  O26   A    
C87   H157  S    
C131  H28   S    
C136  H42   S    
C122  H3    S    
C30   C150  S    
C175  H126  S    
C20   C164  S    
C234  O36   A    
C21   C165  S    
C129  H20   S    
C178  H130  S    
C133  H36   S    
C216  C221  A    
C95   H171  S    
C129  C251  S    
C127  C222  S    
O78   Zn4   S    
C237  O42   A    
O36   Zn8   S    
C152  H82   S    
C108  C182  S    
C232  O33   A    
C204  O17   A    
C12   C17   A    
C167  H102  S    
C117  H212  S    
C73   C233  S    
C68   C113  A    
C131  H29   S    
C121  C245  S    
C165  O82   D    
C255  C258  A    
C107  H200  S    
C71   C75   S    
O28   Zn9   S    
C248  O7    A    
C88   O46   D    
C166  O83   D    
C120  H215  S    
C184  O23   A    
C150  H75   S    
C39   C42   T    
C2    C93   S    
C171  H110  S    
C28   C148  S    
C126  H11   S    
C81   H139  S    
C150  H76   S    
C24   C95   S    
C47   C51   A    
C2    C46   A    
C8    C137  S    
C61   C167  S    
C234  O37   A    
C198  C224  A    
C9    C14   A    
C78   C206  S    
C19   H206  S    
C11   C16   A    
C251  C255  A    
C74   H79   S    
C213  C218  A    
C49   C52   A    
C140  H54   S    
C82   H143  S    
C156  O73   D    
C46   C97   S    
C169  H105  S    
C160  O76   D    
C173  H120  S    
C132  H30   S    
C10   C139  S    
O4    Zn3   S    
O9    Zn6   S    
C32   C36   A    
C55   C66   S    
C63   C174  S    
C20   C244  S    
C62   C169  S    
C111  H208  S    
C13   C186  A    
C114  O57   D    
C242  O4    A    
C154  H87   S    
C120  O63   D    
C3    C5    S    
C18   C229  S    
O37   Zn9   S    
C58   C69   S    
C63   C228  S    
C46   C90   A    
C103  H190  S    
O39   Zn11  S    
O31   Zn9   S    
C36   C248  S    
C86   H155  S    
O40   Zn12  S    
O7    Zn3   S    
C71   C217  S    
C214  C219  A    
C105  H193  S    
C134  C256  S    
C155  H88   S    
C37   C39   S    
C38   C40   S    
O11   Zn7   S    
C56   C85   S    
C100  H188  S    
C66   C244  S    
C57   C98   S    
C137  H43   S    
C119  O62   D    
C134  H39   S    
C209  C213  A    
C183  C250  A    
O25   Zn10  S    
C24   C68   A    
C219  C223  A    
C69   C246  S    
C256  C259  A    
C108  H202  S    
C72   C228  S    
O32   Zn8   S    
C254  C258  A    
C171  H114  S    
O67   Zn3   S    
C55   C84   S    
C174  H122  S    
C230  O31   A    
C89   O47   D    
C44   C49   A    
C211  C215  A    
C45   C60   A    
C98   H183  S    
C56   C76   S    
C17   C227  S    
C153  H85   S    
C114  H209  S    
C127  H16   S    
C72   C76   S    
C245  H140  S    
O20   Zn7   S    
C244  H112  S    
O30   Zn11  S    
C96   H176  S    
C137  H44   S    
C27   C37   A    
C10   C15   A    
C120  C244  S    
C121  H216  S    
C91   H160  S    
C222  C226  A    
C91   O48   D    
C78   H133  S    
C141  O66   D    
C82   H141  S    
O22   Zn8   S    
C9    C138  S    
C149  H73   S    
C147  H66   S    
C204  O21   A    
C47   C60   A    
O5    Zn12  S    
C212  C216  A    
C175  H127  S    
O19   Zn6   S    
C237  C259  S    
C132  H32   S    
C169  H104  S    
C133  H33   S    
C80   H135  S    
C101  C241  S    
C43   C48   A    
C53   C235  S    
C187  C191  S    
C54   H35   S    
C252  C256  A    
C111  C199  S    
O12   Zn1   S    
C203  O16   A    
C141  H56   S    
C50   C161  S    
C167  H103  S    
C149  H72   S    
C201  O14   A    
O33   Zn11  S    
C130  H25   S    
C88   H158  S    
C104  H191  S    
C184  C212  S    
C85   H150  S    
O2    Zn12  S    
C165  H98   S    
C48   C159  S    
C196  C226  S    
C101  C146  A    
C107  H201  S    
C94   H169  S    
C33   C36   A    
C84   H147  S    
C172  H117  S    
C201  O18   A    
C172  H116  S    
C3    C252  A    
C41   C59   S    
C161  H94   S    
C195  O34   A    
C42   C60   S    
C64   C239  S    
C177  H129  S    
C21   C245  S    
C232  O29   A    
C171  H111  S    
C112  C211  S    
C210  C214  A    
C230  O27   A    
C125  H9    S    
C257  C259  A    
C134  H37   S    
C26   C145  S    
C70   C230  S    
C148  H67   S    
C189  C193  T    
C123  H5    S    
C28   C38   A    
C96   H177  S    
C108  H204  S    
C233  O35   A    
C161  O77   D    
C202  O19   A    
C140  H53   S    
C61   C172  S    
C64   C175  S    
C129  H21   S    
C199  C225  A    
C93   H165  S    
O15   Zn1   S    
C138  H47   S    
C16   C18   A    
C40   C41   T    
C178  O86   D    
C98   H181  S    
C215  C220  A    
C115  C205  S    
C125  H8    S    
O23   Zn5   S    
C127  H14   S    
C106  C179  S    
C220  C224  A    
C97   H180  S    
C164  O81   D    
C177  O85   D    
O27   Zn8   S    
C172  H115  S    
C1    C210  S    
C110  O54   D    
C44   C155  S    
C178  C228  S    
C92   H161  S    
O34   Zn5   S    
C247  O6    A    
C119  H214  S    
C170  H107  S    
C86   H156  S    
C70   C206  S    
C56   C67   S    
C170  H109  S    
C77   H113  S    
C214  H162  S    
C90   C240  S    
C83   H146  S    
C229  O25   A    
C92   C250  S    
C180  O87   D    
C55   C75   S    
C147  H64   S    
C131  H27   S    
C85   H153  S    
C175  H125  S    
C6    C23   S    
C151  H77   S    
C182  C187  A    
O8    Zn4   S    
C55   H46   S    
C116  C207  S    
C190  C194  T    
O16   Zn5   S    
C167  H100  S    
C65   C201  S    
C135  C179  A    
C118  O61   D    
C27   C147  S    
C157  C182  A    
C227  O24   A    
C19   C70   S    
C114  C200  S    
C22   C73   S    
C144  O70   D    
C119  C243  S    
C47   C158  S    
C136  H40   S    
C103  C146  S    
C176  O84   D    
C85   H152  S    
C68   C99   S    
