data_mof_unit_10868.cif
_audit_creation_date              2012-12-11T14:38:23-0500
_audit_creation_method            fapswitch 2.2
_symmetry_space_group_name_H-M    P1
_symmetry_Int_Tables_number       1
_space_group_crystal_system       monoclinic
_cell_length_a                    19.53998
_cell_length_b                    11.302731
_cell_length_c                    19.677441
_cell_angle_alpha                 90.0
_cell_angle_beta                  96.194568
_cell_angle_gamma                 90.0
_cell_volume                      4320.48930455

loop_
_atom_site_label
_atom_site_type_symbol
_atom_type_description
_atom_site_fract_x
_atom_site_fract_y
_atom_site_fract_z
_atom_type_partial_charge
C1    C     C_R   0.710754 0.990060 0.366629 0.548521
C2    C     C_3   0.167714 0.494253 0.478494 -0.287702
C3    C     C_2   0.876059 0.009580 0.582004 0.280862
C4    C     C_2   0.348705 0.032742 0.398094 0.222686
C5    C     C_2   0.651295 0.032742 0.601906 0.222686
C6    C     C_2   0.848705 0.532742 0.398094 0.222686
C7    C     C_2   0.151295 0.532742 0.601906 0.222686
C8    C     C_3   0.332286 0.994253 0.521505 -0.287702
C9    C     C_3   0.667714 0.994253 0.478494 -0.287702
C10   C     C_3   0.762770 0.322841 0.553423 0.167169
C11   C     C_3   0.237230 0.322841 0.446577 0.167169
C12   C     C_3   0.262770 0.822841 0.553423 0.167169
C13   C     C_3   0.737230 0.822841 0.446577 0.167169
C14   C     C_3   0.771053 0.457324 0.561470 0.030402
C15   C     C_3   0.228947 0.457324 0.438530 0.030402
C16   C     C_3   0.271053 0.957324 0.561470 0.030402
C17   C     C_R   0.289246 0.990060 0.633371 0.548520
C18   C     C_3   0.728947 0.957324 0.438530 0.030402
C19   C     C_3   0.746078 0.406022 0.431673 0.054152
C20   C     C_3   0.253922 0.406022 0.568327 0.054152
C21   C     C_3   0.246078 0.906022 0.431673 0.054152
C22   C     C_3   0.753922 0.906022 0.568327 0.054152
C23   C     C_3   0.822628 0.446117 0.448298 -0.141835
C24   C     C_3   0.177372 0.446117 0.551702 -0.141835
C25   C     C_3   0.322628 0.946117 0.448298 -0.141835
C26   C     C_3   0.677372 0.946117 0.551702 -0.141835
C27   C     C_3   0.730645 0.299664 0.478813 0.030909
C28   C     C_R   0.210754 0.490060 0.366629 0.548521
C29   C     C_3   0.269354 0.299664 0.521187 0.030909
C30   C     C_3   0.230646 0.799664 0.478813 0.030909
C31   C     C_3   0.769354 0.799664 0.521187 0.030909
C32   C     C_3   0.494292 0.303323 0.961867 -0.243398
C33   C     C_3   0.505708 0.303323 0.038133 -0.243398
C34   C     C_3   0.994292 0.803323 0.961867 -0.243398
C35   C     C_3   0.005708 0.803323 0.038133 -0.243397
C36   C     C_3   0.427486 0.109229 0.969839 0.081717
C37   C     C_3   0.572514 0.109229 0.030161 0.081718
C38   C     C_3   0.927486 0.609229 0.969839 0.081717
C39   C     C_R   0.789246 0.490060 0.633371 0.548520
C40   C     C_3   0.072514 0.609229 0.030161 0.081718
C41   C     C_3   0.553719 0.106512 0.951074 0.076271
C42   C     C_3   0.446281 0.106512 0.048926 0.076271
C43   C     C_3   0.053719 0.606512 0.951074 0.076271
C44   C     C_3   0.946281 0.606512 0.048926 0.076271
C45   C     C_R   0.536327 0.180686 0.338420 0.521410
C46   C     C_R   0.463672 0.180686 0.661580 0.521411
C47   C     C_R   0.036327 0.680686 0.338420 0.521410
C48   C     C_R   0.963673 0.680686 0.661580 0.521411
C49   C     C_3   0.485217 0.174368 0.933912 0.054500
C50   C     C_3   0.698071 0.510092 0.450424 -0.075730
C51   C     C_3   0.514783 0.174368 0.066088 0.054501
C52   C     C_3   0.985217 0.674368 0.933912 0.054501
C53   C     C_3   0.014783 0.674368 0.066088 0.054501
C54   C     C_1   0.762066 0.429146 0.904751 0.051035
C55   C     C_1   0.237934 0.429146 0.095249 0.051034
C56   C     C_1   0.262066 0.929147 0.904751 0.051035
C57   C     C_1   0.737934 0.929147 0.095249 0.051034
C58   C     C_1   0.749140 0.407877 0.035146 -0.044879
C59   C     C_1   0.250860 0.407877 0.964854 -0.044879
C60   C     C_1   0.249140 0.907877 0.035146 -0.044879
C61   C     C_3   0.301929 0.510092 0.549576 -0.075730
C62   C     C_1   0.750860 0.907877 0.964854 -0.044879
C63   C     C_1   0.754496 0.417945 0.964401 0.002177
C64   C     C_1   0.245504 0.417945 0.035599 0.002177
C65   C     C_1   0.254496 0.917945 0.964401 0.002177
C66   C     C_1   0.745504 0.917945 0.035599 0.002177
C67   C     C_1   0.744536 0.392673 0.095120 -0.002772
C68   C     C_1   0.255464 0.392673 0.904880 -0.002772
C69   C     C_1   0.244536 0.892673 0.095120 -0.002772
C70   C     C_1   0.755464 0.892673 0.904880 -0.002772
C71   C     C_R   0.738232 0.361673 0.361045 0.589950
C72   C     C_3   0.198071 0.010092 0.450424 -0.075730
C73   C     C_R   0.261768 0.361673 0.638955 0.589949
C74   C     C_R   0.238232 0.861673 0.361045 0.589950
C75   C     C_R   0.761768 0.861673 0.638955 0.589949
C76   C     C_R   0.722303 0.954939 0.163216 0.587334
C77   C     C_R   0.277697 0.954939 0.836784 0.587334
C78   C     C_R   0.222303 0.454939 0.163216 0.587334
C79   C     C_R   0.777697 0.454939 0.836784 0.587334
C80   C     C_R   0.535269 0.179775 0.140088 0.632918
C81   C     C_R   0.464731 0.179775 0.859912 0.632918
C82   C     C_R   0.035269 0.679775 0.140088 0.632918
C83   C     C_3   0.801929 0.010092 0.549576 -0.075730
C84   C     C_R   0.964731 0.679775 0.859912 0.632918
C85   C     C_R   0.736309 0.357837 0.163812 0.584875
C86   C     C_R   0.263691 0.357837 0.836187 0.584875
C87   C     C_R   0.236309 0.857837 0.163812 0.584875
C88   C     C_R   0.763691 0.857837 0.836187 0.584875
C89   C     C_1   0.484936 0.174626 0.594264 -0.022659
C90   C     C_1   0.515064 0.174626 0.405736 -0.022659
C91   C     C_1   0.984936 0.674626 0.594264 -0.022659
C92   C     C_1   0.015064 0.674626 0.405736 -0.022659
C93   C     C_1   0.504676 0.172859 0.464988 -0.024339
C94   C     C_3   0.832286 0.494253 0.521505 -0.287702
C95   C     C_1   0.495324 0.172859 0.535012 -0.024339
C96   C     C_1   0.004676 0.672859 0.464988 -0.024339
C97   C     C_1   0.995324 0.672859 0.535012 -0.024339
C98   C     C_3   0.700294 0.512448 0.529538 -0.285420
C99   C     C_3   0.299706 0.512448 0.470462 -0.285420
C100  C     C_3   0.200294 0.012448 0.529538 -0.285420
C101  C     C_3   0.799706 0.012448 0.470462 -0.285420
C102  C     C_2   0.623941 0.509580 0.417996 0.280862
C103  C     C_2   0.376059 0.509580 0.582004 0.280862
C104  C     C_2   0.123941 0.009580 0.417996 0.280862
Cr1   Cr    Cr6+3 0.765780 0.160710 0.267420 1.048935
Cr2   Cr    Cr6+3 0.383970 0.323720 0.751490 1.092912
Cr3   Cr    Cr6+3 0.116030 0.823720 0.248510 1.092912
Cr4   Cr    Cr6+3 0.883970 0.823720 0.751490 1.092912
Cr5   Cr    Cr6+3 0.234220 0.160710 0.732580 1.048935
Cr6   Cr    Cr6+3 0.265780 0.660710 0.267420 1.048935
Cr7   Cr    Cr6+3 0.734220 0.660710 0.732580 1.048935
Cr8   Cr    Cr6+3 0.612200 0.009560 0.248850 1.076075
Cr9   Cr    Cr6+3 0.387800 0.009560 0.751150 1.076075
Cr10  Cr    Cr6+3 0.112200 0.509560 0.248850 1.076075
Cr11  Cr    Cr6+3 0.887800 0.509560 0.751150 1.076075
Cr12  Cr    Cr6+3 0.616030 0.323720 0.248510 1.092912
H1    H     H_    0.682901 0.595923 0.550103 0.101484
H2    H     H_    0.117346 0.463434 0.452652 0.158832
H3    H     H_    0.382654 0.963434 0.547348 0.158832
H4    H     H_    0.617346 0.963434 0.452652 0.158832
H5    H     H_    0.856500 0.367718 0.445807 0.105806
H6    H     H_    0.143500 0.367718 0.554193 0.105806
H7    H     H_    0.356500 0.867718 0.445807 0.105806
H8    H     H_    0.643500 0.867718 0.554193 0.105806
H9    H     H_    0.448426 0.359709 0.946702 0.139896
H10   H     H_    0.551574 0.359709 0.053298 0.139896
H11   H     H_    0.948426 0.859709 0.946702 0.139896
H12   H     H_    0.317099 0.595923 0.449897 0.101484
H13   H     H_    0.051574 0.859709 0.053298 0.139896
H14   H     H_    0.538718 0.346684 0.940834 0.183608
H15   H     H_    0.461282 0.346684 0.059166 0.183607
H16   H     H_    0.038718 0.846684 0.940834 0.183607
H17   H     H_    0.961282 0.846684 0.059166 0.183607
H18   H     H_    0.545741 0.012685 0.934215 0.087503
H19   H     H_    0.454259 0.012685 0.065785 0.087503
H20   H     H_    0.045741 0.512685 0.934215 0.087503
H21   H     H_    0.954259 0.512685 0.065785 0.087503
H22   H     H_    0.574964 0.015617 0.047861 0.134656
H23   H     H_    0.182901 0.095922 0.550103 0.101484
H24   H     H_    0.425035 0.015617 0.952138 0.134656
H25   H     H_    0.074964 0.515617 0.047861 0.134656
H26   H     H_    0.925035 0.515617 0.952138 0.134656
H27   H     H_    0.658017 0.457240 0.546188 0.179170
H28   H     H_    0.341983 0.457240 0.453811 0.179170
H29   H     H_    0.158017 0.957240 0.546188 0.179170
H30   H     H_    0.841983 0.957240 0.453811 0.179170
H31   H     H_    0.722689 0.589998 0.433940 0.227581
H32   H     H_    0.277311 0.589998 0.566060 0.227581
H33   H     H_    0.222689 0.089998 0.433940 0.227581
H34   H     H_    0.817099 0.095922 0.449897 0.101484
H35   H     H_    0.777311 0.089998 0.566060 0.227581
H36   H     H_    0.335494 0.089075 0.520247 0.161563
H37   H     H_    0.664506 0.089075 0.479753 0.161563
H38   H     H_    0.835494 0.589075 0.520247 0.161563
H39   H     H_    0.164506 0.589075 0.479753 0.161563
H40   H     H_    0.727112 0.289462 0.589524 0.230504
H41   H     H_    0.272888 0.289462 0.410476 0.230504
H42   H     H_    0.227111 0.789462 0.589524 0.230504
H43   H     H_    0.772888 0.789462 0.410476 0.230504
H44   H     H_    0.361437 0.239497 0.968951 0.354839
H45   H     H_    0.749923 0.219432 0.459776 0.121439
H46   H     H_    0.638563 0.239497 0.031049 0.354839
H47   H     H_    0.861437 0.739497 0.968951 0.354839
H48   H     H_    0.138563 0.739497 0.031049 0.354839
H49   H     H_    0.356551 0.097196 0.082456 0.351516
H50   H     H_    0.643449 0.097195 0.917544 0.351515
H51   H     H_    0.856551 0.597196 0.082456 0.351515
H52   H     H_    0.143449 0.597195 0.917544 0.351515
H53   H     H_    0.585458 0.454519 0.438231 0.143195
H54   H     H_    0.414542 0.454519 0.561769 0.143195
H55   H     H_    0.085458 0.954519 0.438231 0.143195
H56   H     H_    0.250077 0.219432 0.540224 0.121439
H57   H     H_    0.914542 0.954519 0.561769 0.143195
H58   H     H_    0.403403 0.045501 0.399248 0.123496
H59   H     H_    0.596597 0.045501 0.600752 0.123496
H60   H     H_    0.903403 0.545501 0.399248 0.123496
H61   H     H_    0.096597 0.545501 0.600752 0.123496
H62   H     H_    0.849058 0.248440 0.529145 0.308680
H63   H     H_    0.150942 0.248440 0.470855 0.308680
H64   H     H_    0.349058 0.748440 0.529145 0.308680
H65   H     H_    0.650942 0.748440 0.470855 0.308680
H66   H     H_    0.641199 0.263167 0.431327 0.319887
H67   H     H_    0.249923 0.719432 0.459776 0.121439
H68   H     H_    0.358801 0.263167 0.568673 0.319887
H69   H     H_    0.141199 0.763167 0.431327 0.319887
H70   H     H_    0.858801 0.763167 0.568673 0.319887
H71   H     H_    0.750077 0.719432 0.540224 0.121439
H72   H     H_    0.882654 0.463434 0.547348 0.158832
O1    O     O_R   0.783100 0.287550 0.345460 -0.550720
O2    O     O_R   0.454350 0.284910 0.836260 -0.511823
O3    O     O_R   0.045650 0.784910 0.163740 -0.511823
O4    O     O_R   0.954350 0.784910 0.836260 -0.511823
O5    O     O_R   0.677950 0.374280 0.185410 -0.483213
O6    O     O_R   0.322050 0.374280 0.814590 -0.483213
O7    O     O_R   0.177950 0.874280 0.185410 -0.483213
O8    O     O_R   0.822050 0.874280 0.814590 -0.483213
O9    O     O_3   0.664670 0.164660 0.254930 -0.304603
O10   O     O_3   0.335330 0.164660 0.745070 -0.304603
O11   O     O_3   0.164670 0.664660 0.254930 -0.304603
O12   O     O_R   0.216900 0.287550 0.654540 -0.550719
O13   O     O_3   0.835330 0.664660 0.745070 -0.304603
O14   O     O_R   0.760020 0.037400 0.337700 -0.525788
O15   O     O_R   0.239980 0.037400 0.662300 -0.525788
O16   O     O_R   0.260020 0.537400 0.337700 -0.525788
O17   O     O_R   0.739980 0.537400 0.662300 -0.525788
O18   O     O_R   0.666600 0.921990 0.332020 -0.424871
O19   O     O_R   0.333400 0.921990 0.667980 -0.424871
O20   O     O_R   0.166600 0.421990 0.332020 -0.424871
O21   O     O_R   0.833400 0.421990 0.667980 -0.424871
O22   O     O_R   0.557260 0.082670 0.312540 -0.516035
O23   O     O_R   0.283100 0.787550 0.345460 -0.550720
O24   O     O_R   0.442740 0.082670 0.687460 -0.516036
O25   O     O_R   0.057260 0.582670 0.312540 -0.516035
O26   O     O_R   0.942740 0.582670 0.687460 -0.516036
O27   O     O_R   0.548410 0.285740 0.316480 -0.497203
O28   O     O_R   0.451590 0.285740 0.683520 -0.497202
O29   O     O_R   0.048410 0.785740 0.316480 -0.497203
O30   O     O_R   0.951590 0.785740 0.683520 -0.497202
O31   O     O_R   0.680500 0.375040 0.327000 -0.470111
O32   O     O_R   0.319500 0.375040 0.673000 -0.470111
O33   O     O_R   0.180500 0.875040 0.327000 -0.470111
O34   O     O_R   0.716900 0.787550 0.654540 -0.550719
O35   O     O_R   0.819500 0.875040 0.673000 -0.470111
O36   O     O_R   0.780350 0.286720 0.192720 -0.496329
O37   O     O_R   0.219650 0.286720 0.807280 -0.496329
O38   O     O_R   0.280350 0.786720 0.192720 -0.496329
O39   O     O_R   0.719650 0.786720 0.807280 -0.496329
O40   O     O_R   0.757470 0.036630 0.196110 -0.483130
O41   O     O_R   0.242530 0.036630 0.803890 -0.483130
O42   O     O_R   0.257470 0.536630 0.196110 -0.483130
O43   O     O_R   0.742530 0.536630 0.803890 -0.483130
O44   O     O_R   0.663840 0.921160 0.179280 -0.499719
O45   O     O_R   0.554710 0.081900 0.170950 -0.504587
O46   O     O_R   0.336160 0.921160 0.820720 -0.499720
O47   O     O_R   0.163840 0.421160 0.179280 -0.499719
O48   O     O_R   0.836160 0.421160 0.820720 -0.499720
O49   O     O_3   0.361783 0.157808 0.950882 -0.694376
O50   O     O_3   0.638217 0.157808 0.049118 -0.694376
O51   O     O_3   0.861783 0.657809 0.950882 -0.694376
O52   O     O_3   0.138217 0.657808 0.049118 -0.694377
O53   O     O_3   0.394145 0.156505 0.083876 -0.691619
O54   O     O_3   0.605855 0.156505 0.916124 -0.691619
O55   O     O_3   0.894145 0.656505 0.083876 -0.691619
O56   O     O_R   0.445290 0.081900 0.829050 -0.504587
O57   O     O_3   0.105855 0.656505 0.916124 -0.691619
O58   O     O_2   0.606214 0.572398 0.368749 -0.433758
O59   O     O_2   0.393786 0.572398 0.631251 -0.433758
O60   O     O_2   0.106214 0.072398 0.368749 -0.433758
O61   O     O_2   0.893786 0.072398 0.631251 -0.433758
O62   O     O_2   0.310325 0.084269 0.354744 -0.493182
O63   O     O_2   0.689675 0.084269 0.645256 -0.493182
O64   O     O_2   0.810325 0.584269 0.354744 -0.493182
O65   O     O_2   0.189675 0.584269 0.645256 -0.493182
O66   O     O_3   0.827182 0.267798 0.570722 -0.672178
O67   O     O_R   0.054710 0.581900 0.170950 -0.504587
O68   O     O_3   0.172818 0.267798 0.429277 -0.672178
O69   O     O_3   0.327182 0.767798 0.570722 -0.672178
O70   O     O_3   0.672818 0.767798 0.429277 -0.672178
O71   O     O_3   0.659286 0.284674 0.478648 -0.786485
O72   O     O_3   0.340714 0.284674 0.521352 -0.786485
O73   O     O_3   0.159286 0.784674 0.478648 -0.786485
O74   O     O_3   0.840714 0.784674 0.521352 -0.786485
O75   O     O_R   0.945290 0.581900 0.829050 -0.504587
O76   O     O_R   0.545650 0.284910 0.163740 -0.511823

loop_
_geom_bond_atom_site_label_1
_geom_bond_atom_site_label_2
_ccdc_geom_bond_type
C10   C27   S    
C50   H31   S    
Cr2   O32   S    
C2    H39   S    
C82   O3    A    
C35   C53   S    
C68   C86   S    
C30   H67   S    
C5    O63   D    
C19   C71   S    
Cr6   O23   S    
C102  O58   D    
C57   C66   T    
C70   C88   S    
C35   H17   S    
C32   H14   S    
C4    C25   S    
C2    H2    S    
C23   H5    S    
C46   C89   S    
C48   O30   A    
H70   O74   S    
Cr10  O67   S    
C47   O29   A    
C74   O33   A    
C7    H61   S    
C59   C64   S    
H68   O72   S    
C13   C18   S    
C90   C93   T    
C31   O74   S    
Cr12  O76   S    
Cr9   O19   S    
C81   O56   A    
C61   C103  S    
C61   H32   S    
C94   H72   S    
C79   O48   A    
H69   O73   S    
C37   C51   S    
Cr7   O17   S    
C43   C52   S    
C88   O39   A    
C76   O40   A    
C54   C63   T    
H48   O52   S    
C56   C65   T    
C73   O12   A    
C47   O25   A    
C101  H34   S    
C92   C96   T    
C71   O31   A    
C62   C70   T    
Cr6   O16   S    
C34   C35   S    
C47   C92   S    
Cr1   O40   S    
C49   C81   S    
C20   C61   S    
C52   C84   S    
C88   O8    A    
C51   C80   S    
C41   H18   S    
Cr6   O42   S    
C100  H29   S    
C14   C39   S    
Cr3   O29   S    
Cr5   O41   S    
C44   C53   S    
C3    H57   S    
C40   C43   S    
C78   O42   A    
C12   C16   S    
C75   O34   A    
Cr10  O20   S    
C16   C17   S    
C104  O60   D    
C48   C91   S    
C80   O76   A    
C76   O44   A    
C103  H54   S    
Cr9   O10   S    
C84   O75   A    
C84   O4    A    
C7    C24   S    
Cr4   O8    S    
C19   C27   S    
C35   H13   S    
C2    C24   S    
C69   C87   S    
C42   C51   S    
Cr2   O10   S    
Cr4   O30   S    
C33   H15   S    
C102  H53   S    
Cr1   O9    S    
H52   O57   S    
C38   O51   S    
C75   O35   A    
C27   H45   S    
C8    C16   S    
C4    H58   S    
C40   H25   S    
C7    O65   D    
C8    C25   S    
C5    H59   S    
Cr10  O25   S    
Cr7   O13   S    
Cr5   O10   S    
C61   C99   S    
C26   H8    S    
C22   C75   S    
Cr12  O27   S    
C1    O14   A    
Cr1   O14   S    
Cr3   O7    S    
Cr11  O48   S    
C9    C26   S    
C14   C98   S    
C83   H35   S    
C20   C29   S    
C55   C64   T    
Cr9   O46   S    
C32   C49   S    
C48   O26   A    
C101  H30   S    
C50   C98   S    
C29   O72   S    
C67   C85   S    
C22   C31   S    
Cr11  O21   S    
C21   C72   S    
C28   O16   A    
C20   C24   S    
C99   H28   S    
Cr5   O15   S    
Cr2   O6    S    
Cr6   O38   S    
C10   H40   S    
Cr4   O35   S    
C62   C66   S    
C34   H11   S    
Cr3   O33   S    
H65   O70   S    
C72   C104  S    
C12   C30   S    
C21   C74   S    
C71   O1    A    
C56   C77   S    
C78   O47   A    
Cr11  O26   S    
C33   H10   S    
C53   C82   S    
Cr7   O34   S    
Cr8   O22   S    
C32   H9    S    
C89   C95   T    
C19   C23   S    
C13   O70   S    
C77   O41   A    
C38   C44   S    
Cr4   O13   S    
C1    O18   A    
C100  H23   S    
Cr1   O1    S    
C59   C68   T    
C36   H24   S    
C9    C18   S    
C57   C76   S    
C17   O19   A    
Cr7   O43   S    
C94   H38   S    
C87   O38   A    
C96   C97   S    
C24   H6    S    
C11   O68   S    
C1    C18   S    
C98   H27   S    
C91   C97   T    
Cr12  O31   S    
C2    C15   S    
C25   H7    S    
C79   O43   A    
C99   H12   S    
Cr11  O75   S    
C44   H21   S    
H64   O69   S    
C14   C94   S    
H44   O49   S    
H50   O54   S    
C60   C65   S    
C50   C102  S    
C11   C15   S    
Cr10  O11   S    
C104  H55   S    
C3    C83   S    
C28   O20   A    
C82   O67   A    
H49   O53   S    
C12   O69   S    
H63   O68   S    
C15   C28   S    
Cr1   O36   S    
Cr8   O9    S    
H47   O51   S    
C11   H41   S    
C98   H1    S    
H66   O71   S    
C54   C79   S    
C72   C100  S    
C36   O49   S    
C55   C78   S    
C21   C25   S    
Cr5   O37   S    
C83   C101  S    
C39   O21   A    
C17   O15   A    
Cr6   O11   S    
C10   O66   S    
C34   C52   S    
C80   O45   A    
C13   C31   S    
C12   H42   S    
C16   C100  S    
C58   C63   S    
Cr9   O24   S    
C15   C99   S    
C8    H36   S    
Cr11  O13   S    
C36   C42   S    
C27   O71   S    
C40   C53   S    
Cr9   O56   S    
Cr10  O47   S    
H62   O66   S    
C33   C51   S    
C41   C49   S    
Cr2   O28   S    
C21   C30   S    
C41   O54   S    
C42   O53   S    
C46   O28   A    
C45   O22   A    
Cr8   O44   S    
C23   C94   S    
C6    O64   D    
C74   O23   A    
C37   H22   S    
C30   O73   S    
Cr7   O39   S    
C32   C33   S    
C9    H4    S    
C4    O62   D    
C40   O52   S    
C22   C83   S    
C11   C29   S    
Cr3   O11   S    
Cr12  O9    S    
C19   C50   S    
C85   O5    A    
C37   O50   S    
C44   O55   S    
C6    H60   S    
C60   C69   T    
C43   O57   S    
C46   O24   A    
C6    C23   S    
C39   O17   A    
C77   O46   A    
C45   O27   A    
C13   H43   S    
C20   C73   S    
C38   H26   S    
C29   H56   S    
C37   C41   S    
C43   H20   S    
C85   O36   A    
C103  O59   D    
C81   O2    A    
C9    H37   S    
C5    C26   S    
C34   H16   S    
H46   O50   S    
C58   C67   T    
C38   C52   S    
C73   O32   A    
C93   C95   S    
C72   H33   S    
C22   C26   S    
C8    H3    S    
Cr3   O3    S    
C86   O37   A    
Cr2   O2    S    
Cr8   O18   S    
C42   H19   S    
Cr5   O12   S    
C87   O7    A    
C31   H71   S    
C86   O6    A    
C18   C101  S    
C45   C90   S    
C36   C49   S    
Cr8   O45   S    
H51   O55   S    
C10   C14   S    
C3    O61   D    
Cr12  O5    S    
Cr4   O4    S    
