data_mof_unit_40336.cif
_audit_creation_date              2013-03-05T15:54:20-0500
_audit_creation_method            fapswitch 2.2
_symmetry_space_group_name_H-M    P1
_symmetry_Int_Tables_number       1
_space_group_crystal_system       triclinic
_cell_length_a                    15.01628
_cell_length_b                    14.914398
_cell_length_c                    14.867986
_cell_angle_alpha                 109.469116
_cell_angle_beta                  109.54013
_cell_angle_gamma                 110.010924
_cell_volume                      2543.87576559

loop_
_atom_site_label
_atom_site_type_symbol
_atom_site_description
_atom_site_fract_x
_atom_site_fract_y
_atom_site_fract_z
_atom_type_partial_charge
C1    C     C_R   0.930913 0.745320 0.023957 -0.145029
H1    H     H_    0.872578 0.747351 0.050001 0.120407
N1    N     N_R   0.995640 0.706130 0.053910 -0.044998
C2    C     C_R   0.777119 0.253349 0.684969 -0.138066
H2    H     H_    0.800247 0.250739 0.623496 0.109570
N2    N     N_R   0.848310 0.293860 0.791110 -0.040584
C3    C     C_R   0.096685 0.592788 0.793266 -0.153770
H3    H     H_    0.160895 0.677015 0.830348 0.113590
N3    N     N_R   0.054010 0.556790 0.847890 -0.040465
C4    C     C_R   0.699170 0.406297 0.002364 -0.174436
H4    H     H_    0.644808 0.320602 0.973113 0.093661
N4    N     N_R   0.789940 0.443190 0.997130 -0.032651
C5    C     C_R   0.004673 0.409573 0.699470 -0.143693
H5    H     H_    0.981577 0.325492 0.647406 0.088294
N5    N     N_R   0.997630 0.443170 0.791110 -0.038827
C6    C     C_R   0.790796 0.589858 0.095992 -0.100343
H6    H     H_    0.820299 0.675110 0.151704 0.078424
N6    N     N_R   0.846320 0.556810 0.053910 -0.037609
C7    C     C_R   0.685088 0.249702 0.776240 -0.120037
H7    H     H_    0.622294 0.239681 0.798185 0.089432
N7    N     N_R   0.791080 0.293860 0.847890 -0.040450
C8    C     C_R   0.025696 0.750664 0.935167 -0.134611
H8    H     H_    0.057689 0.762379 0.882293 0.095186
N8    N     N_R   0.052880 0.706130 0.997130 -0.047236
C9    C     C_R   0.948479 0.775624 0.950448 0.076891
C10   C     C_R   0.673356 0.224648 0.672667 0.068864
C11   C     C_R   0.067133 0.502347 0.699011 0.078350
C12   C     C_R   0.697798 0.496703 0.064568 0.022591
C13   C     C_R   0.068115 0.593815 0.314745 -0.142286
H9    H     H_    0.126589 0.679589 0.375887 0.113057
N9    N     N_R   0.002370 0.556830 0.208890 -0.041434
C14   C     C_R   0.221711 0.407011 0.975732 -0.198878
H10   H     H_    0.198015 0.321068 0.937268 0.120675
N10   N     N_R   0.153680 0.443190 0.946090 -0.058029
C15   C     C_R   0.292134 0.810333 0.204184 0.002674
H11   H     H_    0.332099 0.842370 0.164653 0.133074
N11   N     N_R   0.208920 0.706140 0.152110 -0.053825
C16   C     C_R   0.904489 0.195808 0.995321 -0.157863
H12   H     H_    0.840585 0.167206 0.014406 0.103554
N12   N     N_R   0.947120 0.293870 0.002870 -0.037968
C17   C     C_R   0.996596 0.195050 0.905379 -0.127180
H13   H     H_    0.019293 0.165891 0.844608 0.082513
N13   N     N_R   0.004360 0.293870 0.946090 -0.034702
C18   C     C_R   0.207051 0.806640 0.299146 -0.140309
H14   H     H_    0.173782 0.833318 0.349975 0.086998
N14   N     N_R   0.151690 0.706140 0.208890 -0.046211
C19   C     C_R   0.973717 0.409059 0.224256 -0.125516
H15   H     H_    0.941751 0.323647 0.203080 0.093717
N15   N     N_R   0.945990 0.443210 0.152110 -0.039506
C20   C     C_R   0.314216 0.590238 0.069403 0.366480
N16   N     N_R   0.210060 0.556810 0.002870 -0.090697
Ni1   Ni    Ni4+2 0.999010 0.630300 0.130220 0.202245
Ni2   Ni    Ni4+2 0.000990 0.369700 0.869780 0.204493
Ni3   Ni    Ni4+2 0.130280 0.630280 0.000000 0.235371
Ni4   Ni    Ni4+2 0.869720 0.369720 0.000000 0.210420
C21   C     C_R   0.051713 0.503020 0.327920 0.072840
C22   C     C_R   0.325889 0.498265 0.054251 -0.118039
C23   C     C_R   0.296271 0.874470 0.298511 0.035547
C24   C     C_R   0.934127 0.131743 0.935085 0.075426
C25   C     C_3   0.539127 0.508363 0.969124 0.054525
H16   H     H_    0.516475 0.437641 0.891148 0.118078
C26   C     C_3   0.432728 0.500608 0.962909 -0.485187
H17   H     H_    0.427039 0.571869 0.959102 0.196970
H18   H     H_    0.361291 0.424830 0.884614 0.155797
H19   H     H_    0.489182 0.313704 0.968690 0.149415
H20   H     H_    0.346533 0.312736 0.985070 0.148035
C27   C     C_3   0.520875 0.383772 0.051216 -0.458886
C28   C     C_3   0.633652 0.587227 0.180258 -0.487067
C29   C     C_3   0.600706 0.494902 0.067311 0.313585
H21   H     H_    0.664811 0.567659 0.246098 0.182316
H22   H     H_    0.700389 0.669125 0.206457 0.154191
C30   C     C_3   0.426564 0.496021 0.063485 0.347418
C31   C     C_3   0.422341 0.388445 0.058377 -0.369965
C32   C     C_3   0.533170 0.596067 0.172074 -0.327465
H23   H     H_    0.550003 0.673852 0.171505 0.224360
H24   H     H_    0.526454 0.602329 0.245948 0.185739
H25   H     H_    0.563994 0.367061 0.115056 0.171517
H26   H     H_    0.424183 0.386786 0.133228 0.166237
C33   C     C_R   0.562392 0.140570 0.466645 0.174110
C34   C     C_R   0.569247 0.172996 0.569786 0.041687
C35   C     C_R   0.469009 0.137042 0.569376 -0.204042
H27   H     H_    0.466661 0.166931 0.644989 0.120904
C36   C     C_R   0.371768 0.046903 0.473164 -0.187751
H28   H     H_    0.300075 0.011209 0.479923 0.120439
C37   C     C_R   0.374280 0.993636 0.376792 0.043126
C38   C     C_R   0.465848 0.052922 0.371098 0.108144
C39   C     C_3   0.527198 0.018465 0.319445 -0.436515
C40   C     C_3   0.632325 0.113263 0.424207 -0.547196
H29   H     H_    0.517901 0.938041 0.307489 0.272225
H30   H     H_    0.514396 0.028939 0.246370 0.195634
H31   H     H_    0.678898 0.083163 0.468959 0.207820
H32   H     H_    0.680788 0.178561 0.411837 0.197818
C41   C     C_R   0.157517 0.607248 0.533682 0.170999
C42   C     C_R   0.101229 0.507504 0.433479 0.031631
C43   C     C_R   0.075472 0.409393 0.437575 -0.199034
H33   H     H_    0.039703 0.331122 0.364279 0.128327
C44   C     C_R   0.078032 0.408689 0.532340 -0.205849
H34   H     H_    0.044062 0.329879 0.528391 0.127700
C45   C     C_R   0.107458 0.506388 0.622799 0.029315
C46   C     C_R   0.161059 0.606588 0.627329 0.170611
C47   C     C_3   0.151890 0.707720 0.665636 -0.525319
C48   C     C_3   0.147210 0.708254 0.563119 -0.527846
H35   H     H_    0.073872 0.691720 0.665595 0.197582
H36   H     H_    0.227828 0.779592 0.742964 0.196114
H37   H     H_    0.066204 0.692276 0.505643 0.198826
H38   H     H_    0.220075 0.780868 0.581501 0.195086
C49   C     C_R   0.847864 0.877513 0.952603 0.150165
C50   C     C_R   0.900727 0.832553 0.906657 0.037727
C51   C     C_R   0.924172 0.861555 0.833006 -0.199689
H39   H     H_    0.957839 0.823496 0.789288 0.126371
C52   C     C_R   0.921424 0.953331 0.829598 -0.197663
H40   H     H_    0.953065 0.982631 0.783263 0.125299
C53   C     C_R   0.894444 0.014991 0.899303 0.033208
C54   C     C_R   0.844147 0.967093 0.948263 0.166680
C55   C     C_3   0.858954 0.017635 0.061495 -0.515921
C56   C     C_3   0.864033 0.920473 0.067019 -0.520081
H41   H     H_    0.938039 0.097078 0.122704 0.198293
H42   H     H_    0.784753 0.018895 0.059590 0.195926
H43   H     H_    0.946356 0.945316 0.131177 0.200367
H44   H     H_    0.793403 0.866813 0.069706 0.197552
N17   N     N_R   0.400009 0.702713 0.137496 0.187512
O1    O     O_R   0.454016 0.745011 0.244203 -0.481322
O2    O     O_R   0.430409 0.760084 0.092928 -0.486684
N18   N     N_2   0.607742 0.611936 0.978758 -0.108410
H45   H     H_    0.624089 0.682720 0.041944 0.188863
C57   C     C_3   0.582118 0.612247 0.875978 -0.924693
H46   H     H_    0.642403 0.692756 0.892687 0.250483
H47   H     H_    0.498451 0.599770 0.835790 0.257227
H48   H     H_    0.587257 0.546050 0.819121 0.255535

loop_
_geom_bond_atom_site_label_1
_geom_bond_atom_site_label_2
_geom_bond_distance
_ccdc_geom_bond_type
C6    C12   1.379029 A    
C39   C40   1.508906 S    
C41   C42   1.402396 A    
C43   H33   1.081730 S    
C17   H13   1.080369 S    
C12   C29   1.463458 S    
C27   H25   1.113228 S    
N9    Ni1   1.850425 S    
C35   H27   1.080294 S    
N6    Ni1   1.859204 S    
C3    H3    1.079552 S    
C19   N15   1.339394 A    
C37   C38   1.405464 A    
C21   C42   1.461463 S    
C11   C45   1.460760 S    
N10   N16   1.373838 A    
C26   H17   1.113151 S    
C32   H24   1.112411 S    
C15   C23   1.375705 A    
N5    Ni2   1.850425 S    
C15   N11   1.340728 A    
C51   C52   1.400471 A    
C16   H12   1.079809 S    
N8    Ni3   1.879168 S    
C55   C56   1.504429 S    
N14   Ni1   1.858309 S    
C3    C11   1.376421 A    
C50   C51   1.406962 A    
C48   H37   1.112298 S    
C25   C26   1.530447 S    
C1    H1    1.074910 S    
C25   N18   1.460417 S    
C7    C10   1.389943 A    
C26   H18   1.114040 S    
C44   C45   1.408108 A    
N13   Ni2   1.850677 S    
N12   N13   1.391715 A    
C40   H32   1.111636 S    
C18   C23   1.380457 A    
C28   C29   1.548379 S    
C55   H41   1.112488 S    
C8    C9    1.396392 A    
C19   H15   1.079513 S    
C49   C50   1.402900 A    
C27   C31   1.541578 S    
C16   C24   1.378537 A    
C55   H42   1.111848 S    
C47   H35   1.112456 S    
C5    H5    1.080614 S    
C1    C9    1.381626 A    
C17   N13   1.338918 A    
N1    N8    1.391714 A    
C20   N17   1.419514 S    
C14   C22   1.387261 A    
N9    N15   1.373840 A    
C31   H26   1.112710 S    
C33   C40   1.493784 S    
C35   C36   1.401102 A    
C18   N14   1.341163 A    
C44   H34   1.081123 S    
N18   H45   1.031786 S    
C32   H23   1.103226 S    
C47   C48   1.505022 S    
C17   C24   1.383995 A    
C2    N2    1.338703 A    
N7    Ni4   1.839217 S    
C38   C39   1.495586 S    
C30   C31   1.558826 S    
C57   H48   1.111197 S    
H19   C27   1.112815 S    
N15   Ni4   1.839452 S    
N2    N7    1.391592 A    
C10   C34   1.472368 S    
C56   H44   1.111616 S    
C25   H16   1.117059 S    
C1    N1    1.325692 A    
C15   H11   1.077408 S    
C14   N10   1.328010 A    
C49   C54   1.377811 A    
C13   H9    1.075166 S    
C45   C46   1.399675 A    
C40   H31   1.111784 S    
C24   C53   1.459622 S    
N12   Ni4   1.879167 S    
C20   N16   1.332643 A    
C26   C30   1.551062 S    
C52   C53   1.408708 A    
C41   C46   1.378943 A    
N17   O1    1.301803 A    
C4    N4    1.323960 A    
C28   H22   1.109917 S    
N11   Ni3   1.839215 S    
C30   C32   1.557624 S    
C36   C37   1.408361 A    
C47   H36   1.111796 S    
C5    N5    1.340230 A    
C8    N8    1.341050 A    
C36   H28   1.080881 S    
N2    Ni2   1.858309 S    
C23   C37   1.473022 S    
C18   H14   1.080350 S    
N18   C57   1.447718 S    
C53   C54   1.398488 A    
C4    C12   1.369068 A    
C3    N3    1.327343 A    
C57   H47   1.110773 S    
C52   H40   1.081131 S    
C7    N7    1.335106 A    
C20   C22   1.395741 A    
C34   C35   1.411547 A    
C41   C48   1.500094 S    
C2    C10   1.394689 A    
N1    Ni1   1.850678 S    
C43   C44   1.400231 A    
C54   C55   1.496960 S    
C13   C21   1.383324 A    
C56   H43   1.112421 S    
N16   Ni3   1.879657 S    
C14   H10   1.076907 S    
C7    H7    1.076934 S    
C39   H29   1.102948 S    
N3    N5    1.373838 A    
C13   N9    1.328583 A    
C51   H39   1.081935 S    
C16   N12   1.327833 A    
H20   C31   1.108486 S    
C6    H6    1.079808 S    
C25   C29   1.563940 S    
C57   H46   1.108948 S    
C46   C47   1.496777 S    
C48   H38   1.111943 S    
C22   C30   1.484671 S    
C42   C43   1.407949 A    
C49   C56   1.501340 S    
N17   O2    1.301008 A    
N4    Ni4   1.879657 S    
C4    H4    1.080258 S    
C33   C34   1.400747 A    
C2    H2    1.074881 S    
N10   Ni2   1.859202 S    
C6    N6    1.324474 A    
C39   H30   1.111651 S    
N4    N6    1.373838 A    
C28   H21   1.113495 S    
C8    H8    1.079859 S    
C5    C11   1.384438 A    
N3    Ni3   1.839454 S    
C27   C29   1.557340 S    
N11   N14   1.391591 A    
C28   C32   1.527387 S    
C33   C38   1.384219 A    
C9    C50   1.460082 S    
C19   C21   1.393012 A    
