data_mof_unit_8257.cif
_audit_creation_date              2012-12-11T17:39:28-0500
_audit_creation_method            fapswitch 2.2
_symmetry_space_group_name_H-M    P1
_symmetry_Int_Tables_number       1
_space_group_crystal_system       triclinic
_cell_length_a                    24.979259
_cell_length_b                    7.184852
_cell_length_c                    22.558209
_cell_angle_alpha                 89.998047
_cell_angle_beta                  96.437712
_cell_angle_gamma                 89.996338
_cell_volume                      4023.04422202

loop_
_atom_site_label
_atom_site_type_symbol
_atom_type_description
_atom_site_fract_x
_atom_site_fract_y
_atom_site_fract_z
_atom_type_partial_charge
O1    O     O_R   0.801910 0.607900 0.699140 -0.502682
O2    O     O_R   0.198090 0.392100 0.300860 -0.502183
O3    O     O_R   0.698090 0.107900 0.800860 -0.502680
O4    O     O_R   0.301910 0.892100 0.199140 -0.502179
O5    O     O_R   0.692320 0.276320 0.686350 -0.533809
O6    O     O_R   0.307680 0.723680 0.313650 -0.533385
O7    O     O_R   0.807680 0.776320 0.813650 -0.533834
O8    O     O_R   0.192320 0.223680 0.186350 -0.533397
C1    C     C_R   0.673882 0.446615 0.671289 0.698615
C2    C     C_R   0.326046 0.553356 0.328837 0.698495
C3    C     C_R   0.826118 0.946601 0.828711 0.698612
C4    C     C_R   0.173954 0.053370 0.171161 0.698525
O9    O     O_R   0.801140 0.278070 0.692060 -0.503244
O10   O     O_R   0.198860 0.721930 0.307940 -0.503860
O11   O     O_R   0.698860 0.778070 0.807940 -0.503237
O12   O     O_R   0.301140 0.221930 0.192060 -0.503853
O13   O     O_R   0.807690 0.109570 0.806600 -0.542106
O14   O     O_R   0.192310 0.890430 0.193400 -0.542326
O15   O     O_R   0.692310 0.609570 0.693400 -0.542118
O16   O     O_R   0.307690 0.390430 0.306600 -0.542345
C5    C     C_R   0.818736 0.446963 0.678853 0.816663
C6    C     C_R   0.181475 0.553013 0.321409 0.816909
C7    C     C_R   0.681265 0.946967 0.821148 0.816718
C8    C     C_R   0.318525 0.053010 0.178591 0.816945
O17   O     O_3   0.752020 0.441970 0.787570 -0.363225
O18   O     O_3   0.247980 0.558030 0.212430 -0.363216
O19   O     O_3   0.747980 0.941970 0.712430 -0.363228
O20   O     O_3   0.252020 0.058030 0.287570 -0.363235
V1    V     V_3+5 0.749620 0.166420 0.743030 1.644426
V2    V     V_3+5 0.250380 0.833580 0.256970 1.649206
V3    V     V_3+5 0.750380 0.666420 0.756970 1.644405
V4    V     V_3+5 0.249620 0.333580 0.243030 1.649202
C9    C     C_R   0.413082 0.184351 0.062677 0.521490
C10   C     C_R   0.583613 0.814718 0.933740 0.529767
C11   C     C_R   0.086926 0.684333 0.437337 0.521455
C12   C     C_R   0.916408 0.314696 0.566284 0.529736
C13   C     C_R   0.373675 0.197063 0.102216 0.508500
C14   C     C_R   0.624030 0.802126 0.895432 0.504720
C15   C     C_R   0.126329 0.697054 0.397793 0.508419
C16   C     C_R   0.875986 0.302111 0.604585 0.504660
C17   C     C_R   0.360973 0.041642 0.136465 -0.469085
C18   C     C_R   0.638123 0.958433 0.862406 -0.482169
C19   C     C_R   0.139030 0.541647 0.363538 -0.469074
C20   C     C_R   0.861883 0.458422 0.637601 -0.482152
C21   C     C_R   0.389412 0.873633 0.129789 0.495256
C22   C     C_R   0.610071 0.127226 0.869092 0.514758
C23   C     C_R   0.110593 0.373644 0.370213 0.495247
C24   C     C_R   0.889930 0.627213 0.630913 0.514720
C25   C     C_R   0.430269 0.862962 0.091501 0.325322
C26   C     C_R   0.568592 0.138234 0.906233 0.336046
C27   C     C_R   0.069745 0.362959 0.408511 0.325263
C28   C     C_R   0.931415 0.638212 0.593780 0.335993
C29   C     C_R   0.441249 0.017846 0.056840 -0.330193
C30   C     C_R   0.555943 0.982212 0.939694 -0.349967
C31   C     C_R   0.058763 0.517830 0.443176 -0.330129
C32   C     C_R   0.944073 0.482188 0.560326 -0.349908
C33   C     C_1   0.481535 0.005861 0.015278 0.191272
C34   C     C_1   0.515351 0.994826 0.980882 0.174917
C35   C     C_1   0.018481 0.505836 0.484740 0.191242
C36   C     C_1   0.984666 0.494799 0.519139 0.174949
C37   C     C_3   0.965380 0.880559 0.018853 0.221578
C38   C     C_3   0.035247 0.119113 0.980037 0.224474
C39   C     C_3   0.534666 0.380738 0.481133 0.221596
C40   C     C_3   0.464711 0.618953 0.519966 0.224334
C41   C     C_3   0.984405 0.063447 0.050556 0.429180
C42   C     C_3   0.016223 0.936126 0.948373 0.429980
C43   C     C_3   0.515589 0.563621 0.449451 0.429019
C44   C     C_3   0.483790 0.435973 0.551611 0.429514
C45   C     C_1   0.128610 0.043684 0.124976 -0.143701
C46   C     C_1   0.871700 0.956198 0.874534 -0.146547
C47   C     C_1   0.371393 0.543631 0.375017 -0.143726
C48   C     C_1   0.628300 0.456255 0.625466 -0.146516
C49   C     C_3   0.023988 0.833108 0.008790 0.476389
C50   C     C_3   0.976639 0.166492 0.990142 0.471966
C51   C     C_3   0.476071 0.333049 0.491178 0.476913
C52   C     C_3   0.523306 0.666571 0.509879 0.472881
C53   C     C_3   0.043356 0.016493 0.040633 -0.292034
C54   C     C_3   0.957324 0.983208 0.958300 -0.291932
C55   C     C_3   0.456652 0.516427 0.459354 -0.292296
C56   C     C_3   0.542676 0.483293 0.541701 -0.292025
C57   C     C_1   0.090390 0.032788 0.086724 0.219342
C58   C     C_1   0.910136 0.967010 0.912474 0.217386
C59   C     C_1   0.409617 0.532709 0.413264 0.219413
C60   C     C_1   0.589865 0.467100 0.587528 0.217590
F1    F     F_    0.423301 0.334744 0.029276 -0.599156
F2    F     F_    0.571992 0.663261 0.965894 -0.600987
F3    F     F_    0.076707 0.834715 0.470742 -0.599171
F4    F     F_    0.928039 0.163234 0.534139 -0.601144
F5    F     F_    0.347054 0.360771 0.105435 -0.566249
F6    F     F_    0.650166 0.637520 0.892156 -0.563878
F7    F     F_    0.152946 0.860758 0.394572 -0.566296
F8    F     F_    0.849855 0.137509 0.607862 -0.563889
F9    F     F_    0.377860 0.717990 0.160077 -0.611615
F10   F     F_    0.622326 0.283255 0.839466 -0.607657
F11   F     F_    0.122134 0.218021 0.339910 -0.611642
F12   F     F_    0.877663 0.783249 0.660527 -0.607660
O21   O     O_3   0.455708 0.695166 0.083073 -0.485142
C61   C     C_3   0.492055 0.650000 0.133802 0.239985
H1    H     H_    0.494510 0.495751 0.136524 0.157656
H2    H     H_    0.478765 0.698247 0.176812 0.110212
C62   C     C_3   0.548225 0.726949 0.127101 -0.376843
H3    H     H_    0.560995 0.680407 0.083875 0.278004
H4    H     H_    0.547006 0.881543 0.127444 0.181787
C63   C     C_3   0.589442 0.660432 0.177698 -0.798338
H5    H     H_    0.577156 0.703711 0.221438 0.236781
H6    H     H_    0.629382 0.722386 0.172571 0.249796
H7    H     H_    0.593097 0.506396 0.176698 0.238135
O22   O     O_3   0.544182 0.308172 0.913800 -0.478796
C64   C     C_3   0.494261 0.318139 0.877387 0.205220
H8    H     H_    0.466830 0.404857 0.901416 0.192438
H9    H     H_    0.473976 0.180396 0.869478 0.056587
C65   C     C_3   0.501400 0.412016 0.817739 -0.290365
H10   H     H_    0.524816 0.542869 0.825999 0.235133
H11   H     H_    0.523954 0.317651 0.790458 0.216645
C66   C     C_3   0.447184 0.457571 0.782617 -0.837655
H12   H     H_    0.424824 0.559623 0.807464 0.237477
H13   H     H_    0.422667 0.329246 0.774696 0.243513
H14   H     H_    0.453781 0.518994 0.738839 0.259372
O23   O     O_3   0.044314 0.195159 0.416937 -0.485186
C67   C     C_3   0.007983 0.149966 0.366200 0.240063
H15   H     H_    0.005719 0.995712 0.363333 0.157650
H16   H     H_    0.021150 0.198922 0.323206 0.109786
C68   C     C_3   0.951737 0.225944 0.373062 -0.376274
H17   H     H_    0.939066 0.178589 0.416249 0.278251
H18   H     H_    0.952775 0.380557 0.372914 0.181954
C69   C     C_3   0.910556 0.159511 0.322423 -0.798576
H19   H     H_    0.922731 0.203698 0.278721 0.236775
H20   H     H_    0.870545 0.220686 0.327697 0.249877
H21   H     H_    0.907106 0.005400 0.323211 0.238039
O24   O     O_3   0.955820 0.808146 0.586208 -0.478802
C70   C     C_3   0.005725 0.818154 0.622651 0.205313
H22   H     H_    0.033158 0.904919 0.598641 0.192407
H23   H     H_    0.026025 0.680429 0.630567 0.056568
C71   C     C_3   0.998543 0.911986 0.682294 -0.290554
H24   H     H_    0.975084 0.042758 0.674026 0.235252
H25   H     H_    0.976016 0.817529 0.709572 0.216578
C72   C     C_3   0.052737 0.957730 0.717427 -0.837456
H26   H     H_    0.075062 0.059907 0.692590 0.237444
H27   H     H_    0.077304 0.829502 0.725347 0.243543
H28   H     H_    0.046109 0.019072 0.761207 0.259593
F13   F     F_    0.968000 0.131139 0.102935 -0.677294
F14   F     F_    0.032679 0.868516 0.896002 -0.678117
F15   F     F_    0.531979 0.631499 0.397087 -0.677236
F16   F     F_    0.467370 0.368135 0.603971 -0.678249
O25   O     O_3   0.926476 0.755489 0.036289 -0.518109
C73   C     C_3   0.943596 0.683917 0.093521 0.189370
H29   H     H_    0.949922 0.798040 0.126900 0.143750
H30   H     H_    0.981558 0.603077 0.093118 0.191649
C74   C     C_3   0.900110 0.554018 0.112275 -0.235092
H31   H     H_    0.861157 0.629995 0.109957 0.198247
H32   H     H_    0.895059 0.433974 0.081065 0.273157
C75   C     C_3   0.914591 0.482202 0.175727 -0.799970
H33   H     H_    0.953713 0.407268 0.179575 0.275933
H34   H     H_    0.882836 0.384831 0.187254 0.244730
H35   H     H_    0.917359 0.599670 0.207947 0.216330
O26   O     O_3   0.073926 0.243808 0.961844 -0.517208
C76   C     C_3   0.055494 0.317982 0.905269 0.193440
H36   H     H_    0.019071 0.405414 0.907888 0.197763
H37   H     H_    0.045947 0.205296 0.871911 0.134525
C77   C     C_3   0.099585 0.440148 0.884018 -0.237622
H38   H     H_    0.107545 0.559942 0.914942 0.268725
H39   H     H_    0.137308 0.357842 0.884376 0.200984
C78   C     C_3   0.083415 0.512823 0.820947 -0.800796
H40   H     H_    0.077559 0.395148 0.788927 0.215101
H41   H     H_    0.115770 0.604239 0.807469 0.244277
H42   H     H_    0.045495 0.594376 0.819064 0.280258
O27   O     O_3   0.573610 0.255813 0.463697 -0.518145
C79   C     C_3   0.556551 0.184432 0.406429 0.189189
H43   H     H_    0.550345 0.298664 0.373072 0.143858
H44   H     H_    0.518538 0.103836 0.406724 0.191509
C80   C     C_3   0.600012 0.054284 0.387748 -0.235207
H45   H     H_    0.639000 0.130038 0.390128 0.198202
H46   H     H_    0.604971 0.934219 0.418960 0.273125
C81   C     C_3   0.585580 0.982529 0.324284 -0.800065
H47   H     H_    0.546444 0.907690 0.320391 0.275887
H48   H     H_    0.617333 0.885088 0.312791 0.244732
H49   H     H_    0.582861 0.100013 0.292068 0.216388
O28   O     O_3   0.425987 0.743593 0.538098 -0.517160
C82   C     C_3   0.444216 0.817019 0.594829 0.192167
H50   H     H_    0.481001 0.902939 0.592665 0.196507
H51   H     H_    0.453075 0.703880 0.628174 0.135334
C83   C     C_3   0.400307 0.940976 0.615647 -0.236981
H52   H     H_    0.392928 0.060857 0.584648 0.269651
H53   H     H_    0.362304 0.860096 0.614980 0.200639
C84   C     C_3   0.416272 0.013445 0.678782 -0.800285
H54   H     H_    0.421544 0.895767 0.710858 0.214963
H55   H     H_    0.384077 0.106185 0.691939 0.244522
H56   H     H_    0.454460 0.093578 0.680967 0.279873
F17   F     F_    0.951967 0.338080 0.981253 -0.625195
F18   F     F_    0.048547 0.661334 0.017708 -0.622351
F19   F     F_    0.547910 0.838250 0.518802 -0.624580
F20   F     F_    0.451574 0.161197 0.482224 -0.622035

loop_
_geom_bond_atom_site_label_1
_geom_bond_atom_site_label_2
_ccdc_geom_bond_type
C44   C56   S    
C20   C24   A    
C4    C45   S    
O1    C5    A    
C62   H3    S    
C31   C35   S    
O19   V1    S    
O13   V1    S    
O12   C8    A    
C38   C53   S    
O3    C7    A    
C78   H40   S    
C1    C48   S    
C56   C60   S    
C70   C71   S    
C43   F15   S    
C71   C72   S    
C63   H6    S    
O25   C73   S    
C33   C34   T    
C3    C46   S    
C68   H17   S    
C70   H23   S    
C12   F4    S    
C44   C51   S    
O7    C3    A    
C72   H27   S    
C76   H36   S    
C7    C18   S    
C51   F20   S    
C40   C44   S    
O9    V1    S    
O26   C76   S    
C78   H41   S    
O7    V3    S    
C14   C18   A    
C24   C28   A    
C64   H9    S    
C18   C22   A    
O4    C8    A    
C84   H55   S    
C66   H12   S    
C5    C20   S    
C23   F11   S    
O1    V3    S    
C40   O28   S    
O22   C64   S    
O2    V4    S    
C10   F2    S    
O3    V1    S    
C9    F1    S    
C83   H52   S    
C65   H10   S    
C37   O25   S    
C81   H47   S    
C11   F3    S    
C1    O15   A    
C79   C80   S    
C23   C27   A    
C2    O16   A    
C66   H13   S    
O2    C6    A    
C43   C52   S    
C27   O23   S    
O14   V2    S    
C53   C57   S    
C73   H30   S    
C49   F18   S    
C67   C68   S    
C82   C83   S    
C2    C47   S    
C79   H44   S    
O15   V3    S    
C35   C36   T    
C76   H37   S    
C26   O22   S    
C8    C17   S    
C39   O27   S    
O10   V2    S    
C15   F7    S    
C63   H5    S    
C72   H28   S    
C67   H16   S    
O21   C61   S    
C47   C59   T    
C39   C56   S    
C9    C29   A    
C42   C54   S    
C80   C81   S    
C39   C43   S    
C41   C53   S    
C38   C42   S    
C11   C31   A    
O8    V4    S    
C77   C78   S    
O28   C82   S    
C12   C16   A    
C78   H42   S    
C43   C55   S    
C74   C75   S    
O27   C79   S    
C29   C33   S    
O18   V4    S    
C84   H56   S    
C15   C19   A    
C69   H21   S    
C37   C49   S    
C42   C49   S    
C9    C13   A    
C41   C50   S    
C32   C36   S    
C83   C84   S    
C77   H39   S    
C11   C15   A    
O5    C1    A    
C12   C32   A    
C73   C74   S    
C41   F13   S    
C54   C58   S    
C50   F17   S    
C6    C19   S    
C22   F10   S    
C75   H35   S    
C21   C25   A    
C37   C54   S    
O8    C4    A    
C66   H14   S    
C30   C34   S    
C40   C52   S    
O9    C5    A    
C26   C30   A    
C16   F8    S    
C80   H45   S    
C48   C60   T    
C81   H49   S    
C45   C57   T    
C65   H11   S    
C79   H43   S    
O6    V2    S    
C75   H34   S    
C21   F9    S    
C10   C30   A    
C76   C77   S    
C61   H2    S    
C40   C55   S    
C64   C65   S    
O12   V4    S    
C70   H22   S    
O5    V1    S    
C67   H15   S    
C73   H29   S    
O16   V4    S    
C22   C26   A    
C3    O13   A    
C69   H20   S    
C24   F12   S    
C51   C55   S    
C10   C14   A    
O17   V3    S    
C52   C56   S    
C68   C69   S    
O6    C2    A    
C71   H25   S    
O23   C67   S    
O11   V3    S    
C71   H24   S    
C42   F14   S    
C80   H46   S    
C61   C62   S    
C72   H26   S    
C14   F6    S    
C13   F5    S    
C28   O24   S    
C77   H38   S    
O10   C6    A    
C74   H32   S    
O24   C70   S    
O20   V2    S    
C52   F19   S    
C64   H8    S    
C55   C59   S    
C84   H54   S    
C39   C51   S    
C69   H19   S    
C25   C29   A    
O11   C7    A    
C81   H48   S    
C38   O26   S    
C44   F16   S    
C27   C31   A    
C65   C66   S    
C13   C17   A    
C46   C58   T    
C83   H53   S    
C68   H18   S    
C25   O21   S    
C82   H50   S    
C37   C41   S    
C16   C20   A    
C75   H33   S    
C49   C53   S    
C62   H4    S    
C61   H1    S    
C50   C54   S    
C4    O14   A    
C17   C21   A    
C38   C50   S    
C62   C63   S    
C74   H31   S    
C19   C23   A    
C63   H7    S    
O4    V2    S    
C28   C32   A    
C82   H51   S    
