data_mof_unit_58099.cif
_audit_creation_date              2013-03-05T15:52:43-0500
_audit_creation_method            fapswitch 2.2
_symmetry_space_group_name_H-M    P1
_symmetry_Int_Tables_number       1
_space_group_crystal_system       triclinic
_cell_length_a                    8.472416
_cell_length_b                    17.265363
_cell_length_c                    18.872922
_cell_angle_alpha                 99.251697
_cell_angle_beta                  91.838188
_cell_angle_gamma                 95.744766
_cell_volume                      2707.8576924

loop_
_atom_site_label
_atom_site_type_symbol
_atom_site_description
_atom_site_fract_x
_atom_site_fract_y
_atom_site_fract_z
_atom_type_partial_charge
P1    P     P_3+3 0.048060 0.426210 0.336320 0.465685
O1    O     O_2   0.878040 0.448040 0.325130 -0.363394
O2    O     O_3   0.126800 0.453980 0.414370 -0.383279
O3    O     O_3   0.651020 0.589120 0.368830 -0.398361
O4    O     O_2   0.754821 0.531913 0.242323 -0.390373
O5    O     O_3   0.020442 0.322973 0.319405 -0.568117
O6    O     O_3   0.672253 0.673570 0.253298 -0.547420
C1    C     C_3   0.601092 0.806604 0.274330 -0.746027
H1    H     H_    0.551351 0.795083 0.217982 0.197800
P2    P     P_3+3 0.655920 0.678120 0.556130 0.444775
P3    P     P_3+3 0.107863 0.732004 0.405206 0.464394
O7    O     O_2   0.830300 0.688050 0.534560 -0.389227
O8    O     O_3   0.068750 0.630380 0.404830 -0.373004
O9    O     O_2   0.987056 0.773083 0.453999 -0.383853
O10   O     O_3   0.654619 0.731481 0.645482 -0.598294
O11   O     O_3   0.060658 0.750328 0.318856 -0.525811
C2    C     C_3   0.098231 0.686124 0.268617 0.460789
H2    H     H_    0.014160 0.633071 0.271015 0.153574
H3    H     H_    0.221364 0.672248 0.278385 0.000063
C3    C     C_3   0.084686 0.706139 0.193240 -0.980135
H4    H     H_    0.160969 0.761571 0.190169 0.263968
C4    C     C_3   0.157603 0.729137 0.646025 0.267417
H5    H     H_    0.074292 0.701369 0.601034 0.109253
C5    C     C_3   0.103644 0.807742 0.685870 -0.610044
H6    H     H_    0.206545 0.847589 0.713042 0.197821
Ba1   Ba    Ba6+2 0.849550 0.533890 0.465080 1.557249
C6    C     C_3   0.972858 0.293985 0.381281 0.413065
H7    H     H_    0.859751 0.316359 0.398323 0.095786
C7    C     C_3   0.949035 0.204340 0.363541 -0.910841
H8    H     H_    0.848502 0.185242 0.323269 0.267730
H9    H     H_    0.923211 0.178588 0.412412 0.229356
H10   H     H_    0.058632 0.181689 0.341446 0.265719
C8    C     C_3   0.687388 0.698696 0.708051 0.205555
C9    C     C_3   0.671265 0.763795 0.774367 -0.479977
H11   H     H_    0.761413 0.814895 0.773164 0.179813
H12   H     H_    0.694749 0.741931 0.825697 0.223393
P4    P     P_3+3 0.141640 0.573850 0.663690 0.507076
O12   O     O_2   0.311660 0.551990 0.674910 -0.372196
O13   O     O_3   0.062910 0.546080 0.585630 -0.358872
O14   O     O_3   0.538690 0.410940 0.631180 -0.395933
O15   O     O_3   0.179207 0.677641 0.695592 -0.552113
P5    P     P_3+3 0.082278 0.267833 0.593489 0.424756
O16   O     O_3   0.620260 0.406250 0.463620 -0.391657
O17   O     O_3   0.120960 0.369680 0.595180 -0.388145
O18   O     O_2   0.199580 0.228936 0.541571 -0.370335
O19   O     O_3   0.142929 0.248468 0.678062 -0.526085
Ba2   Ba    Ba6+2 0.340280 0.466170 0.534930 1.561210
P6    P     P_3+3 0.623078 0.579605 0.275375 0.429027
C10   C     C_3   0.604156 0.728840 0.302907 0.343548
H13   H     H_    0.479480 0.707827 0.311923 0.013824
H14   H     H_    0.521888 0.843947 0.307203 0.198925
O20   O     O_3   0.569440 0.593820 0.536390 -0.432238
C11   C     C_3   0.463838 0.335564 0.315577 0.383836
H15   H     H_    0.352822 0.353153 0.340161 0.103376
H16   H     H_    0.553757 0.387755 0.319278 0.120762
C12   C     C_3   0.423962 0.302066 0.236796 -0.846598
H17   H     H_    0.328983 0.252015 0.232091 0.251235
H18   H     H_    0.381635 0.348087 0.208348 0.236506
H19   H     H_    0.530996 0.280702 0.211006 0.286126
P7    P     P_3+3 0.536638 0.307653 0.441889 0.438067
O21   O     O_2   0.359400 0.311980 0.465480 -0.365567
O22   O     O_3   0.525532 0.277378 0.348708 -0.561617
H20   H     H_    0.123814 0.657845 0.153849 0.229448
C13   C     C_3   0.092306 0.306844 0.730860 0.443946
H21   H     H_    0.147373 0.366540 0.725114 0.128353
H22   H     H_    0.961139 0.305474 0.727116 0.000635
C14   C     C_3   0.141806 0.292401 0.805549 -0.865137
H23   H     H_    0.120655 0.228836 0.809279 0.294604
P8    P     P_3+3 0.571001 0.409042 0.722739 0.435186
C15   C     C_3   0.582017 0.254591 0.701501 0.172028
O23   O     O_2   0.449354 0.460715 0.760551 -0.343002
O24   O     O_3   0.508124 0.314977 0.743043 -0.566916
H24   H     H_    0.619336 0.131889 0.706209 0.165063
C16   C     C_3   0.599517 0.185827 0.744528 -0.479905
C17   C     C_R   0.994585 0.462122 0.047723 -0.070209
C18   C     C_R   0.895464 0.434288 0.100162 -0.087452
C19   C     C_R   0.808499 0.406607 0.942748 -0.238122
C20   C     C_R   0.945056 0.455417 0.973251 0.062340
C21   C     C_R   0.747734 0.409691 0.874291 -0.177421
C22   C     C_R   0.833823 0.451114 0.827791 0.008138
C23   C     C_R   0.983520 0.492111 0.852856 0.002520
C24   C     C_R   0.038112 0.495572 0.926365 0.063242
C25   C     C_R   0.777073 0.450129 0.756289 0.203382
C26   C     C_R   0.877538 0.482507 0.708300 -0.530756
C27   C     C_R   0.027410 0.522949 0.730941 0.286713
C28   C     C_R   0.076543 0.531292 0.805246 -0.056393
C29   C     C_R   0.150108 0.498066 0.071144 0.060102
C30   C     C_R   0.208704 0.498386 0.143526 0.011771
C31   C     C_R   0.111975 0.463013 0.192390 -0.094960
C32   C     C_R   0.960929 0.426980 0.167550 -0.040552
H25   H     H_    0.834999 0.479624 0.653170 0.168840
H26   H     H_    0.635584 0.375500 0.857645 0.189592
H27   H     H_    0.886516 0.397394 0.202318 0.201224
C33   C     C_R   0.212482 0.580056 0.834339 0.059934
C34   C     C_R   0.267418 0.582856 0.905293 -0.167661
C35   C     C_R   0.185998 0.538114 0.951973 0.006518
C36   C     C_R   0.246225 0.535613 0.023260 0.076187
C37   C     C_R   0.401146 0.568813 0.048148 -0.207131
C38   C     C_R   0.364264 0.533989 0.166925 0.021045
C39   C     C_R   0.458041 0.568200 0.118039 -0.169492
C40   C     C_R   0.422098 0.533400 0.238272 0.206375
C41   C     C_R   0.323438 0.498787 0.285006 -0.551404
C42   C     C_R   0.167449 0.466913 0.265274 0.236557
H28   H     H_    0.275720 0.618525 0.803089 0.226244
H29   H     H_    0.578584 0.593766 0.132510 0.175501
H30   H     H_    0.747133 0.363391 0.970246 0.152571
H31   H     H_    0.372638 0.622713 0.922667 0.158127
H32   H     H_    0.484169 0.594095 0.013909 0.140824
H33   H     H_    0.493795 0.137035 0.443520 0.158318
H34   H     H_    0.300775 0.888177 0.426472 0.160518
C43   C     C_R   0.413152 0.713547 0.461580 -0.522048
C44   C     C_R   0.562492 0.739904 0.496682 0.301357
C45   C     C_R   0.621222 0.819680 0.500820 -0.099778
C46   C     C_R   0.528783 0.873097 0.474408 0.043644
C47   C     C_R   0.375203 0.846707 0.444042 -0.234402
C48   C     C_R   0.315917 0.767039 0.438272 0.205164
C49   C     C_R   0.600107 0.160528 0.476597 -0.227802
C50   C     C_R   0.644877 0.241842 0.488594 0.235313
C51   C     C_R   0.880355 0.223312 0.558512 0.122877
C52   C     C_R   0.834408 0.140477 0.548109 -0.209142
C53   C     C_R   0.691222 0.109482 0.506982 0.066208
C54   C     C_1   0.634156 0.025884 0.494635 0.138242
C55   C     C_1   0.586106 0.956284 0.484749 0.088729
C56   C     C_R   0.782213 0.272852 0.530737 -0.486395
H35   H     H_    0.819095 0.335582 0.537628 0.171350
H36   H     H_    0.674102 0.739426 0.355037 0.123288
H37   H     H_    0.027373 0.798933 0.730602 0.245296
C57   C     C_2   0.020514 0.851302 0.635701 0.633645
H38   H     H_    0.075420 0.863729 0.587034 0.095821
O25   O     O_2   0.892048 0.874448 0.650064 -0.550115
H39   H     H_    0.065222 0.311114 0.425590 0.138783
C58   C     C_2   0.846595 0.673974 0.709870 0.422265
H40   H     H_    0.885231 0.644551 0.660165 0.031447
O26   O     O_2   0.921264 0.676528 0.766978 -0.586018
C59   C     C_2   0.589836 0.624427 0.713071 0.519481
H41   H     H_    0.581050 0.577090 0.667407 0.080099
O27   O     O_2   0.544186 0.611341 0.771069 -0.572978
C60   C     C_2   0.764163 0.849955 0.277322 0.734649
H42   H     H_    0.853645 0.826159 0.242948 0.058079
O28   O     O_2   0.796841 0.912489 0.317931 -0.574105
C61   C     C_2   0.511541 0.794137 0.775781 0.644309
H43   H     H_    0.482624 0.833520 0.739253 0.074465
O29   O     O_2   0.415895 0.776889 0.819207 -0.562333
H44   H     H_    0.269483 0.312249 0.817997 0.280989
H45   H     H_    0.072800 0.326220 0.846478 0.206599
H46   H     H_    0.701792 0.276274 0.685952 -0.015604
C62   C     C_2   0.481756 0.226159 0.633532 0.613179
H47   H     H_    0.461763 0.267949 0.598393 0.104562
O30   O     O_2   0.421706 0.157942 0.617155 -0.612507
C63   C     C_2   0.449843 0.166000 0.782568 0.664920
H48   H     H_    0.341088 0.142868 0.751024 0.079058
O31   O     O_2   0.448032 0.175494 0.848122 -0.581640
C64   C     C_2   0.742332 0.202840 0.796172 0.629407
H49   H     H_    0.755024 0.254533 0.837407 0.037752
O32   O     O_2   0.843582 0.157005 0.792954 -0.585436
H50   H     H_    0.371538 0.492668 0.336841 0.152565
C65   C     C_2   0.719183 0.426159 0.092330 0.551627
H51   H     H_    0.660192 0.459084 0.057015 0.021437
O33   O     O_2   0.637799 0.383720 0.125877 -0.598775
C66   C     C_2   0.937847 0.087956 0.578762 0.617714
H52   H     H_    0.021785 0.111580 0.623247 0.091087
O34   O     O_2   0.932937 0.017840 0.554262 -0.577544
H53   H     H_    0.734672 0.841174 0.528433 0.194941
C67   C     C_2   0.351126 0.631388 0.457853 0.712360
H54   H     H_    0.395356 0.587004 0.420301 0.005336
O35   O     O_2   0.257911 0.612337 0.501253 -0.535260
H55   H     H_    0.959520 0.713238 0.178882 0.268166
C68   C     C_2   0.313285 0.746680 0.616768 0.458519
H56   H     H_    0.381560 0.698065 0.606406 0.088652
O36   O     O_2   0.364523 0.812725 0.607185 -0.632795

loop_
_geom_bond_atom_site_label_1
_geom_bond_atom_site_label_2
_geom_bond_distance
_ccdc_geom_bond_type
C1    H1    1.111097 S    
O14   Ba2   2.777911 S    
C29   C30   1.437402 A    
C9    C61   1.498719 S    
C40   C41   1.396634 A    
C6    C7    1.521467 S    
C6    H39   1.109641 S    
H24   C16   1.113999 S    
C34   C35   1.414173 A    
P2    O20   1.545535 S    
C57   H38   1.084819 S    
C36   C37   1.412537 A    
H33   C49   1.083924 S    
C59   H41   1.083255 S    
C19   C20   1.409345 A    
C10   H36   1.111600 S    
C39   H29   1.079614 S    
C65   H51   1.083734 S    
C25   C26   1.405092 A    
P4    C27   1.893967 S    
C67   H54   1.062929 S    
C62   O30   1.222474 D    
P4    O12   1.541830 D    
C9    H11   1.111250 S    
C7    H10   1.110920 S    
P2    O10   1.787818 S    
C61   O29   1.220590 D    
C27   C28   1.430454 A    
P3    O9    1.547389 D    
P5    C51   1.858625 S    
C4    O15   1.410024 S    
C47   C48   1.402195 A    
C2    C3    1.520495 S    
C37   H32   1.077627 S    
C12   H17   1.110722 S    
P7    O22   1.748912 S    
P1    O1    1.541558 D    
P5    O19   1.754108 S    
P8    O23   1.547247 D    
C12   H19   1.110341 S    
C49   C53   1.404218 A    
C28   C33   1.397678 A    
C62   H47   1.077141 S    
C43   C44   1.407435 A    
C12   H18   1.109079 S    
C58   H40   1.070030 S    
C15   C16   1.558351 S    
C5    H37   1.100003 S    
P7    C50   1.840605 S    
C43   C48   1.408841 A    
C15   H46   1.111044 S    
C26   H25   1.081947 S    
C8    C59   1.472498 S    
C64   O32   1.220498 D    
P1    C42   1.887486 S    
C23   C28   1.421373 A    
O17   Ba2   2.765149 S    
C4    C68   1.468649 S    
P2    Ba1   3.386430 S    
C68   O36   1.222160 D    
C33   H28   1.072862 S    
C65   O33   1.220334 D    
C31   C42   1.428261 A    
C41   C42   1.394665 A    
P5    O17   1.751120 S    
C22   C25   1.414870 A    
C14   H44   1.107418 S    
P2    O7    1.545380 D    
C44   C45   1.405891 A    
C17   C20   1.437028 A    
Ba1   O16   2.784082 S    
C23   C24   1.438334 A    
C11   H16   1.111822 S    
O4    P6    1.541599 D    
C18   C65   1.486392 S    
C24   C35   1.416238 A    
O14   P8    1.746891 S    
C14   H23   1.108075 S    
C13   C14   1.523493 S    
C26   C27   1.405071 A    
O6    C10   1.406297 S    
C46   C47   1.406649 A    
C5    C57   1.500142 S    
O11   C2    1.407548 S    
C1    C60   1.498876 S    
C51   C56   1.398688 A    
P3    O11   1.750757 S    
P1    O5    1.749992 S    
C16   C64   1.503823 S    
O7    Ba1   2.794413 S    
P7    O21   1.585357 D    
P1    O2    1.578156 S    
P5    O18   1.543799 D    
C13   H22   1.108914 S    
P8    O24   1.763012 S    
C17   C18   1.428663 A    
C14   H45   1.109821 S    
C7    H8    1.110654 S    
P8    C25   1.867914 S    
C63   O31   1.222407 D    
Ba1   O20   2.960194 S    
C45   H53   1.080494 S    
C11   O22   1.399851 S    
C20   C24   1.420513 A    
O5    C6    1.398014 S    
C35   C36   1.432250 A    
C3    H4    1.110593 S    
C2    H2    1.110493 S    
C21   H26   1.076540 S    
C19   C21   1.386381 A    
O1    Ba1   2.843456 S    
C50   C56   1.397178 A    
C5    H6    1.110930 S    
P2    C44   1.876213 S    
P3    C48   1.859335 S    
C1    H14   1.111586 S    
O12   Ba2   2.843925 S    
C34   H31   1.077799 S    
Ba1   Ba2   4.637701 S    
C58   O26   1.224415 D    
C46   C55   1.449451 S    
O16   P7    1.755967 S    
C8    C58   1.455963 S    
C17   C29   1.423893 A    
C68   H56   1.062567 S    
C38   C40   1.419991 A    
C66   O34   1.220536 D    
C37   C39   1.391786 A    
P1    Ba1   3.409659 S    
C4    C5    1.560265 S    
O8    Ba1   2.764514 S    
P4    Ba2   3.410290 S    
C41   H50   1.072631 S    
C52   C53   1.427098 A    
C32   H27   1.076491 S    
O13   Ba2   2.951338 S    
C45   C46   1.407050 A    
O3    P6    1.751040 S    
C11   C12   1.520347 S    
C59   O27   1.219828 D    
C3    H55   1.109633 S    
C19   H30   1.077270 S    
C4    H5    1.100890 S    
O2    Ba1   2.950522 S    
C43   C67   1.452444 S    
C22   C23   1.416858 A    
C57   O25   1.220247 D    
Ba2   O21   2.794503 S    
O3    Ba1   2.778542 S    
C51   C52   1.424379 A    
C53   C54   1.454719 S    
C11   H15   1.109976 S    
Ba2   O20   2.783527 S    
C60   O28   1.220733 D    
C38   C39   1.399885 A    
O6    P6    1.752805 S    
C3    H20   1.108891 S    
C67   O35   1.216110 D    
C54   C55   1.212304 T    
C7    H9    1.105270 S    
C49   C50   1.397072 A    
C13   H21   1.111131 S    
P3    O8    1.751525 S    
P6    C40   1.870340 S    
H34   C47   1.083314 S    
O2    Ba2   2.828169 S    
C2    H3    1.109781 S    
C8    C9    1.561339 S    
C9    H12   1.113919 S    
P4    O15   1.789311 S    
C33   C34   1.395303 A    
Ba1   O13   2.827408 S    
C66   H52   1.081896 S    
C30   C38   1.422360 A    
C60   H42   1.082872 S    
C21   C22   1.397172 A    
C30   C31   1.422833 A    
P4    O13   1.578289 S    
C10   H13   1.109514 S    
O19   C13   1.408450 S    
C6    H7    1.106768 S    
C52   C66   1.490045 S    
C63   H48   1.085182 S    
C16   C63   1.513672 S    
C15   O24   1.411714 S    
C15   C62   1.500725 S    
C29   C36   1.424784 A    
C31   C32   1.397444 A    
C61   H43   1.082079 S    
O16   Ba2   2.959194 S    
C1    C10   1.527447 S    
O10   C8    1.420315 S    
C18   C32   1.400502 A    
C56   H35   1.082551 S    
C64   H49   1.079738 S    
