data_mof_unit_59689.cif
_audit_creation_date              2013-03-05T15:48:35-0500
_audit_creation_method            fapswitch 2.2
_symmetry_space_group_name_H-M    P1
_symmetry_Int_Tables_number       1
_space_group_crystal_system       triclinic
_cell_length_a                    8.284392
_cell_length_b                    18.897407
_cell_length_c                    19.081049
_cell_angle_alpha                 98.728661
_cell_angle_beta                  94.676256
_cell_angle_gamma                 91.314692
_cell_volume                      2940.88799348

loop_
_atom_site_label
_atom_site_type_symbol
_atom_site_description
_atom_site_fract_x
_atom_site_fract_y
_atom_site_fract_z
_atom_type_partial_charge
P1    P     P_3+3 0.947550 0.663200 0.567530 0.472241
O1    O     O_2   0.118870 0.674530 0.547560 -0.371834
O2    O     O_3   0.870460 0.585330 0.542110 -0.404425
O3    O     O_3   0.354280 0.631750 0.418430 -0.351125
O4    O     O_2   0.221744 0.755634 0.461482 -0.365938
O5    O     O_3   0.974565 0.678393 0.660619 -0.576534
O6    O     O_3   0.340695 0.744294 0.338693 -0.483667
H1    H     H_    0.333020 0.636954 0.292783 0.138739
C1    C     C_3   0.384958 0.703522 0.216602 -0.957861
H2    H     H_    0.255395 0.699853 0.196464 0.288890
H3    H     H_    0.436973 0.757606 0.213885 0.271853
P2    P     P_3+3 0.354660 0.445020 0.336980 0.475276
P3    P     P_3+3 0.916084 0.596683 0.287797 0.493351
O7    O     O_2   0.180880 0.466650 0.327890 -0.363363
O8    O     O_3   0.939000 0.596010 0.380670 -0.306233
O9    O     O_2   0.059804 0.555575 0.256779 -0.395596
O10   O     O_3   0.356685 0.350751 0.322620 -0.588806
O11   O     O_3   0.958812 0.686094 0.277142 -0.480730
C2    C     C_3   0.830983 0.714525 0.237787 0.467764
H4    H     H_    0.723642 0.678151 0.224449 -0.001942
C3    C     C_3   0.887789 0.731155 0.166791 -0.873556
H5    H     H_    0.962802 0.686889 0.143838 0.202984
C4    C     C_3   0.734575 0.351442 0.303858 0.451033
H6    H     H_    0.640830 0.372013 0.338091 0.158833
H7    H     H_    0.799996 0.395879 0.284973 0.072323
C5    C     C_3   0.651974 0.303223 0.239148 -0.936469
H8    H     H_    0.586896 0.257528 0.256139 0.288689
H9    H     H_    0.563540 0.334111 0.210266 0.217707
H10   H     H_    0.742707 0.282181 0.202389 0.253288
Ba1   Ba    Ba6+2 0.152460 0.535140 0.468980 1.586920
C6    C     C_3   0.016081 0.615152 0.686143 0.438254
H11   H     H_    0.127025 0.594423 0.663306 0.094644
H12   H     H_    0.916555 0.573981 0.672595 0.132258
C7    C     C_3   0.046073 0.631845 0.766789 -0.981617
H13   H     H_    0.152540 0.669457 0.781795 0.276232
H14   H     H_    0.069203 0.582254 0.789628 0.226746
H15   H     H_    0.937933 0.656611 0.789711 0.264881
C8    C     C_3   0.202326 0.317472 0.308427 0.467503
H16   H     H_    0.117893 0.346170 0.343174 0.098601
C9    C     C_3   0.144024 0.314386 0.229635 -1.008916
H17   H     H_    0.116973 0.368666 0.217681 0.251954
H18   H     H_    0.031305 0.280639 0.215860 0.263648
H19   H     H_    0.238403 0.291634 0.195470 0.247548
P4    P     P_3+3 0.862750 0.336790 0.432410 0.509474
O12   O     O_2   0.691430 0.325420 0.452420 -0.343135
O13   O     O_3   0.939830 0.414660 0.457830 -0.336472
O14   O     O_3   0.456020 0.368240 0.581510 -0.373522
O15   O     O_3   0.846831 0.312280 0.339101 -0.572817
P5    P     P_3+3 0.895965 0.399936 0.710574 0.444250
O16   O     O_3   0.374170 0.535780 0.585810 -0.401786
O17   O     O_3   0.871300 0.403980 0.619270 -0.396447
O18   O     O_2   0.762363 0.444957 0.745929 -0.383020
O19   O     O_3   0.852604 0.312308 0.724681 -0.528552
Ba2   Ba    Ba6+2 0.657710 0.464850 0.530960 1.585570
P6    P     P_3+3 0.371776 0.725302 0.425876 0.501165
C10   C     C_3   0.402386 0.687902 0.292634 0.538768
H20   H     H_    0.532374 0.680980 0.308549 -0.007408
H21   H     H_    0.448411 0.662938 0.181705 0.196279
O20   O     O_3   0.436130 0.464210 0.414140 -0.373263
C11   C     C_3   0.503645 0.683199 0.654729 0.430182
H22   H     H_    0.629764 0.668947 0.644311 0.086196
H23   H     H_    0.421488 0.671440 0.605083 0.111285
C12   C     C_3   0.502010 0.763269 0.680972 -1.005065
H24   H     H_    0.583779 0.777282 0.730496 0.274446
H25   H     H_    0.544013 0.793477 0.639892 0.215429
H26   H     H_    0.377027 0.778999 0.691874 0.265632
P7    P     P_3+3 0.447594 0.553962 0.675668 0.427939
O21   O     O_2   0.629420 0.533310 0.672080 -0.371049
O22   O     O_3   0.449858 0.646024 0.707047 -0.566411
H27   H     H_    0.779445 0.731761 0.128498 0.145831
C13   C     C_3   0.896344 0.264267 0.666096 0.350637
H28   H     H_    0.822284 0.272514 0.617089 0.156385
H29   H     H_    0.026471 0.271709 0.657811 0.019074
C14   C     C_3   0.862063 0.187356 0.678060 -0.670893
H30   H     H_    0.736884 0.182069 0.694054 0.238294
H31   H     H_    0.869291 0.150173 0.627639 0.141056
P8    P     P_3+3 0.436092 0.275488 0.575976 0.457619
C15   C     C_3   0.426240 0.304600 0.711519 0.478746
H32   H     H_    0.292272 0.305078 0.701915 0.029795
O23   O     O_2   0.568609 0.242852 0.529850 -0.390212
O24   O     O_3   0.490690 0.253910 0.660548 -0.539625
H33   H     H_    0.479839 0.358884 0.710864 0.132278
H34   H     H_    0.411794 0.323595 0.825552 0.209775
C16   C     C_3   0.468139 0.285533 0.785301 -0.898144
H35   H     H_    0.601433 0.288650 0.798125 0.289243
H36   H     H_    0.422690 0.230436 0.787843 0.262455
C17   C     C_R   0.003848 0.952003 0.532803 0.044529
C18   C     C_R   0.093349 0.902753 0.567930 -0.193307
C19   C     C_R   0.222774 0.047428 0.559423 -0.175678
C20   C     C_R   0.064649 0.023293 0.530902 0.049736
C21   C     C_R   0.278255 0.117644 0.560335 -0.076192
C22   C     C_R   0.179616 0.167769 0.532708 -0.003538
C23   C     C_R   0.023591 0.144769 0.499895 -0.017885
C24   C     C_R   0.965997 0.072146 0.498588 0.031820
C25   C     C_R   0.232875 0.240175 0.536540 0.205709
C26   C     C_R   0.130086 0.289011 0.509454 -0.496375
C27   C     C_R   0.978418 0.267709 0.474535 0.217484
C28   C     C_R   0.925869 0.194150 0.467832 -0.050193
C29   C     C_R   0.846294 0.929548 0.500851 0.048063
C30   C     C_R   0.785790 0.857882 0.502218 0.028794
C31   C     C_R   0.884342 0.808295 0.534045 -0.024667
C32   C     C_R   0.034542 0.833282 0.568896 -0.058944
H37   H     H_    0.171716 0.344242 0.513080 0.182962
H38   H     H_    0.400243 0.131913 0.583437 0.168624
H39   H     H_    0.108419 0.799900 0.598677 0.156603
C33   C     C_R   0.780526 0.167800 0.428916 0.008429
C34   C     C_R   0.723213 0.097727 0.428230 -0.190915
C35   C     C_R   0.810156 0.049168 0.465194 0.026887
C36   C     C_R   0.748097 0.978298 0.468088 0.054084
C37   C     C_R   0.588459 0.954918 0.440939 -0.183681
C38   C     C_R   0.626474 0.835881 0.471929 -0.037139
C39   C     C_R   0.529737 0.885587 0.442683 -0.134963
C40   C     C_R   0.566965 0.765386 0.473910 0.162848
C41   C     C_R   0.663747 0.720157 0.509073 -0.419184
C42   C     C_R   0.825729 0.736467 0.532983 0.243456
H40   H     H_    0.707724 0.200891 0.398398 0.190662
H41   H     H_    0.406009 0.871791 0.421576 0.184717
H42   H     H_    0.608731 0.672243 0.520579 0.136817
H43   H     H_    0.308976 0.013119 0.581220 0.125488
H44   H     H_    0.209596 0.916414 0.596883 0.124384
H45   H     H_    0.610252 0.082925 0.396785 0.146179
H46   H     H_    0.503129 0.989631 0.419129 0.139190
C43   C     C_R   0.618288 0.523463 0.295948 -0.482906
C44   C     C_R   0.470094 0.487578 0.272735 0.185176
C45   C     C_R   0.418854 0.478777 0.200020 -0.248456
C46   C     C_R   0.516042 0.505105 0.151346 0.054580
C47   C     C_R   0.667536 0.539879 0.176758 -0.290321
C48   C     C_R   0.718512 0.549998 0.249610 0.135786
C49   C     C_R   0.481619 0.553381 0.035550 -0.175167
C50   C     C_R   0.427152 0.546298 0.963418 -0.158796
C51   C     C_R   0.349073 0.482377 0.927777 0.165307
C52   C     C_R   0.324369 0.426146 0.966729 -0.167064
C53   C     C_R   0.378410 0.433355 0.039131 -0.162271
C54   C     C_R   0.458527 0.496974 0.074342 0.154732
C55   C     C_R   0.147592 0.439593 0.821689 -0.284608
C56   C     C_R   0.098444 0.435120 0.748837 0.262309
C57   C     C_R   0.343748 0.500143 0.731822 0.307223
C58   C     C_R   0.393738 0.504819 0.804164 -0.246037
C59   C     C_R   0.296901 0.474394 0.850128 0.010063
C60   C     C_R   0.199895 0.462982 0.704053 -0.528948
H47   H     H_    0.506516 0.533521 0.824550 0.150311
H48   H     H_    0.444812 0.591437 0.935725 0.124987
H49   H     H_    0.539911 0.603580 0.061248 0.118441
H50   H     H_    0.303401 0.451747 0.181477 0.141434
H51   H     H_    0.266151 0.375993 0.940899 0.129074
H52   H     H_    0.360071 0.388579 0.067270 0.122929
H53   H     H_    0.067311 0.418577 0.856188 0.155058
H54   H     H_    0.745217 0.559242 0.140275 0.139872
H55   H     H_    0.160943 0.460619 0.648185 0.167946
C61   C     C_2   0.211119 0.242369 0.326171 0.930933
O25   O     O_2   0.338688 0.220918 0.350754 -0.631591
O26   O     O_R   0.072229 0.197312 0.314922 -0.791183
H56   H     H_    0.092605 0.148613 0.329371 0.329432
C62   C     C_2   0.981285 0.165578 0.733567 1.138138
O27   O     O_2   0.936088 0.154240 0.790414 -0.620371
O28   O     O_R   0.142959 0.156772 0.719321 -0.817736
H57   H     H_    0.210132 0.139088 0.759585 0.317358
C63   C     C_1   0.776005 0.779227 0.280917 0.069477
N1    N     N_1   0.733251 0.830512 0.314349 -0.057707
C64   C     C_2   0.984187 0.801401 0.173420 1.194049
O29   O     O_2   0.103311 0.813236 0.216027 -0.552641
O30   O     O_R   0.938115 0.853916 0.132178 -0.761529
H58   H     H_    0.837887 0.839585 0.098508 0.288209
C65   C     C_2   0.672478 0.529622 0.369703 1.124685
O31   O     O_2   0.761629 0.485962 0.390317 -0.599440
O32   O     O_R   0.627328 0.586423 0.416471 -0.792633
H59   H     H_    0.628322 0.572500 0.465179 0.343567

loop_
_geom_bond_atom_site_label_1
_geom_bond_atom_site_label_2
_geom_bond_distance
_ccdc_geom_bond_type
P4    O15   1.763652 S    
C17   C18   1.416051 A    
C12   H25   1.110208 S    
C23   C24   1.438525 A    
C7    H15   1.110822 S    
C2    H4    1.099993 S    
O6    P6    1.754442 S    
C21   H38   1.080331 S    
C56   C60   1.395401 A    
H1    C10   1.110356 S    
C41   C42   1.393704 A    
C55   C56   1.405624 A    
C10   H20   1.110938 S    
C55   C59   1.414883 A    
Ba1   Ba2   4.580361 S    
C24   C35   1.420396 A    
C5    H8    1.110640 S    
O16   Ba2   2.920471 S    
C45   C46   1.414987 A    
C14   H31   1.108640 S    
P3    O11   1.763530 S    
C11   C12   1.520688 S    
C52   H51   1.082712 S    
C22   C23   1.418210 A    
C65   O31   1.208321 D    
C2    C3    1.543285 S    
C16   H36   1.108391 S    
C7    H13   1.110592 S    
C39   H41   1.081382 S    
O2    Ba2   2.818336 S    
Ba2   O21   2.835286 S    
C33   C34   1.394268 A    
C45   H50   1.080960 S    
C29   C36   1.423914 A    
C27   C28   1.430868 A    
C35   C36   1.434045 A    
C14   C62   1.499010 S    
C32   H39   1.079469 S    
C11   H23   1.110876 S    
P1    O1    1.518025 D    
C4    C5    1.521603 S    
C30   C31   1.428440 A    
C17   C20   1.434097 A    
P2    O20   1.555437 S    
C9    H19   1.111134 S    
C19   H43   1.076090 S    
C52   C53   1.402425 A    
P5    O17   1.750956 S    
P2    O10   1.761497 S    
C4    H6    1.095647 S    
C6    H12   1.107573 S    
C19   C21   1.391371 A    
C1    H2    1.107154 S    
C62   O28   1.396911 S    
C47   H54   1.082666 S    
C9    H18   1.108847 S    
O5    C6    1.397112 S    
Ba1   O16   2.768828 S    
C12   H26   1.110941 S    
C3    H5    1.111206 S    
Ba1   O20   2.921313 S    
P3    C48   1.879474 S    
O6    C10   1.408261 S    
O7    Ba1   2.835143 S    
C50   H48   1.082552 S    
P4    O13   1.580571 S    
C20   C24   1.423247 A    
C17   C29   1.421881 A    
Ba2   O20   2.768045 S    
C57   C60   1.392782 A    
C14   H30   1.111145 S    
P7    O21   1.568974 D    
C31   C32   1.398682 A    
C43   C44   1.394731 A    
C16   H35   1.109641 S    
C21   C22   1.399906 A    
C13   H29   1.111075 S    
C15   H32   1.110501 S    
O11   C2    1.411712 S    
P6    C40   1.876166 S    
P8    C25   1.853453 S    
C22   C25   1.417362 A    
C49   C54   1.404965 A    
C33   H40   1.079084 S    
C11   H22   1.110967 S    
P1    O2    1.580601 S    
C64   O30   1.398302 S    
C63   N1    1.156120 T    
O2    Ba1   2.921653 S    
C15   C16   1.520638 S    
C53   C54   1.408112 A    
P4    C27   1.875837 S    
C15   H33   1.110655 S    
H34   C16   1.109645 S    
P2    C44   1.875928 S    
P8    O24   1.750469 S    
C34   C35   1.415018 A    
P5    O18   1.547496 D    
C26   C27   1.394141 A    
O13   Ba2   2.922495 S    
C6    C7    1.521824 S    
C38   C40   1.416811 A    
C1    C10   1.520043 S    
C1    H3    1.110163 S    
C46   C54   1.491143 S    
C62   O27   1.223007 D    
C41   H42   1.064648 S    
C5    H10   1.109099 S    
O14   Ba2   2.777149 S    
C9    H17   1.108007 S    
P5    C56   1.841369 S    
P2    O7    1.509170 D    
O12   Ba2   2.858323 S    
C55   H53   1.082585 S    
P3    O8    1.768818 S    
O3    P6    1.753656 S    
O32   H59   1.003071 S    
C31   C42   1.427739 A    
C3    C64   1.516520 S    
C61   O26   1.397950 S    
P3    O9    1.545690 D    
C18   H44   1.076031 S    
O14   P8    1.743085 S    
C47   C48   1.402557 A    
O19   C13   1.406501 S    
P4    O12   1.518411 D    
O8    Ba1   2.735967 S    
C40   C41   1.393322 A    
O16   P7    1.751978 S    
P8    O23   1.544035 D    
O28   H57   1.014073 S    
C4    O15   1.394799 S    
P1    O5    1.750710 S    
C38   C39   1.398818 A    
P2    Ba1   3.401042 S    
C2    C63   1.470023 S    
O4    P6    1.545052 D    
C6    H11   1.103669 S    
C58   H47   1.082527 S    
C13   C14   1.528884 S    
C18   C32   1.393066 A    
C49   H49   1.082922 S    
O30   H58   1.012635 S    
C57   C58   1.397415 A    
C5    H9    1.110214 S    
C28   C33   1.401293 A    
C29   C30   1.437974 A    
Ba1   O13   2.817740 S    
C3    H27   1.111625 S    
O1    Ba1   2.857809 S    
O17   Ba2   2.736616 S    
C64   O29   1.220147 D    
C65   O32   1.367673 S    
C50   C51   1.408224 A    
C49   C50   1.398549 A    
C13   H28   1.109163 S    
C36   C37   1.415839 A    
C37   H46   1.076746 S    
C8    C9    1.533206 S    
C43   C65   1.428466 S    
C15   O24   1.404973 S    
C43   C48   1.399189 A    
C8    H16   1.098566 S    
C11   O22   1.399888 S    
C46   C47   1.417147 A    
P5    O19   1.751384 S    
C23   C28   1.423968 A    
P1    Ba1   3.406166 S    
C7    H14   1.106098 S    
O10   C8    1.399659 S    
C4    H7    1.109744 S    
P7    C57   1.833978 S    
C37   C39   1.393184 A    
C51   C59   1.493163 S    
C58   C59   1.410667 A    
C12   H24   1.110588 S    
P4    Ba2   3.406771 S    
O26   H56   1.013890 S    
C1    H21   1.108373 S    
C30   C38   1.423504 A    
C26   H37   1.082022 S    
C25   C26   1.397492 A    
C34   H45   1.076803 S    
C61   O25   1.223836 D    
C53   H52   1.082885 S    
P1    C42   1.898082 S    
P7    O22   1.750996 S    
C19   C20   1.414648 A    
C60   H55   1.082281 S    
C8    C61   1.510224 S    
O3    Ba1   2.777812 S    
C51   C52   1.406420 A    
C44   C45   1.401290 A    
