data_mof_unit_17220.cif
_audit_creation_date              2012-12-10T17:15:16-0500
_audit_creation_method            fapswitch 2.2
_symmetry_space_group_name_H-M    P1
_symmetry_Int_Tables_number       1
_space_group_crystal_system       triclinic
_cell_length_a                    10.088935
_cell_length_b                    10.673133
_cell_length_c                    12.67567
_cell_angle_alpha                 91.737576
_cell_angle_beta                  91.290426
_cell_angle_gamma                 97.666605
_cell_volume                      1351.61389859

loop_
_atom_site_label
_atom_site_type_symbol
_atom_type_description
_atom_site_fract_x
_atom_site_fract_y
_atom_site_fract_z
_atom_type_partial_charge
C1    C     C_R   0.441563 0.265621 0.489915 0.905646
C2    C     C_R   0.670421 0.580176 0.038090 0.186774
C3    C     C_R   0.385550 0.356775 0.840169 0.083811
C4    C     C_R   0.655432 0.584183 0.147762 0.097823
C5    C     C_R   0.533952 0.556315 0.876436 0.004676
C6    C     C_R   0.471251 0.407919 0.126860 0.010864
C7    C     C_R   0.565344 0.514096 0.975381 -0.001669
C8    C     C_R   0.482803 0.410171 0.016268 0.013673
C9    C     C_2   0.398968 0.129091 0.485627 -0.013824
C10   C     C_2   0.601509 0.870738 0.520201 -0.005032
C11   C     C_2   0.494919 0.055690 0.470820 0.052792
C12   C     C_R   0.558528 0.734350 0.510657 0.916034
C13   C     C_2   0.505853 0.943867 0.536846 0.034591
C14   C     C_3   0.737124 0.689852 0.214733 -0.422175
C15   C     C_3   0.683558 0.815284 0.198922 -0.927708
C16   C     C_3   0.290650 0.272347 0.763752 -0.428155
C17   C     C_3   0.147012 0.256216 0.802294 -0.896491
C18   C     C_3   0.381615 0.179623 0.972532 -0.407017
C19   C     C_3   0.510094 0.126655 0.003977 -0.886518
C20   C     C_3   0.802790 0.631556 0.989059 -0.392181
C21   C     C_3   0.910954 0.548779 0.015145 -0.905278
C22   C     C_3   0.749046 0.925470 0.517872 -0.453931
C23   C     C_2   0.063907 0.462817 0.472134 -0.081121
C24   C     C_3   0.833684 0.875985 0.605151 -0.826005
C25   C     C_3   0.251598 0.076135 0.491274 -0.455331
C26   C     C_3   0.172878 0.103230 0.391882 -0.845040
C27   C     C_3   0.878292 0.357362 0.616330 -0.224852
C28   C     C_3   0.786485 0.332860 0.709145 -0.773060
C29   C     C_3   0.137127 0.673273 0.419840 -0.178016
C30   C     C_3   0.126013 0.670758 0.299568 -0.888301
C31   C     C_2   0.920261 0.485657 0.469286 -0.104181
C32   C     C_R   0.471582 0.495336 0.697943 0.874514
C33   C     C_R   0.528137 0.501700 0.301490 0.929486
C34   C     C_R   0.550881 0.500249 0.190009 -0.139412
C35   C     C_R   0.450112 0.475307 0.807969 -0.142877
C36   C     C_R   0.409875 0.319405 0.944667 0.180278
H1    H     H_    0.885865 0.542804 0.407787 0.153731
H2    H     H_    0.735987 0.672542 0.300154 0.218146
H3    H     H_    0.844247 0.700124 0.194922 0.220021
H4    H     H_    0.138597 0.207951 0.878495 0.256461
H5    H     H_    0.112146 0.350141 0.812491 0.268347
H6    H     H_    0.080359 0.198504 0.743081 0.242139
H7    H     H_    0.285996 0.311041 0.684356 0.224089
H8    H     H_    0.325880 0.179606 0.749529 0.177530
H9    H     H_    0.580767 0.135223 0.937795 0.260031
H10   H     H_    0.560032 0.177241 0.074811 0.267134
H11   H     H_    0.486098 0.025044 0.021904 0.247759
H12   H     H_    0.088347 0.372511 0.497821 0.131111
H13   H     H_    0.305410 0.162916 0.033356 0.186806
H14   H     H_    0.337555 0.117932 0.905990 0.218640
H15   H     H_    0.924881 0.540430 0.101473 0.257790
H16   H     H_    0.882989 0.452389 0.979078 0.262542
H17   H     H_    0.007553 0.590458 0.982443 0.256338
H18   H     H_    0.795643 0.630344 0.901718 0.237628
H19   H     H_    0.835639 0.731161 0.015262 0.211292
H20   H     H_    0.332657 0.861451 0.603077 0.183757
H21   H     H_    0.404363 0.999876 0.664523 0.174479
H22   H     H_    0.676937 0.129639 0.412537 0.193392
H23   H     H_    0.392487 0.237331 0.184794 0.200205
H24   H     H_    0.592706 0.004417 0.340469 0.182759
H25   H     H_    0.781978 0.876111 0.681631 0.264491
H26   H     H_    0.856335 0.779421 0.585087 0.272079
H27   H     H_    0.931019 0.938173 0.614497 0.228766
H28   H     H_    0.790081 0.904919 0.439629 0.201293
H29   H     H_    0.761352 0.029189 0.532666 0.217434
H30   H     H_    0.169739 0.205807 0.383634 0.275740
H31   H     H_    0.218374 0.065411 0.320633 0.258455
H32   H     H_    0.068189 0.056007 0.396129 0.235737
H33   H     H_    0.237439 0.972228 0.495739 0.212613
H34   H     H_    0.275094 0.328635 0.136394 0.189241
H35   H     H_    0.207531 0.116097 0.562173 0.200815
H36   H     H_    0.782955 0.421621 0.756332 0.266351
H37   H     H_    0.685504 0.287999 0.682489 0.274686
H38   H     H_    0.827780 0.265472 0.761850 0.202655
H39   H     H_    0.882899 0.265660 0.573296 0.159117
H40   H     H_    0.978497 0.392371 0.652240 0.171470
H41   H     H_    0.221897 0.651826 0.265208 0.281913
H42   H     H_    0.045170 0.596136 0.270605 0.238950
H43   H     H_    0.102958 0.763746 0.272727 0.232247
H44   H     H_    0.047513 0.706001 0.455306 0.142638
H45   H     H_    0.535268 0.709849 0.779131 0.191062
H46   H     H_    0.220470 0.746415 0.445045 0.201239
H47   H     H_    0.549837 0.745189 0.907312 0.184221
H48   H     H_    0.682687 0.839128 0.114296 0.265077
H49   H     H_    0.580047 0.809610 0.228246 0.257779
H50   H     H_    0.748415 0.892075 0.243510 0.244125
N1    N     N_2   0.162330 0.550370 0.457540 -0.052641
N2    N     N_2   0.837670 0.449630 0.542460 -0.049725
N3    N     N_3   0.366487 0.328007 0.176763 -0.445499
N4    N     N_3   0.580862 0.685060 0.848854 -0.472347
N5    N     N_3   0.422588 0.916016 0.626421 -0.473646
N6    N     N_3   0.583386 0.086532 0.384833 -0.463951
O1    O     O_R   0.567930 0.307680 0.508550 -0.607557
O2    O     O_R   0.432070 0.692320 0.491450 -0.629076
O3    O     O_R   0.351090 0.340020 0.481290 -0.618326
O4    O     O_R   0.648910 0.659980 0.518710 -0.606408
O5    O     O_R   0.590490 0.486480 0.665020 -0.595485
O6    O     O_R   0.409510 0.513520 0.334980 -0.580966
O7    O     O_R   0.373660 0.518820 0.637760 -0.620011
O8    O     O_R   0.626340 0.481180 0.362240 -0.636416
Zn1   Zn    Zn3+2 0.644780 0.478400 0.518200 0.926940
Zn2   Zn    Zn3+2 0.355220 0.521600 0.481800 0.930008

loop_
_geom_bond_atom_site_label_1
_geom_bond_atom_site_label_2
_ccdc_geom_bond_type
C24   H25   S    
C2    C7    A    
C28   H38   S    
N2    Zn1   S    
C19   H10   S    
C9    C25   S    
C7    C8    A    
C10   C22   S    
C26   H31   S    
C18   C19   S    
C8    C36   A    
C19   H11   S    
C32   O5    A    
C33   O6    A    
H23   N3    S    
C17   H6    S    
C14   H3    S    
C30   H41   S    
C11   N6    S    
H20   N5    S    
C16   C17   S    
C25   H35   S    
C16   H8    S    
C5    N4    S    
O3    Zn2   S    
C15   H49   S    
C23   N1    D    
O4    Zn1   S    
C13   N5    S    
C12   O2    A    
C28   H36   S    
C20   H19   S    
C27   H39   S    
C28   H37   S    
H24   N6    S    
C4    C34   A    
C2    C20   S    
C26   H30   S    
C32   C35   S    
C1    C9    S    
C20   H18   S    
O1    Zn1   S    
C5    C7    A    
C6    C8    A    
C25   C26   S    
O6    Zn2   S    
C31   H1    S    
C17   H4    S    
C23   C31   S    
C2    C4    A    
C22   H29   S    
C29   C30   S    
C14   H2    S    
N1    Zn2   S    
C3    C35   A    
C1    O3    A    
C33   C34   S    
C9    C11   D    
C16   H7    S    
C10   C12   S    
C15   H50   S    
H45   N4    S    
C24   H27   S    
C22   C24   S    
H34   N3    S    
C25   H33   S    
C30   H43   S    
C27   H40   S    
C21   H15   S    
C18   H14   S    
H47   N4    S    
C24   H26   S    
C23   H12   S    
H21   N5    S    
C10   C13   D    
C19   H9    S    
C15   H48   S    
C6    N3    S    
C32   O7    A    
C33   O8    A    
C26   H32   S    
C29   H46   S    
C21   H17   S    
C11   C13   S    
C29   H44   S    
H22   N6    S    
C3    C36   A    
C5    C35   A    
O8    Zn1   S    
C4    C14   S    
C27   N2    S    
C17   H5    S    
C29   N1    S    
C22   H28   S    
C30   H42   S    
C6    C34   A    
C31   N2    D    
O7    Zn2   S    
C20   C21   S    
O2    Zn2   S    
C1    O1    A    
C27   C28   S    
C14   C15   S    
C12   O4    A    
C18   C36   S    
C21   H16   S    
O5    Zn1   S    
C3    C16   S    
C18   H13   S    
