data_mof_unit_53692.cif
_audit_creation_date              2012-12-11T15:52:24-0500
_audit_creation_method            fapswitch 2.2
_symmetry_space_group_name_H-M    P1
_symmetry_Int_Tables_number       1
_space_group_crystal_system       triclinic
_cell_length_a                    11.2355
_cell_length_b                    11.230877
_cell_length_c                    18.794068
_cell_angle_alpha                 89.845214
_cell_angle_beta                  90.140291
_cell_angle_gamma                 120.505787
_cell_volume                      2043.24051663

loop_
_atom_site_label
_atom_site_type_symbol
_atom_type_description
_atom_site_fract_x
_atom_site_fract_y
_atom_site_fract_z
_atom_type_partial_charge
C1    C     C_R   0.520482 0.457323 0.147492 0.536903
C2    C     C_3   0.196061 0.740401 0.442404 -0.269761
C3    C     C_3   0.570002 0.838601 0.442155 -0.275907
C4    C     C_3   0.257295 0.430802 0.445462 -0.264693
C5    C     C_R   0.522171 0.459118 0.354140 0.535803
C6    C     C_R   0.541927 0.066710 0.354984 0.532868
C7    C     C_R   0.937638 0.477488 0.353915 0.534531
C8    C     C_R   0.456880 0.519123 0.646933 0.539803
C9    C     C_R   0.062809 0.543691 0.647018 0.543863
C10   C     C_R   0.481971 0.939654 0.647953 0.543735
C11   C     C_R   0.486425 0.956164 0.930951 0.020776
C12   C     C_R   0.542716 0.063523 0.147496 0.536294
C13   C     C_R   0.045598 0.530524 0.931197 0.021112
C14   C     C_R   0.469980 0.514243 0.931096 0.020706
C15   C     C_R   0.004461 0.502249 0.078944 0.012086
C16   C     C_R   0.496460 0.995797 0.078800 0.011518
C17   C     C_R   0.498841 0.503464 0.078907 0.012185
C18   C     C_R   0.405177 0.002171 0.962599 0.001649
C19   C     C_R   0.000868 0.403330 0.963714 0.000643
C20   C     C_R   0.597799 0.597372 0.963196 0.000784
C21   C     C_R   0.978558 0.388936 0.036377 0.008722
C22   C     C_R   0.411701 0.023677 0.035304 0.007789
C23   C     C_R   0.936381 0.479789 0.147484 0.535941
C24   C     C_R   0.612461 0.590470 0.035924 0.007489
C25   C     C_R   0.559314 0.927202 0.048802 -0.161152
C26   C     C_R   0.072144 0.634322 0.048227 -0.161942
C27   C     C_R   0.366603 0.438694 0.048471 -0.161726
C28   C     C_R   0.091720 0.648231 0.974761 -0.146760
C29   C     C_R   0.555110 0.908431 0.975305 -0.147476
C30   C     C_R   0.352393 0.443255 0.974958 -0.147792
C31   C     C_3   0.400219 0.129756 0.946681 -0.283211
C32   C     C_3   0.874655 0.267795 0.948078 -0.283241
C33   C     C_3   0.731915 0.605641 0.947713 -0.282188
C34   C     C_R   0.450966 0.523625 0.855335 0.544388
C35   C     C_3   0.849170 0.251900 0.027599 -0.240706
C36   C     C_3   0.408027 0.154139 0.026265 -0.241306
C37   C     C_3   0.748127 0.597270 0.027328 -0.241521
C38   C     C_R   0.500555 0.991596 0.576684 0.002382
C39   C     C_R   0.017404 0.514854 0.574483 0.006813
C40   C     C_R   0.488152 0.501220 0.574707 -0.010832
C41   C     C_R   0.997103 0.482400 0.424882 -0.010008
C42   C     C_R   0.494185 0.017042 0.427628 -0.006331
C43   C     C_R   0.512150 0.507247 0.425376 -0.006944
C44   C     C_R   0.561394 0.944646 0.529912 -0.028619
C45   C     C_R   0.073422 0.549266 0.855353 0.541481
C46   C     C_R   0.076943 0.623841 0.527368 -0.025658
C47   C     C_R   0.375586 0.432629 0.529664 -0.029292
C48   C     C_R   0.067385 0.608846 0.456379 -0.033364
C49   C     C_R   0.560013 0.959424 0.459481 -0.025038
C50   C     C_R   0.386777 0.429198 0.457919 -0.026156
C51   C     C_R   0.421768 0.063627 0.473188 -0.015873
C52   C     C_R   0.941130 0.362722 0.471785 -0.013681
C53   C     C_R   0.631666 0.590530 0.469450 0.012150
C54   C     C_R   0.936870 0.381626 0.547110 -0.004724
C55   C     C_R   0.441020 0.065742 0.549084 -0.004699
C56   C     C_R   0.476496 0.926929 0.855261 0.541070
C57   C     C_R   0.621280 0.573248 0.545334 -0.010151
C58   C     C_3   0.328181 0.109468 0.440791 -0.241134
C59   C     C_3   0.195690 0.076697 0.479096 -0.474016
C60   C     C_3   0.886017 0.219116 0.441688 -0.238010
C61   C     C_3   0.910564 0.116826 0.483468 -0.474452
C62   C     C_3   0.756578 0.717078 0.438348 -0.264886
C63   C     C_3   0.884477 0.711605 0.442534 -0.397638
C64   C     C_3   0.830109 0.271222 0.595612 -0.262805
C65   C     C_3   0.885922 0.203180 0.646134 -0.398727
C66   C     C_3   0.427269 0.165470 0.597780 -0.259049
C67   C     C_3   0.570064 0.818821 0.522984 -0.230620
C68   C     C_3   0.298232 0.101088 0.645155 -0.396821
C69   C     C_3   0.745088 0.610986 0.593823 -0.244231
C70   C     C_3   0.828142 0.761466 0.619729 -0.424333
C71   C     C_3   0.208538 0.755275 0.523374 -0.224175
C72   C     C_3   0.247970 0.438868 0.525484 -0.224222
Cr1   Cr    Cr6+3 0.769160 0.541570 0.250690 0.993847
Cr2   Cr    Cr6+3 0.458430 0.227590 0.250690 0.990912
Cr3   Cr    Cr6+3 0.772410 0.230840 0.250690 0.989287
Cr4   Cr    Cr6+3 0.541570 0.769160 0.749310 0.979077
Cr5   Cr    Cr6+3 0.227590 0.458430 0.749310 0.979334
Cr6   Cr    Cr6+3 0.230840 0.772410 0.749310 0.980183
H1    H     H_    0.621844 0.899507 0.080930 0.135639
H2    H     H_    0.755155 0.254376 0.043383 0.142768
H3    H     H_    0.505887 0.247417 0.043027 0.140896
H4    H     H_    0.743988 0.500112 0.043876 0.142492
H5    H     H_    0.493124 0.209050 0.917591 0.127209
H6    H     H_    0.795080 0.278520 0.918090 0.128336
H7    H     H_    0.719115 0.513868 0.918433 0.128693
H8    H     H_    0.858793 0.166132 0.050945 0.150340
H9    H     H_    0.312250 0.145158 0.048539 0.150566
H10   H     H_    0.835098 0.693637 0.050047 0.149346
H11   H     H_    0.476811 0.726709 0.542934 0.143971
H12   H     H_    0.098428 0.725170 0.079658 0.135390
H13   H     H_    0.292259 0.744833 0.546592 0.138768
H14   H     H_    0.265007 0.538493 0.544691 0.138701
H15   H     H_    0.176514 0.816828 0.415787 0.141573
H16   H     H_    0.666982 0.879856 0.412101 0.142515
H17   H     H_    0.176617 0.331981 0.422029 0.148596
H18   H     H_    0.666559 0.837436 0.547884 0.153165
H19   H     H_    0.195953 0.837660 0.546505 0.159165
H20   H     H_    0.163533 0.349168 0.552314 0.154450
H21   H     H_    0.274374 0.724547 0.416402 0.125676
H22   H     H_    0.478996 0.755515 0.414451 0.124335
H23   H     H_    0.275642 0.374396 0.080237 0.135457
H24   H     H_    0.275312 0.524355 0.416454 0.126624
H25   H     H_    0.137613 0.969969 0.498374 0.137738
H26   H     H_    0.213769 0.149413 0.522592 0.161247
H27   H     H_    0.128866 0.088501 0.439764 0.129880
H28   H     H_    0.393502 0.220085 0.435079 0.192879
H29   H     H_    0.288200 0.059112 0.388809 0.180138
H30   H     H_    0.013207 0.165642 0.507243 0.142354
H31   H     H_    0.833727 0.063515 0.525373 0.161059
H32   H     H_    0.901869 0.036204 0.446524 0.118465
H33   H     H_    0.775938 0.177997 0.436226 0.190067
H34   H     H_    0.138580 0.750872 0.951963 0.149167
H35   H     H_    0.934563 0.224042 0.389838 0.181225
H36   H     H_    0.944110 0.761196 0.491094 0.128580
H37   H     H_    0.850282 0.601010 0.444514 0.199850
H38   H     H_    0.952146 0.769103 0.396964 0.163960
H39   H     H_    0.739591 0.737923 0.382753 0.161303
H40   H     H_    0.781237 0.809408 0.468526 0.125995
H41   H     H_    0.986722 0.218602 0.628509 0.150615
H42   H     H_    0.896564 0.244459 0.700853 0.163361
H43   H     H_    0.813210 0.090546 0.648999 0.151003
H44   H     H_    0.779767 0.316477 0.627690 0.113649
H45   H     H_    0.609453 0.860526 0.953131 0.148421
H46   H     H_    0.746688 0.193327 0.562666 0.152650
H47   H     H_    0.214730 0.001460 0.623974 0.150038
H48   H     H_    0.324615 0.085234 0.699960 0.165532
H49   H     H_    0.257242 0.172119 0.649281 0.145541
H50   H     H_    0.520445 0.219170 0.632202 0.116245
H51   H     H_    0.430862 0.247841 0.565023 0.153258
H52   H     H_    0.918459 0.775180 0.650738 0.147053
H53   H     H_    0.767117 0.788145 0.655293 0.181010
H54   H     H_    0.868508 0.837964 0.576239 0.117005
H55   H     H_    0.709542 0.544093 0.641971 0.131119
H56   H     H_    0.249547 0.387242 0.952385 0.148278
H57   H     H_    0.814277 0.581735 0.567638 0.142250
H58   H     H_    0.299677 0.106005 0.923121 0.141608
H59   H     H_    0.900083 0.191920 0.925626 0.141038
H60   H     H_    0.808938 0.707168 0.924574 0.142040
O1    O     O_R   0.911480 0.572650 0.170990 -0.529238
O2    O     O_R   0.528970 0.640340 0.824320 -0.502995
O3    O     O_R   0.111370 0.471030 0.824320 -0.506812
O4    O     O_R   0.359660 0.888630 0.824320 -0.506465
O5    O     O_R   0.909980 0.572450 0.331530 -0.526849
O6    O     O_R   0.427550 0.337530 0.331530 -0.533571
O7    O     O_R   0.662470 0.090020 0.331530 -0.533498
O8    O     O_R   0.572450 0.909980 0.668470 -0.541775
O9    O     O_R   0.337530 0.427550 0.668470 -0.534798
O10   O     O_R   0.090020 0.662470 0.668470 -0.532121
O11   O     O_R   0.638950 0.528780 0.324500 -0.506827
O12   O     O_R   0.427350 0.338830 0.170990 -0.528308
O13   O     O_R   0.471220 0.110170 0.324500 -0.525522
O14   O     O_R   0.889830 0.361050 0.324500 -0.523624
O15   O     O_R   0.528780 0.638950 0.675500 -0.510438
O16   O     O_R   0.110170 0.471220 0.675500 -0.511093
O17   O     O_R   0.361050 0.889830 0.675500 -0.508618
O18   O     O_3   0.666667 0.333333 0.250560 -0.254430
O19   O     O_3   0.333333 0.666667 0.749440 -0.257609
O20   O     O_R   0.661170 0.088520 0.170990 -0.527721
O21   O     O_R   0.572650 0.911480 0.829010 -0.531703
O22   O     O_R   0.338830 0.427350 0.829010 -0.531067
O23   O     O_R   0.088520 0.661170 0.829010 -0.529668
O24   O     O_R   0.640340 0.528970 0.175680 -0.503122
O25   O     O_R   0.471030 0.111370 0.175680 -0.501514
O26   O     O_R   0.888630 0.359660 0.175680 -0.501158

loop_
_geom_bond_atom_site_label_1
_geom_bond_atom_site_label_2
_ccdc_geom_bond_type
C44   C49   A    
C40   C47   A    
C66   C68   S    
Cr4   O21   S    
Cr4   O15   S    
C37   H10   S    
C70   H52   S    
C61   H31   S    
C7    O5    A    
C9    O16   A    
C3    C49   S    
C5    O11   A    
C11   C18   A    
C72   H20   S    
C28   H34   S    
C71   H19   S    
C62   C63   S    
C59   H26   S    
C23   O1    A    
C19   C21   A    
C63   H38   S    
C56   O21   A    
Cr6   O4    S    
Cr2   O25   S    
C72   H14   S    
C35   H8    S    
Cr6   O17   S    
C39   C54   A    
C19   C32   S    
C65   H42   S    
C35   H2    S    
C9    C39   S    
C31   H5    S    
C58   H29   S    
C61   H30   S    
C33   H7    S    
C62   H39   S    
C45   O23   A    
C52   C60   S    
C63   H36   S    
Cr3   O18   S    
C43   C53   A    
C38   C55   A    
C20   C24   A    
C30   H56   S    
C4    H24   S    
C16   C22   A    
C13   C28   A    
C65   H43   S    
Cr5   O9    S    
C41   C52   A    
Cr6   O10   S    
C42   C51   A    
C66   H51   S    
C63   H37   S    
C15   C23   S    
C5    C43   S    
Cr4   O8    S    
C69   H57   S    
C18   C22   A    
C27   C30   A    
C45   O3    A    
C60   H35   S    
C14   C30   A    
C61   H32   S    
C3    H22   S    
C52   C54   A    
C47   C50   A    
Cr5   O3    S    
Cr4   O2    S    
C36   H9    S    
C25   C29   A    
C32   H6    S    
C46   C48   A    
Cr4   O19   S    
C17   C24   A    
Cr5   O22   S    
C13   C19   A    
Cr2   O12   S    
C17   C27   A    
C32   C35   S    
C12   C16   S    
C6    O7    A    
C53   C57   A    
C15   C26   A    
Cr1   O1    S    
C36   H3    S    
C2    C48   S    
C58   C59   S    
C64   H46   S    
C27   H23   S    
Cr3   O7    S    
C4    C50   S    
C60   C61   S    
C58   H28   S    
C38   C44   A    
Cr1   O24   S    
C14   C20   A    
Cr5   O16   S    
C4    H17   S    
C53   C62   S    
Cr6   O19   S    
C33   H60   S    
C70   H54   S    
C24   C37   S    
C65   H41   S    
Cr2   O18   S    
C1    O12   A    
C51   C58   S    
C59   H27   S    
C8    O15   A    
C68   H49   S    
C46   C71   S    
C10   O8    A    
C39   C46   A    
C20   C33   S    
Cr3   O20   S    
C2    H21   S    
C57   C69   S    
C67   H18   S    
C37   H4    S    
C8    O9    A    
C6    O13   A    
C2    C71   S    
C68   H48   S    
C4    C72   S    
C55   C66   S    
C23   O26   A    
Cr1   O5    S    
C16   C25   A    
Cr2   O6    S    
C69   H55   S    
C40   C57   A    
Cr1   O11   S    
C25   H1    S    
C26   C28   A    
C2    H15   S    
C3    C67   S    
C31   H58   S    
C5    O6    A    
C10   O17   A    
C14   C34   S    
C43   C50   A    
C21   C35   S    
C26   H12   S    
Cr3   O14   S    
C22   C36   S    
C9    O10   A    
C1    C17   S    
C10   C38   S    
C59   H25   S    
C64   C65   S    
C56   O4    A    
C32   H59   S    
C60   H33   S    
C12   O25   A    
C13   C45   S    
C54   C64   S    
C64   H44   S    
C29   H45   S    
Cr1   O18   S    
C34   O2    A    
C70   H53   S    
C41   C48   A    
C66   H50   S    
C3    H16   S    
C51   C55   A    
C7    C41   S    
C69   C70   S    
Cr2   O13   S    
C33   C37   S    
C47   C72   S    
C62   H40   S    
C1    O24   A    
C42   C49   A    
C7    O14   A    
C15   C21   A    
C71   H13   S    
C11   C29   A    
Cr6   O23   S    
C6    C42   S    
C67   H11   S    
C31   C36   S    
Cr3   O26   S    
C44   C67   S    
C18   C31   S    
C8    C40   S    
C12   O20   A    
C68   H47   S    
C11   C56   S    
Cr5   O19   S    
C34   O22   A    
