data_mof_unit_18752.cif
_audit_creation_date              2012-12-10T16:49:27-0500
_audit_creation_method            fapswitch 2.2
_symmetry_space_group_name_H-M    P1
_symmetry_Int_Tables_number       1
_space_group_crystal_system       triclinic
_cell_length_a                    7.73826
_cell_length_b                    8.561153
_cell_length_c                    12.829127
_cell_angle_alpha                 90.720389
_cell_angle_beta                  86.988608
_cell_angle_gamma                 93.330498
_cell_volume                      847.263736258

loop_
_atom_site_label
_atom_site_type_symbol
_atom_type_description
_atom_site_fract_x
_atom_site_fract_y
_atom_site_fract_z
_atom_type_partial_charge
C1    C     C_R   0.454983 0.205252 0.496629 0.956062
C2    C     C_R   0.685584 0.395732 0.136447 -0.013086
C3    C     C_R   0.559048 0.436273 0.867468 -0.305118
C4    C     C_R   0.441006 0.563887 0.132544 -0.305220
C5    C     C_R   0.561598 0.454335 0.973850 0.170502
C6    C     C_R   0.438475 0.545822 0.026162 0.170775
C7    C     C_2   0.431887 0.041927 0.492576 -0.410316
C8    C     C_2   0.568195 0.958075 0.507217 -0.410244
C9    C     C_R   0.809242 0.304778 0.191361 0.134079
C10   C     C_R   0.749715 0.174081 0.251002 -0.099442
C11   C     C_R   0.868134 0.081510 0.296272 -0.133628
C12   C     C_R   0.545041 0.794748 0.503297 0.955465
C13   C     C_R   0.045987 0.119049 0.282787 -0.124179
C14   C     C_R   0.106021 0.248467 0.223227 -0.093675
C15   C     C_R   0.988339 0.341002 0.177303 -0.160016
C16   C     C_R   0.190185 0.694899 0.808735 0.133611
C17   C     C_R   0.011154 0.659256 0.823813 -0.160768
C18   C     C_R   0.893057 0.751467 0.777992 -0.093899
C19   C     C_R   0.952595 0.879995 0.717492 -0.123722
C20   C     C_R   0.130363 0.917010 0.702999 -0.133701
C21   C     C_R   0.249198 0.824797 0.748206 -0.098005
C22   C     C_R   0.464402 0.505807 0.699955 0.864233
C23   C     C_R   0.535595 0.494219 0.300048 0.864125
C24   C     C_R   0.559427 0.486152 0.188330 -0.107955
C25   C     C_R   0.440570 0.513958 0.811680 -0.108084
C26   C     C_R   0.313671 0.617566 0.971737 -0.270903
C27   C     C_R   0.686347 0.382519 0.028290 -0.271016
C28   C     C_R   0.314332 0.604311 0.863577 -0.012990
H1    H     H_    0.346457 0.635471 0.172591 0.161480
H2    H     H_    0.822480 0.979157 0.340415 0.130174
H3    H     H_    0.137350 0.046707 0.317355 0.120054
H4    H     H_    0.243833 0.275485 0.211479 0.142733
H5    H     H_    0.036510 0.439811 0.130104 0.130467
H6    H     H_    0.963365 0.561153 0.871742 0.130832
H7    H     H_    0.755331 0.724894 0.790540 0.142522
H8    H     H_    0.860922 0.952071 0.682981 0.120124
H9    H     H_    0.175640 0.018724 0.658137 0.130101
H10   H     H_    0.386634 0.856011 0.737677 0.103276
H11   H     H_    0.653604 0.364688 0.827428 0.161689
H12   H     H_    0.219361 0.687899 0.013041 0.143695
H13   H     H_    0.780623 0.312118 0.987012 0.143801
H14   H     H_    0.998625 0.614784 0.421863 0.188748
H15   H     H_    0.001376 0.385217 0.578137 0.188879
H16   H     H_    0.303510 0.991104 0.477312 0.174387
H17   H     H_    0.696601 0.008893 0.522428 0.174701
H18   H     H_    0.612229 0.142522 0.260767 0.103413
N1    N     N_2   0.054030 0.541640 0.471970 -0.163203
N2    N     N_2   0.945970 0.458360 0.528030 -0.163084
O1    O     O_R   0.609680 0.261530 0.506880 -0.606338
O2    O     O_R   0.390320 0.738470 0.493120 -0.606491
O3    O     O_R   0.323330 0.288220 0.488910 -0.634627
O4    O     O_R   0.676670 0.711780 0.511090 -0.634496
O5    O     O_R   0.619510 0.488830 0.661140 -0.624694
O6    O     O_R   0.380490 0.511170 0.338860 -0.625161
O7    O     O_R   0.333160 0.515520 0.643180 -0.614729
O8    O     O_R   0.666840 0.484480 0.356820 -0.614690
Zn1   Zn    Zn3+2 0.691200 0.482180 0.511990 0.941944
Zn2   Zn    Zn3+2 0.308800 0.517820 0.488010 0.941608

loop_
_geom_bond_atom_site_label_1
_geom_bond_atom_site_label_2
_ccdc_geom_bond_type
C16   C28   S    
C12   O2    A    
C23   C24   S    
C10   H18   S    
C16   C21   A    
C11   C13   A    
H15   N2    S    
C27   H13   S    
C26   C28   A    
C4    H1    S    
C14   C15   A    
C3    C25   A    
C8    C12   S    
C10   C11   A    
C19   C20   A    
C17   C18   A    
C9    C15   A    
C22   O7    A    
C3    H11   S    
N2    Zn1   S    
O3    Zn2   S    
C6    C26   A    
C13   C14   A    
C20   C21   A    
N1    Zn2   S    
C20   H9    S    
C1    O3    A    
C26   H12   S    
C2    C27   A    
C18   H7    S    
C12   O4    A    
C13   H3    S    
C9    C10   A    
C22   O5    A    
H14   N1    S    
C1    C7    S    
C2    C24   A    
C5    C6    A    
C4    C24   A    
C17   H6    S    
O4    Zn1   S    
O2    Zn2   S    
C3    C5    A    
C7    C8    D    
O1    Zn1   S    
O8    Zn1   S    
C23   O6    A    
C4    C6    A    
C18   C19   A    
O6    Zn2   S    
O7    Zn2   S    
C23   O8    A    
O5    Zn1   S    
C8    H17   S    
C7    H16   S    
C19   H8    S    
C5    C27   A    
C2    C9    S    
C1    O1    A    
C15   H5    S    
C21   H10   S    
N1    N2    D    
C11   H2    S    
C14   H4    S    
C16   C17   A    
C25   C28   A    
C22   C25   S    
