data_mof_unit_18149.cif
_audit_creation_date              2012-12-11T15:30:42-0500
_audit_creation_method            fapswitch 2.2
_symmetry_space_group_name_H-M    P1
_symmetry_Int_Tables_number       1
_space_group_crystal_system       triclinic
_cell_length_a                    6.972781
_cell_length_b                    20.487837
_cell_length_c                    24.331941
_cell_angle_alpha                 89.901462
_cell_angle_beta                  90.827214
_cell_angle_gamma                 89.851402
_cell_volume                      3475.61364941

loop_
_atom_site_label
_atom_site_type_symbol
_atom_type_description
_atom_site_fract_x
_atom_site_fract_y
_atom_site_fract_z
_atom_type_partial_charge
O1    O     O_R   0.507310 0.423620 0.460450 -0.536600
O2    O     O_R   0.170760 0.556060 0.437190 -0.536491
O3    O     O_R   0.004040 0.576380 0.539550 -0.536072
C1    C     C_R   0.338722 0.576115 0.421211 0.727272
O4    O     O_R   0.177350 0.422870 0.454070 -0.537667
O5    O     O_R   0.010680 0.442240 0.556560 -0.535000
C2    C     C_R   0.344727 0.398614 0.443520 0.691995
O6    O     O_R   0.500670 0.557760 0.443440 -0.534916
O7    O     O_3   0.340380 0.506510 0.533610 -0.366001
V1    V     V_3+5 0.064130 0.498790 0.493770 1.416546
O8    O     O_R   0.681170 0.443940 0.562810 -0.537506
C3    C     C_R   0.850821 0.423893 0.578582 0.724734
O9    O     O_R   0.674570 0.577130 0.545930 -0.536320
C4    C     C_R   0.843286 0.601104 0.556510 0.693084
V2    V     V_3+5 0.564560 0.501210 0.506230 1.417272
O10   O     O_3   0.838170 0.493490 0.466390 -0.367456
C5    C     C_R   0.971911 0.836479 0.913284 -0.123922
C6    C     C_R   0.848361 0.661719 0.589074 -0.042643
C7    C     C_R   0.006527 0.718933 0.909484 -0.142042
C8    C     C_R   0.007820 0.776670 0.940340 -0.018938
C9    C     C_R   0.931060 0.837116 0.856507 -0.233555
C10   C     C_R   0.912763 0.778477 0.825816 0.078361
C11   C     C_R   0.963835 0.719622 0.852937 0.109379
C12   C     C_R   0.857717 0.776505 0.768464 -0.028720
C13   C     C_R   0.891290 0.717670 0.737740 0.059677
C14   C     C_R   0.949584 0.661112 0.766780 -0.171031
C15   C     C_R   0.978030 0.661759 0.823302 -0.191414
C16   C     C_R   0.766214 0.829837 0.740752 -0.026279
C17   C     C_R   0.751266 0.829767 0.683358 -0.180249
C18   C     C_R   0.797977 0.774747 0.652668 0.091691
C19   C     C_R   0.861002 0.716799 0.679245 0.086806
C20   C     C_R   0.767834 0.776186 0.595477 -0.150700
C21   C     C_R   0.791158 0.720082 0.564135 -0.164201
C22   C     C_R   0.886658 0.660199 0.645982 -0.206935
H1    H     H_    0.019188 0.616687 0.843764 0.120864
H2    H     H_    0.928909 0.613669 0.662934 0.090460
H3    H     H_    0.759047 0.721722 0.520445 0.101754
H4    H     H_    0.687878 0.871517 0.662384 0.163231
H5    H     H_    0.040897 0.672951 0.929507 0.156217
H6    H     H_    0.922746 0.884241 0.836716 0.120553
H7    H     H_    0.972124 0.614750 0.747174 0.116675
H8    H     H_    0.718930 0.820420 0.575116 0.112506
C23   C     C_3   0.775450 0.255794 0.800949 -0.377953
C24   C     C_3   0.124439 0.246594 0.783632 -0.124848
C25   C     C_3   0.102342 0.295093 0.733836 -0.420808
H9    H     H_    0.771575 0.355940 0.769185 0.147939
H10   H     H_    0.807800 0.282802 0.839640 0.139379
H11   H     H_    0.148563 0.275777 0.821698 0.127655
H12   H     H_    0.130234 0.345626 0.748592 0.146747
H13   H     H_    0.209376 0.285342 0.701356 0.131694
C26   C     C_1   0.863369 0.378195 0.624104 -0.197276
C27   C     C_3   0.937561 0.205631 0.789762 0.227909
C28   C     C_3   0.751052 0.305548 0.753172 -0.338643
C29   C     C_3   0.897786 0.291497 0.707667 0.263459
C30   C     C_3   0.861272 0.220969 0.686755 -0.336049
C31   C     C_3   0.901944 0.169924 0.733267 -0.015706
C32   C     C_1   0.877173 0.339419 0.661814 -0.078382
C33   C     C_1   0.951089 0.158894 0.836997 0.020044
C34   C     C_1   0.961537 0.120987 0.875383 -0.130412
H14   H     H_    0.035869 0.143853 0.722020 0.147138
H15   H     H_    0.710440 0.217094 0.671453 0.150836
H16   H     H_    0.640230 0.230204 0.807990 0.202196
H17   H     H_    0.602423 0.302772 0.736065 0.138294
H18   H     H_    0.955375 0.210467 0.651254 0.124889
C35   C     C_3   0.589701 0.699557 0.264879 -0.327755
C36   C     C_3   0.235378 0.696627 0.244917 -0.333452
C37   C     C_3   0.262622 0.745989 0.196856 -0.310376
H19   H     H_    0.647686 0.721894 0.178393 0.154055
H20   H     H_    0.607486 0.648945 0.249193 0.143476
H21   H     H_    0.089218 0.702585 0.262041 0.138458
H22   H     H_    0.245773 0.645918 0.228905 0.146890
H23   H     H_    0.286033 0.718742 0.157987 0.169487
H24   H     H_    0.129216 0.775310 0.191085 0.140148
C38   C     C_1   0.475668 0.878032 0.124507 -0.181112
C39   C     C_3   0.388708 0.707320 0.290864 0.284583
C40   C     C_3   0.616897 0.748992 0.216882 -0.327248
C41   C     C_3   0.435184 0.791986 0.208550 0.273039
C42   C     C_3   0.396986 0.828114 0.263343 -0.329680
C43   C     C_3   0.369928 0.778717 0.311372 -0.324896
C44   C     C_1   0.460038 0.839453 0.162385 -0.084963
C45   C     C_1   0.363965 0.659953 0.337130 -0.097487
C46   C     C_1   0.348512 0.621586 0.375182 -0.192548
H25   H     H_    0.479143 0.788269 0.344160 0.137847
H26   H     H_    0.226415 0.786225 0.329803 0.136670
H27   H     H_    0.518984 0.861160 0.273309 0.138560
H28   H     H_    0.703426 0.707473 0.296723 0.136186
H29   H     H_    0.743305 0.780449 0.225963 0.135488
H30   H     H_    0.266273 0.859075 0.258933 0.137657
C47   C     C_R   0.483560 0.162995 0.088276 -0.097951
C48   C     C_R   0.341287 0.337547 0.411031 -0.058456
C49   C     C_R   0.652502 0.265412 0.102944 0.176153
C50   C     C_R   0.596913 0.213819 0.068748 -0.146802
C51   C     C_R   0.409322 0.167091 0.141505 -0.228620
C52   C     C_R   0.448644 0.221714 0.176027 0.050662
C53   C     C_R   0.587305 0.267311 0.157929 0.077039
C54   C     C_R   0.369018 0.229134 0.229915 0.010033
C55   C     C_R   0.460379 0.272697 0.268769 -0.000014
C56   C     C_R   0.627606 0.306666 0.251965 0.142025
C57   C     C_R   0.672506 0.309514 0.196329 -0.206869
C58   C     C_R   0.201237 0.195119 0.246694 0.149983
C59   C     C_R   0.156171 0.192316 0.302335 -0.216704
C60   C     C_R   0.242100 0.234437 0.340130 0.093503
C61   C     C_R   0.381063 0.279937 0.322696 0.084326
C62   C     C_R   0.173189 0.236163 0.393935 -0.161516
C63   C     C_R   0.224068 0.286798 0.429138 -0.155318
C64   C     C_R   0.419990 0.333970 0.358098 -0.218194
H31   H     H_    0.791619 0.340059 0.184616 0.150704
H32   H     H_    0.495420 0.376303 0.343440 0.126563
H33   H     H_    0.159868 0.288973 0.469399 0.107760
H34   H     H_    0.036065 0.162566 0.315083 0.133966
H35   H     H_    0.654360 0.210468 0.027655 0.112395
H36   H     H_    0.335978 0.124771 0.157069 0.132770
H37   H     H_    0.069991 0.200458 0.407766 0.112466
O11   O     O_R   0.323590 0.942280 0.056590 -0.539747
O12   O     O_R   0.647030 0.077140 0.045940 -0.539945
O13   O     O_R   0.813570 0.057750 0.943430 -0.533250
C65   C     C_R   0.479705 0.101432 0.056469 0.703342
O14   O     O_R   0.653510 0.943950 0.062820 -0.539623
O15   O     O_R   0.820100 0.923600 0.960440 -0.535371
C66   C     C_R   0.485545 0.923776 0.078699 0.718035
O16   O     O_R   0.317060 0.076430 0.039590 -0.536752
O17   O     O_3   0.483830 0.993520 0.966410 -0.358846
V3    V     V_3+5 0.760140 0.001200 0.006230 1.430670
O18   O     O_R   0.149560 0.922820 0.954030 -0.538466
C67   C     C_R   0.980623 0.898808 0.943605 0.680343
O19   O     O_R   0.143080 0.056020 0.937150 -0.524435
C68   C     C_R   0.973449 0.075978 0.921344 0.726263
V4    V     V_3+5 0.259690 0.998730 0.993720 1.454705
O20   O     O_3   0.986120 0.006480 0.033580 -0.374078
C69   C     C_2   0.296778 0.203115 0.777345 0.278944
H38   H     H_    0.371437 0.201268 0.738622 0.050975
O21   O     O_2   0.349142 0.167671 0.815126 -0.537729
C70   C     C_3   0.750439 0.115709 0.734601 -0.726727
H39   H     H_    0.615486 0.133432 0.751794 0.245994
H40   H     H_    0.722233 0.096852 0.692484 0.213440
H41   H     H_    0.802368 0.074227 0.760274 0.236504
C71   C     C_3   0.789252 0.315600 0.080580 -0.812038
H42   H     H_    0.813553 0.308889 0.035919 0.209435
H43   H     H_    0.729519 0.365351 0.086466 0.214396
H44   H     H_    0.930470 0.311454 0.102002 0.210673
C72   C     C_3   0.779976 0.332035 0.291296 -0.782033
H45   H     H_    0.924950 0.319324 0.276109 0.219398
H46   H     H_    0.771061 0.386009 0.294276 0.201209
H47   H     H_    0.771409 0.308984 0.332457 0.220568
C73   C     C_3   0.048370 0.170128 0.207359 -0.782194
H48   H     H_    0.057858 0.192981 0.166136 0.222074
H49   H     H_    0.055803 0.116122 0.204480 0.198957
H50   H     H_    0.903716 0.183358 0.222478 0.218705
C74   C     C_2   0.050795 0.774037 0.000388 0.358253
H51   H     H_    0.049686 0.818120 0.025005 0.038170
O22   O     O_2   0.087777 0.722352 0.023321 -0.535605
C75   C     C_2   0.654759 0.880640 0.770071 0.357159
H52   H     H_    0.598716 0.870728 0.810601 0.062996
O23   O     O_2   0.621074 0.933654 0.748943 -0.529818

loop_
_geom_bond_atom_site_label_1
_geom_bond_atom_site_label_2
_ccdc_geom_bond_type
C13   C19   A    
C18   C20   A    
C30   C31   S    
O19   C68   A    
O13   V3    S    
C4    C6    S    
C69   O21   D    
C7    C8    A    
C37   C41   S    
C1    O6    A    
V4    O20   S    
C3    C26   S    
C31   C70   S    
C35   H28   S    
C36   H21   S    
C28   C29   S    
C71   H43   S    
C14   C15   A    
C59   C60   A    
C35   C40   S    
C16   C17   A    
C72   H46   S    
O5    C3    A    
C18   C19   A    
C60   C62   A    
C53   C57   A    
C23   C27   S    
C14   H7    S    
C34   C68   S    
V2    O10   S    
C55   C56   A    
C5    C8    A    
C8    C74   S    
C37   H23   S    
C65   O16   A    
C49   C71   S    
O8    V2    S    
C23   C28   S    
O12   C65   A    
O13   C68   A    
C17   H4    S    
C70   H41   S    
O1    V2    S    
C11   C15   A    
C23   H10   S    
O7    V1    S    
O18   V4    S    
C24   C27   S    
C36   C37   S    
C38   C44   T    
C9    C10   A    
V3    O20   S    
O17   V4    S    
C52   C53   A    
C72   H45   S    
C62   C63   A    
C73   H49   S    
C73   H48   S    
O14   C66   A    
C27   C33   S    
C71   H44   S    
O12   V3    S    
C12   C13   A    
C48   C64   A    
O16   V4    S    
C72   H47   S    
C49   C50   A    
O4    C2    A    
C42   C43   S    
C39   C45   S    
C15   H1    S    
C13   C14   A    
C41   C42   S    
C2    C48   S    
C45   C46   T    
C31   H14   S    
O2    C1    A    
C54   C55   A    
C17   C18   A    
O11   V4    S    
C36   H22   S    
C25   H12   S    
C58   C73   S    
C30   H18   S    
C19   C22   A    
C51   C52   A    
C40   C41   S    
C47   C50   A    
C52   C54   A    
C6    C22   A    
C40   H29   S    
C55   C61   A    
O3    C4    A    
C7    H5    S    
C37   H24   S    
O15   C67   A    
C42   H27   S    
C47   C65   S    
C25   C29   S    
C16   C75   S    
O6    V2    S    
O9    V2    S    
C56   C72   S    
C70   H39   S    
C10   C12   A    
C33   C34   T    
C39   C43   S    
O2    V1    S    
C73   H50   S    
C38   C66   S    
C24   C25   S    
C7    C11   A    
C41   C44   S    
C42   H30   S    
C63   H33   S    
C29   C30   S    
O19   V4    S    
O1    C2    A    
C12   C16   A    
C48   C63   A    
C75   O23   D    
O5    V1    S    
O8    C3    A    
C50   H35   S    
O15   V3    S    
H19   C40   S    
C57   H31   S    
C71   H42   S    
C54   C58   A    
C35   C39   S    
C20   C21   A    
C74   O22   D    
C69   H38   S    
C59   H34   S    
O4    V1    S    
O3    V1    S    
V1    O10   S    
C74   H51   S    
C43   H25   S    
C28   H17   S    
C5    C67   S    
C43   H26   S    
C9    H6    S    
C64   H32   S    
C25   H13   S    
C35   H20   S    
C36   C39   S    
C30   H15   S    
H9    C28   S    
C58   C59   A    
C61   C64   A    
C22   H2    S    
O14   V3    S    
C47   C51   A    
C60   C61   A    
C6    C21   A    
C21   H3    S    
C51   H36   S    
C49   C53   A    
C62   H37   S    
C24   H11   S    
C26   C32   T    
C1    C46   S    
C75   H52   S    
C23   H16   S    
C56   C57   A    
C70   H40   S    
C20   H8    S    
C10   C11   A    
O17   V3    S    
O9    C4    A    
C24   C69   S    
O11   C66   A    
C27   C31   S    
O7    V2    S    
O18   C67   A    
C29   C32   S    
C5    C9    A    
