data_mof_unit_43362.cif
_audit_creation_date              2012-12-10T17:46:29-0500
_audit_creation_method            fapswitch 2.2
_symmetry_space_group_name_H-M    P1
_symmetry_Int_Tables_number       1
_space_group_crystal_system       triclinic
_cell_length_a                    20.959497
_cell_length_b                    22.107974
_cell_length_c                    14.702212
_cell_angle_alpha                 90.358316
_cell_angle_beta                  129.601733
_cell_angle_gamma                 89.217237
_cell_volume                      5248.54574777

loop_
_atom_site_label
_atom_site_type_symbol
_atom_type_description
_atom_site_fract_x
_atom_site_fract_y
_atom_site_fract_z
_atom_type_partial_charge
C1    C     C_R   0.603758 0.914667 0.633159 0.847829
C2    C     C_R   0.397320 0.086088 0.368298 0.840427
C3    C     C_R   0.394332 0.916425 0.363725 0.835649
C4    C     C_R   0.602885 0.085727 0.632900 0.841447
C5    C     C_R   0.103760 0.414666 0.633160 0.847835
C6    C     C_R   0.897323 0.586089 0.368301 0.840420
C7    C     C_R   0.894327 0.416431 0.363717 0.835617
C8    C     C_R   0.102888 0.585726 0.632903 0.841429
C9    C     C_R   0.328179 0.774814 0.926275 0.091226
C10   C     C_R   0.636807 0.251291 0.028391 0.078524
C11   C     C_R   0.746988 0.810925 0.149829 0.051986
C12   C     C_R   0.261673 0.194727 0.863193 0.047761
C13   C     C_R   0.828078 0.274866 0.926124 0.091213
C14   C     C_R   0.136889 0.751190 0.028513 0.078546
C15   C     C_R   0.246978 0.310916 0.149810 0.052006
C16   C     C_R   0.761664 0.694729 0.863198 0.047763
C17   C     C_R   0.319923 0.996913 0.657441 -0.334904
C18   C     C_R   0.680746 0.999656 0.343461 -0.328897
C19   C     C_R   0.819922 0.496912 0.657439 -0.334897
C20   C     C_R   0.180746 0.499640 0.343461 -0.328911
C21   C     C_R   0.350440 0.999510 0.597192 0.066610
C22   C     C_R   0.649657 0.998242 0.403160 0.069494
C23   C     C_R   0.850440 0.499514 0.597192 0.066666
C24   C     C_R   0.149657 0.498236 0.403160 0.069490
C25   C     C_R   0.488806 0.996548 0.777192 0.023130
C26   C     C_R   0.511915 0.004007 0.222920 0.013102
C27   C     C_R   0.988806 0.496537 0.777191 0.023088
C28   C     C_R   0.011916 0.504005 0.222919 0.013113
C29   C     C_R   0.461955 0.996238 0.844190 -0.029941
C30   C     C_R   0.539222 0.002145 0.156409 -0.026686
C31   C     C_R   0.961955 0.496219 0.844189 -0.029948
C32   C     C_R   0.039223 0.502130 0.156409 -0.026761
C33   C     C_R   0.375345 0.996478 0.780906 0.161804
C34   C     C_R   0.625756 0.000798 0.219984 0.162529
C35   C     C_R   0.875345 0.496466 0.780904 0.161794
C36   C     C_R   0.125756 0.500777 0.219984 0.162556
C37   C     C_R   0.517215 0.996916 0.970284 0.082969
C38   C     C_R   0.484325 0.000869 0.030457 0.080688
C39   C     C_R   0.017215 0.496889 0.970283 0.082974
C40   C     C_R   0.984325 0.500850 0.030456 0.080679
C41   C     C_R   0.397682 0.003615 0.962641 -0.247286
C42   C     C_R   0.603984 0.995334 0.038112 -0.240937
C43   C     C_R   0.897684 0.503608 0.962640 -0.247178
C44   C     C_R   0.103984 0.495300 0.038111 -0.240972
C45   C     C_R   0.344548 0.998330 0.841006 -0.207549
C46   C     C_R   0.656818 0.999714 0.160112 -0.209415
C47   C     C_R   0.844547 0.498323 0.841005 -0.207598
C48   C     C_R   0.156818 0.499684 0.160111 -0.209338
C49   C     C_R   0.656959 0.137651 0.703310 -0.118852
C50   C     C_R   0.327898 0.873606 0.278077 -0.112925
C51   C     C_R   0.345596 0.139922 0.303338 -0.104209
C52   C     C_R   0.659720 0.863371 0.704074 -0.104651
C53   C     C_R   0.156987 0.637637 0.703341 -0.118890
C54   C     C_R   0.827871 0.373636 0.278027 -0.112906
C55   C     C_R   0.845609 0.639928 0.303352 -0.104213
C56   C     C_R   0.159724 0.363369 0.704075 -0.104652
C57   C     C_R   0.743964 0.219894 0.727038 0.098784
C58   C     C_R   0.197223 0.825946 0.197501 0.093582
C59   C     C_R   0.281465 0.233131 0.297685 0.097018
C60   C     C_R   0.734443 0.773785 0.722275 0.096053
C61   C     C_R   0.244111 0.719818 0.727188 0.098844
C62   C     C_R   0.697095 0.326095 0.197251 0.093560
C63   C     C_R   0.781497 0.733143 0.297723 0.097025
C64   C     C_R   0.234459 0.273789 0.722282 0.096035
C65   C     C_R   0.689442 0.171524 0.661803 -0.228673
C66   C     C_R   0.269654 0.856326 0.289709 -0.229133
C67   C     C_R   0.331697 0.182359 0.359721 -0.258160
C68   C     C_R   0.682199 0.822911 0.655517 -0.256290
C69   C     C_R   0.189505 0.671498 0.661872 -0.228631
C70   C     C_R   0.769547 0.356423 0.289542 -0.229197
C71   C     C_R   0.831730 0.682370 0.359752 -0.258174
C72   C     C_R   0.182218 0.322917 0.655526 -0.256252
C73   C     C_R   0.672478 0.156030 0.807100 0.103298
C74   C     C_R   0.313372 0.857476 0.174220 0.091951
C75   C     C_R   0.306354 0.148309 0.183781 0.075989
C76   C     C_R   0.695685 0.856313 0.822912 0.076038
C77   C     C_R   0.172532 0.655997 0.807154 0.103264
C78   C     C_R   0.813377 0.357501 0.174192 0.091928
C79   C     C_R   0.806358 0.648316 0.183793 0.075989
C80   C     C_R   0.195687 0.356308 0.822910 0.076046
C81   C     C_R   0.710946 0.211612 0.859332 0.010339
C82   C     C_R   0.261123 0.809118 0.105691 0.019658
C83   C     C_R   0.281330 0.207241 0.135210 0.012364
C84   C     C_R   0.724526 0.798155 0.875728 0.012773
C85   C     C_R   0.211024 0.711568 0.859419 0.010344
C86   C     C_R   0.761087 0.309169 0.105611 0.019667
C87   C     C_R   0.781341 0.707250 0.135229 0.012383
C88   C     C_R   0.224526 0.298149 0.875719 0.012788
C89   C     C_R   0.761338 0.237044 0.835777 0.033748
C90   C     C_R   0.197515 0.794404 0.111363 0.048224
C91   C     C_R   0.269328 0.251142 0.194621 0.066574
C92   C     C_R   0.741072 0.754927 0.820434 0.064716
C93   C     C_R   0.261452 0.736985 0.835908 0.033742
C94   C     C_R   0.697435 0.294505 0.111210 0.048391
C95   C     C_R   0.769347 0.751153 0.194647 0.066549
C96   C     C_R   0.241080 0.254925 0.820431 0.064713
C97   C     C_R   0.705380 0.239746 0.941381 0.058458
C98   C     C_R   0.266141 0.780369 0.023310 0.052338
C99   C     C_R   0.268246 0.223403 0.030324 0.058191
C100  C     C_R   0.736765 0.781692 0.979993 0.058123
C101  C     C_R   0.205445 0.739697 0.941464 0.058437
C102  C     C_R   0.766092 0.280414 0.023225 0.052323
C103  C     C_R   0.768251 0.723410 0.030338 0.058181
C104  C     C_R   0.236760 0.281685 0.979979 0.058128
C105  C     C_R   0.332315 0.790315 0.023214 -0.165396
C106  C     C_R   0.638929 0.229045 0.940322 -0.175592
C107  C     C_R   0.719250 0.822003 0.036102 -0.211402
C108  C     C_R   0.284796 0.182416 0.973835 -0.213491
C109  C     C_R   0.832254 0.290358 0.023099 -0.165395
C110  C     C_R   0.138999 0.728982 0.940408 -0.175530
C111  C     C_R   0.219247 0.321997 0.036088 -0.211426
C112  C     C_R   0.784792 0.682420 0.973843 -0.213468
Cu1   Cu    Cu3+1 0.526640 1.000000 0.436960 0.959554
Cu2   Cu    Cu3+1 0.473360 0.000000 0.563040 0.960023
Cu3   Cu    Cu3+1 0.026640 0.500000 0.436960 0.959559
Cu4   Cu    Cu3+1 0.973360 0.500000 0.563040 0.960006
H1    H     H_    0.368694 0.012671 0.000455 0.181763
H2    H     H_    0.633411 0.990018 0.999773 0.182532
H3    H     H_    0.868699 0.512681 0.000452 0.181752
H4    H     H_    0.133410 0.489978 0.999771 0.182511
H5    H     H_    0.275915 0.873466 0.363911 0.165156
H6    H     H_    0.673300 0.158043 0.578902 0.163394
H7    H     H_    0.664536 0.832382 0.570018 0.159697
H8    H     H_    0.353779 0.173178 0.447902 0.159385
H9    H     H_    0.775752 0.373596 0.363682 0.165236
H10   H     H_    0.173334 0.658035 0.578945 0.163377
H11   H     H_    0.164561 0.332394 0.570034 0.159685
H12   H     H_    0.853819 0.673189 0.447937 0.159397
H13   H     H_    0.386083 0.812753 0.098423 0.158070
H14   H     H_    0.588381 0.202271 0.869409 0.158746
H15   H     H_    0.687937 0.864419 0.995501 0.175303
H16   H     H_    0.312785 0.138844 0.012647 0.174811
H17   H     H_    0.886032 0.312794 0.098295 0.158074
H18   H     H_    0.088453 0.702213 0.869478 0.158761
H19   H     H_    0.187945 0.364417 0.995493 0.175311
H20   H     H_    0.812773 0.638846 0.012650 0.174816
H21   H     H_    0.278493 0.998552 0.793268 0.161068
H22   H     H_    0.722920 0.000850 0.208434 0.159848
H23   H     H_    0.778492 0.498555 0.793265 0.161070
H24   H     H_    0.222921 0.500819 0.208433 0.159834
H25   H     H_    0.448114 0.008999 0.183266 0.163401
H26   H     H_    0.552907 0.994089 0.816654 0.164660
H27   H     H_    0.948117 0.509007 0.183266 0.163401
H28   H     H_    0.052907 0.494076 0.816654 0.164656
H29   H     H_    0.691690 0.996360 0.498586 0.133356
H30   H     H_    0.308131 0.000580 0.501703 0.125996
H31   H     H_    0.191690 0.496356 0.498586 0.133343
H32   H     H_    0.808131 0.500591 0.501703 0.125949
H33   H     H_    0.253603 0.996260 0.607993 0.142535
H34   H     H_    0.747129 0.998888 0.393314 0.143809
H35   H     H_    0.753603 0.496265 0.607992 0.142502
H36   H     H_    0.247129 0.498868 0.393314 0.143798
N1    N     N_R   0.433280 0.000000 0.657760 -0.181368
N2    N     N_R   0.566720 0.000000 0.342240 -0.182471
N3    N     N_R   0.933280 0.500000 0.657760 -0.181359
N4    N     N_R   0.066720 0.500000 0.342240 -0.182461
O1    O     O_R   0.600040 0.935040 0.546740 -0.593793
O2    O     O_R   0.399960 0.064960 0.453260 -0.594496
O3    O     O_R   0.399960 0.935040 0.453260 -0.598729
O4    O     O_R   0.600040 0.064960 0.546740 -0.598972
O5    O     O_R   0.100040 0.435040 0.546740 -0.593786
O6    O     O_R   0.899960 0.564960 0.453260 -0.594517
O7    O     O_R   0.899960 0.435040 0.453260 -0.598714
O8    O     O_R   0.100040 0.564960 0.546740 -0.598969
O9    O     O_R   0.555010 0.935070 0.653220 -0.566064
O10   O     O_R   0.444990 0.064930 0.346780 -0.570872
O11   O     O_R   0.444990 0.935070 0.346780 -0.553951
O12   O     O_R   0.555010 0.064930 0.653220 -0.554283
O13   O     O_R   0.055010 0.435070 0.653220 -0.566061
O14   O     O_R   0.944990 0.564930 0.346780 -0.570866
O15   O     O_R   0.944990 0.435070 0.346780 -0.553942
O16   O     O_R   0.055010 0.564930 0.653220 -0.554289
C113  C     C_3   0.398496 0.793795 0.927025 -0.415449
C114  C     C_3   0.470886 0.828713 0.034908 -0.353869
C115  C     C_3   0.536430 0.842241 0.022922 -0.836134
H37   H     H_    0.564823 0.799477 0.022831 0.258348
H38   H     H_    0.508726 0.867389 0.939891 0.262304
H39   H     H_    0.585480 0.870274 0.098505 0.246724
H40   H     H_    0.447977 0.872247 0.043398 0.251588
H41   H     H_    0.500613 0.801550 0.115994 0.215841
H42   H     H_    0.425266 0.752137 0.919878 0.207192
H43   H     H_    0.372990 0.824689 0.851820 0.207304
C116  C     C_3   0.572789 0.226655 0.036248 -0.432012
C117  C     C_3   0.529520 0.167594 0.970987 -0.341420
C118  C     C_3   0.471341 0.149132 0.994490 -0.858405
H44   H     H_    0.507211 0.130710 0.085304 0.263159
H45   H     H_    0.433660 0.188337 0.984438 0.254829
H46   H     H_    0.428354 0.114651 0.929359 0.256659
H47   H     H_    0.491326 0.173579 0.874252 0.216506
H48   H     H_    0.575970 0.130951 0.001236 0.263344
H49   H     H_    0.604980 0.217039 0.130584 0.212040
H50   H     H_    0.522803 0.260822 0.000095 0.198849
C119  C     C_3   0.768510 0.865827 0.227329 -0.404678
C120  C     C_3   0.862166 0.868489 0.330720 -0.322620
C121  C     C_3   0.884464 0.923959 0.407636 -0.860008
H51   H     H_    0.866474 0.966045 0.355117 0.257120
H52   H     H_    0.852772 0.922570 0.445806 0.247592
H53   H     H_    0.952374 0.924360 0.481126 0.249795
H54   H     H_    0.883634 0.827703 0.387455 0.219710
H55   H     H_    0.895989 0.870097 0.295627 0.231783
H56   H     H_    0.751491 0.907508 0.174405 0.216311
H57   H     H_    0.733379 0.868210 0.259734 0.187544
C122  C     C_3   0.244293 0.140783 0.785492 -0.403166
C123  C     C_3   0.152087 0.138552 0.675631 -0.312814
C124  C     C_3   0.134015 0.085614 0.595598 -0.871055
H58   H     H_    0.171612 0.089055 0.566794 0.249805
H59   H     H_    0.147639 0.042042 0.642210 0.255163
H60   H     H_    0.067496 0.086588 0.516025 0.250507
H61   H     H_    0.114043 0.134153 0.703655 0.236231
H62   H     H_    0.132557 0.180714 0.622971 0.219180
H63   H     H_    0.283647 0.139938 0.759886 0.190831
H64   H     H_    0.259294 0.098169 0.835378 0.214017
C125  C     C_3   0.898368 0.293836 0.926805 -0.415381
C126  C     C_3   0.970837 0.328671 0.034750 -0.353875
C127  C     C_3   0.036368 0.342177 0.022725 -0.836059
H65   H     H_    0.064706 0.299404 0.022549 0.258362
H66   H     H_    0.008667 0.367356 0.939725 0.262291
H67   H     H_    0.085461 0.370176 0.098337 0.246693
H68   H     H_    0.948015 0.372210 0.043380 0.251536
H69   H     H_    0.000543 0.301452 0.115767 0.215846
H70   H     H_    0.925054 0.252180 0.919492 0.207212
H71   H     H_    0.872859 0.324779 0.851661 0.207278
C128  C     C_3   0.072903 0.726502 0.036387 -0.431833
C129  C     C_3   0.029444 0.667550 0.970783 -0.341641
C130  C     C_3   0.971259 0.649064 0.994257 -0.858437
H72   H     H_    0.007120 0.630591 0.085032 0.263206
H73   H     H_    0.933617 0.688272 0.984302 0.254813
H74   H     H_    0.928243 0.614618 0.929052 0.256667
H75   H     H_    0.991226 0.673681 0.874075 0.216514
H76   H     H_    0.075781 0.630853 0.000780 0.263354
H77   H     H_    0.105172 0.716721 0.130694 0.211992
H78   H     H_    0.023005 0.760709 0.000530 0.198900
C131  C     C_3   0.268508 0.365818 0.227318 -0.404708
C132  C     C_3   0.362162 0.368465 0.330730 -0.322601
C133  C     C_3   0.384462 0.423932 0.407656 -0.860017
H79   H     H_    0.366486 0.466021 0.355147 0.257119
H80   H     H_    0.352760 0.422545 0.445810 0.247589
H81   H     H_    0.452371 0.424326 0.481156 0.249792
H82   H     H_    0.383611 0.327676 0.387455 0.219715
H83   H     H_    0.395998 0.370068 0.295660 0.231747
H84   H     H_    0.251514 0.407498 0.174405 0.216308
H85   H     H_    0.233362 0.368212 0.259699 0.187552
C134  C     C_3   0.744274 0.640786 0.785493 -0.403189
C135  C     C_3   0.652062 0.638550 0.675655 -0.312809
C136  C     C_3   0.633972 0.585596 0.595643 -0.871043
H86   H     H_    0.671555 0.589019 0.566814 0.249787
H87   H     H_    0.647601 0.542033 0.642284 0.255180
H88   H     H_    0.567449 0.586568 0.516085 0.250501
H89   H     H_    0.614034 0.634169 0.703707 0.236237
H90   H     H_    0.632528 0.680705 0.622972 0.219167
H91   H     H_    0.783608 0.639948 0.759852 0.190808
H92   H     H_    0.759294 0.598172 0.835386 0.214029
I1    I     I_    0.314182 0.926875 0.076640 -0.431654
I2    I     I_    0.677127 0.090594 0.917263 -0.429092
I3    I     I_    0.755083 0.935527 0.926855 -0.430410
I4    I     I_    0.232635 0.074467 0.073702 -0.399901
I5    I     I_    0.814177 0.426913 0.076633 -0.431701
I6    I     I_    0.177184 0.590541 0.917292 -0.429089
I7    I     I_    0.255137 0.435504 0.926875 -0.430565
I8    I     I_    0.732604 0.574486 0.073709 -0.400058
C137  C     C_3   0.276436 0.754875 0.674729 -0.417118
C138  C     C_3   0.238730 0.740112 0.546870 -0.364531
C139  C     C_3   0.275683 0.779846 0.506818 -0.845675
H93   H     H_    0.263681 0.828346 0.511571 0.246581
H94   H     H_    0.343584 0.771909 0.563363 0.259803
H95   H     H_    0.247160 0.768372 0.414486 0.248727
H96   H     H_    0.252626 0.692287 0.540584 0.223519
H97   H     H_    0.170542 0.747733 0.486552 0.222322
H98   H     H_    0.263297 0.803642 0.675482 0.203215
H99   H     H_    0.343649 0.745998 0.728372 0.203611
C140  C     C_3   0.618451 0.337181 0.182077 -0.418493
C141  C     C_3   0.617499 0.394271 0.242124 -0.370275
C142  C     C_3   0.531280 0.406464 0.203216 -0.786603
H100  H     H_    0.485871 0.414950 0.106576 0.273108
H101  H     H_    0.510804 0.367244 0.225408 0.249621
H102  H     H_    0.532845 0.447021 0.249523 0.244996
H103  H     H_    0.660730 0.388431 0.339413 0.209478
H104  H     H_    0.636374 0.434260 0.219092 0.243181
H105  H     H_    0.566980 0.344685 0.086716 0.214516
H106  H     H_    0.606261 0.297899 0.215274 0.191745
C143  C     C_3   0.732328 0.760343 0.331908 -0.414318
C144  C     C_3   0.697089 0.711585 0.363380 -0.324452
C145  C     C_3   0.631615 0.737298 0.368759 -0.859371
H107  H     H_    0.652092 0.780624 0.417602 0.251121
H108  H     H_    0.572616 0.744852 0.278552 0.249887
H109  H     H_    0.620079 0.704555 0.413710 0.243998
H110  H     H_    0.668652 0.674819 0.296581 0.238969
H111  H     H_    0.747697 0.691442 0.450760 0.208258
H112  H     H_    0.772240 0.791437 0.407790 0.200100
H113  H     H_    0.678138 0.785728 0.255632 0.213199
C146  C     C_3   0.290309 0.248701 0.698129 -0.418284
C147  C     C_3   0.329168 0.299009 0.675687 -0.324427
C148  C     C_3   0.398372 0.274732 0.677232 -0.867599
H114  H     H_    0.453565 0.263164 0.768762 0.255709
H115  H     H_    0.378087 0.234082 0.620627 0.250764
H116  H     H_    0.416150 0.310034 0.643910 0.248047
H117  H     H_    0.281337 0.320412 0.588374 0.211499
H118  H     H_    0.355145 0.334522 0.744577 0.235028
H119  H     H_    0.342730 0.223383 0.776735 0.212023
H120  H     H_    0.254624 0.217754 0.621379 0.203765
C149  C     C_3   0.776127 0.255045 0.674453 -0.417080
C150  C     C_3   0.738222 0.240373 0.546483 -0.364433
C151  C     C_3   0.774865 0.280284 0.506187 -0.845864
H121  H     H_    0.762596 0.328735 0.510814 0.246613
H122  H     H_    0.842803 0.272552 0.562649 0.259862
H123  H     H_    0.746334 0.268774 0.413871 0.248702
H124  H     H_    0.752206 0.192596 0.540066 0.223467
H125  H     H_    0.670018 0.247889 0.486387 0.222354
H126  H     H_    0.762998 0.303798 0.675368 0.203303
H127  H     H_    0.843330 0.246194 0.727908 0.203507
C152  C     C_3   0.118649 0.836882 0.182579 -0.418354
C153  C     C_3   0.117749 0.893780 0.243083 -0.370274
C154  C     C_3   0.031576 0.905831 0.204436 -0.787082
H128  H     H_    0.986082 0.914487 0.107862 0.273171
H129  H     H_    0.011167 0.866479 0.226441 0.249494
H130  H     H_    0.033181 0.946245 0.251072 0.244902
H131  H     H_    0.161060 0.887768 0.340334 0.209619
H132  H     H_    0.136543 0.933906 0.220243 0.242986
H133  H     H_    0.067127 0.844535 0.087286 0.214514
H134  H     H_    0.106516 0.797474 0.215587 0.191783
C155  C     C_3   0.232299 0.260340 0.331868 -0.414345
C156  C     C_3   0.197022 0.211588 0.363292 -0.324464
C157  C     C_3   0.131611 0.237332 0.368777 -0.859329
H135  H     H_    0.152185 0.280617 0.417755 0.251128
H136  H     H_    0.072619 0.244976 0.278604 0.249864
H137  H     H_    0.120022 0.204571 0.413640 0.244015
H138  H     H_    0.168519 0.174856 0.296422 0.238987
H139  H     H_    0.247618 0.191397 0.450627 0.208251
H140  H     H_    0.272221 0.291420 0.407771 0.200138
H141  H     H_    0.178123 0.285740 0.255602 0.213188
C158  C     C_3   0.790296 0.748702 0.698126 -0.418290
C159  C     C_3   0.829121 0.799014 0.675630 -0.324359
C160  C     C_3   0.898386 0.774763 0.677287 -0.867590
H142  H     H_    0.953605 0.763309 0.768872 0.255732
H143  H     H_    0.878201 0.734051 0.620858 0.250733
H144  H     H_    0.916084 0.810041 0.643818 0.248034
H145  H     H_    0.781280 0.820365 0.588265 0.211491
H146  H     H_    0.855032 0.834563 0.744439 0.235079
H147  H     H_    0.842729 0.723398 0.776746 0.212044
H148  H     H_    0.754621 0.717741 0.621399 0.203705

loop_
_geom_bond_atom_site_label_1
_geom_bond_atom_site_label_2
_ccdc_geom_bond_type
C23   N3    A    
C33   C45   A    
C128  C129  S    
C53   C69   A    
C79   C87   A    
C115  H38   S    
C149  C150  S    
C144  C145  S    
C64   C146  S    
C10   C94   A    
C140  C141  S    
C29   C33   A    
C130  H74   S    
C119  H56   S    
C135  C136  S    
C30   C38   A    
C106  H14   S    
C12   C122  S    
C13   C125  S    
C37   C42   A    
C76   I3    S    
C14   C90   A    
Cu4   O7    S    
C40   C43   A    
C146  C147  S    
C141  C142  S    
C56   C72   A    
C6    C55   S    
C60   C158  S    
C121  H53   S    
C140  H105  S    
C35   C47   A    
C6    O6    A    
C136  H86   S    
C129  C130  S    
C82   C98   A    
C147  H117  S    
C73   C81   A    
C25   C29   A    
C27   C31   A    
C157  H135  S    
C84   C100  A    
C28   C32   A    
C151  H122  S    
Cu1   O10   S    
C12   C108  A    
C30   C34   A    
C101  C110  A    
C160  H142  S    
C7    O7    A    
C17   C21   A    
C4    O12   A    
C103  C112  A    
C5    O5    A    
C19   C23   A    
C116  C117  S    
C37   C38   A    
C125  H71   S    
C151  H121  S    
C54   C70   A    
C152  H134  S    
C59   C91   A    
C65   H6    S    
C87   C103  A    
C63   C71   A    
C113  H43   S    
C49   C73   A    
C71   H12   S    
C155  C156  S    
C39   C40   A    
C128  H78   S    
C160  H144  S    
C139  H94   S    
C141  H104  S    
C11   C119  S    
C154  H130  S    
C83   C91   A    
C23   H32   S    
C4    C49   S    
C21   H30   S    
C61   C137  S    
C80   C88   A    
C115  H37   S    
C126  H69   S    
C129  H75   S    
C158  H147  S    
C78   I5    S    
C15   C91   A    
C73   I2    S    
C119  C120  S    
C136  H88   S    
C21   N1    A    
C102  C109  A    
C19   C35   A    
Cu1   O1    S    
C18   H34   S    
C43   C47   A    
C55   C71   A    
C24   N4    A    
C150  H125  S    
C25   H26   S    
C75   C83   A    
C142  H102  S    
C154  H128  S    
C3    O11   A    
C99   C108  A    
C62   C70   A    
C32   C36   A    
C50   C74   A    
C137  C138  S    
C118  H45   S    
C9    C105  A    
Cu3   Cu4   S    
C117  C118  S    
C114  C115  S    
C13   C109  A    
C59   C67   A    
C85   C93   A    
C156  H139  S    
C120  H54   S    
C87   C95   A    
C19   H35   S    
C9    C113  S    
C34   C46   A    
C131  C132  S    
C137  H98   S    
C77   C85   A    
C144  H110  S    
C145  H109  S    
C3    O3    A    
C122  H63   S    
C155  H140  S    
C112  H20   S    
Cu3   O14   S    
C68   H7    S    
C88   C104  A    
C3    C50   S    
C142  H100  S    
C60   C92   A    
C134  H91   S    
C135  H89   S    
C48   H24   S    
C72   H11   S    
C14   C128  S    
C159  C160  S    
C64   C96   A    
C38   C41   A    
C8    O8    A    
C127  H67   S    
C138  H96   S    
C51   C67   A    
C121  H51   S    
C157  H136  S    
Cu3   O5    S    
C62   C94   A    
C148  H114  S    
C50   C66   A    
C80   I7    S    
C132  H83   S    
C146  H120  S    
C149  H127  S    
C26   C30   A    
C133  H81   S    
C117  H48   S    
C110  H18   S    
C29   C37   A    
C86   C102  A    
C114  H41   S    
Cu2   O9    S    
C6    O14   A    
C14   C110  A    
C41   C45   A    
C18   C22   A    
C52   C76   A    
C24   H31   S    
C159  H145  S    
C39   C44   A    
C62   C140  S    
C56   C80   A    
C130  H73   S    
C99   C104  A    
C153  H132  S    
C108  H16   S    
C10   C106  A    
C44   C48   A    
C131  H85   S    
C123  C124  S    
C145  H107  S    
C84   C92   A    
C41   H1    S    
C43   H3    S    
C121  H52   S    
C88   C96   A    
C7    O15   A    
Cu3   N4    S    
C5    C56   S    
C147  H118  S    
Cu1   N2    S    
C152  C153  S    
C116  H50   S    
C76   C84   A    
C139  H93   S    
C125  C126  S    
C57   C89   A    
C148  H116  S    
C61   C93   A    
C44   H4    S    
C11   C95   A    
C134  C135  S    
C63   C95   A    
Cu4   O16   S    
C42   C46   A    
Cu2   O2    S    
C125  H70   S    
C152  H133  S    
C123  H61   S    
C133  H79   S    
C115  H39   S    
C26   H25   S    
C2    O10   A    
C97   C102  A    
C143  H113  S    
C81   C89   A    
C156  C157  S    
C113  H42   S    
C83   C99   A    
C10   C116  S    
C17   C33   A    
C74   C82   A    
C57   C149  S    
C128  H77   S    
C151  H123  S    
C160  H143  S    
C27   N3    A    
C25   N1    A    
Cu3   O15   S    
C42   H2    S    
C113  C114  S    
C109  H17   S    
C150  H124  S    
C100  C103  A    
C155  H141  S    
C20   H36   S    
C8    C53   S    
C53   C77   A    
C158  C159  S    
C129  H76   S    
C55   C79   A    
C2    O2    A    
C27   H28   S    
C66   H5    S    
C28   H27   S    
C58   C90   A    
C138  C139  S    
C135  H90   S    
C97   C106  A    
C70   H9    S    
C140  H106  S    
C16   C92   A    
C136  H87   S    
C31   C35   A    
C132  C133  S    
C16   C112  A    
Cu1   Cu2   S    
C57   C65   A    
C58   C152  S    
Cu1   O11   S    
Cu2   O12   S    
C98   C101  A    
C82   C90   A    
C120  C121  S    
C111  H19   S    
C118  H44   S    
C1    C52   S    
C74   I1    S    
C154  H129  S    
C2    C51   S    
C119  H57   S    
C20   C36   A    
C60   C68   A    
C47   H23   S    
C5    O13   A    
C12   C96   A    
C7    C54   S    
C8    O16   A    
C54   C78   A    
C139  H95   S    
C122  C123  S    
C144  H111  S    
C141  H103  S    
C145  H108  S    
C127  H65   S    
C67   H8    S    
C124  H58   S    
C153  C154  S    
C98   C105  A    
C49   C65   A    
C79   I8    S    
Cu4   O6    S    
C147  C148  S    
C51   C75   A    
C126  H68   S    
C127  H66   S    
C138  H97   S    
C158  H148  S    
Cu3   O8    S    
Cu4   N3    S    
C86   C94   A    
C142  H101  S    
C58   C66   A    
C20   C24   A    
C36   C48   A    
C146  H119  S    
Cu2   N1    S    
C52   C68   A    
C46   H22   S    
C78   C86   A    
C32   C40   A    
C149  H126  S    
C59   C155  S    
C133  H80   S    
C120  H55   S    
C15   C111  A    
C107  H15   S    
C75   I4    S    
C159  H146  S    
C126  C127  S    
C118  H46   S    
C105  H13   S    
C143  C144  S    
C156  H138  S    
C22   H29   S    
C1    O9    A    
C15   C131  S    
C45   H21   S    
C130  H72   S    
C18   C34   A    
C137  H99   S    
C131  H84   S    
C77   I6    S    
C11   C107  A    
C122  H64   S    
C26   N2    A    
C9    C93   A    
C85   C101  A    
C63   C143  S    
C22   N2    A    
C124  H60   S    
C61   C69   A    
C150  C151  S    
C100  C107  A    
C134  H92   S    
C13   C89   A    
C117  H47   S    
C17   H33   S    
C116  H49   S    
C69   H10   S    
C104  C111  A    
C157  H137  S    
C1    O1    A    
C148  H115  S    
C4    O4    A    
C81   C97   A    
C31   C39   A    
Cu4   O13   S    
C132  H82   S    
C64   C72   A    
Cu1   O4    S    
Cu2   O3    S    
C16   C134  S    
C123  H62   S    
C28   N4    A    
C153  H131  S    
C124  H59   S    
C114  H40   S    
C143  H112  S    
