data_mof_unit_9881.cif
_audit_creation_date              2012-12-10T17:03:00-0500
_audit_creation_method            fapswitch 2.2
_symmetry_space_group_name_H-M    P1
_symmetry_Int_Tables_number       1
_space_group_crystal_system       triclinic
_cell_length_a                    9.821223
_cell_length_b                    11.043774
_cell_length_c                    13.412651
_cell_angle_alpha                 94.861536
_cell_angle_beta                  81.712385
_cell_angle_gamma                 111.152751
_cell_volume                      1341.74712847

loop_
_atom_site_label
_atom_site_type_symbol
_atom_type_description
_atom_site_fract_x
_atom_site_fract_y
_atom_site_fract_z
_atom_type_partial_charge
C1    C     C_R   0.556492 0.745453 0.507327 0.851041
C2    C     C_R   0.451619 0.536628 0.974725 0.072523
C3    C     C_R   0.493766 0.555064 0.869841 0.079754
C4    C     C_R   0.562548 0.574060 0.040418 0.093759
C5    C     C_R   0.710719 0.602392 0.999002 0.125793
C6    C     C_R   0.751917 0.635515 0.898571 -0.238248
C7    C     C_R   0.644576 0.622721 0.837098 -0.180582
C8    C     C_R   0.532268 0.581826 0.146074 -0.083910
C9    C     C_R   0.770065 0.567176 0.160296 -0.144094
C10   C     C_R   0.385350 0.501460 0.801889 -0.105270
C11   C     C_2   0.588333 0.884618 0.511237 -0.353874
C12   C     C_R   0.425351 0.496519 0.691148 0.802869
C13   C     C_2   0.484277 0.930465 0.497880 -0.127743
C14   C     C_2   0.411618 0.115327 0.488671 -0.342819
C15   C     C_2   0.515768 0.069429 0.501696 -0.151306
C16   C     C_2   0.917299 0.478557 0.502386 -0.174976
C17   C     C_2   0.077324 0.507165 0.513867 0.562624
C18   C     C_R   0.443480 0.254541 0.492706 0.878200
C19   C     C_R   0.579209 0.522984 0.310708 0.789797
C20   C     C_R   0.814630 0.599979 0.059553 -0.168718
C21   C     C_R   0.627807 0.556668 0.204482 -0.155685
C22   C     C_R   0.237873 0.438767 0.840715 -0.326558
C23   C     C_R   0.195238 0.425518 0.944157 0.039011
C24   C     C_R   0.302343 0.470605 0.010208 -0.081626
Cu1   Cu    Cu3+1 0.362000 0.479240 0.482530 0.976445
Cu2   Cu    Cu3+1 0.638000 0.520760 0.517470 0.942447
H1    H     H_    0.848104 0.555047 0.204372 0.185892
H2    H     H_    0.374858 0.865297 0.484034 0.200836
H3    H     H_    0.302302 0.049887 0.475022 0.155168
H4    H     H_    0.697555 0.950070 0.525073 0.149835
H5    H     H_    0.860704 0.393328 0.457728 0.144282
H6    H     H_    0.101750 0.378899 0.404535 0.151864
H7    H     H_    0.905042 0.640887 0.573809 0.220485
H8    H     H_    0.866976 0.673162 0.868067 0.137102
H9    H     H_    0.927606 0.616848 0.027874 0.156254
H10   H     H_    0.155815 0.394608 0.789892 0.144393
H11   H     H_    0.268931 0.449393 0.089159 0.177732
H12   H     H_    0.683586 0.663546 0.763720 0.173744
H13   H     H_    0.625274 0.134581 0.515359 0.176753
N1    N     N_2   0.845330 0.551960 0.543750 -0.284592
N2    N     N_2   0.154690 0.448120 0.456210 -0.321443
O1    O     O_R   0.426290 0.668220 0.490680 -0.538686
O2    O     O_R   0.659360 0.703290 0.520190 -0.591831
O3    O     O_R   0.326580 0.473880 0.629020 -0.544978
O4    O     O_R   0.559660 0.508940 0.658530 -0.585073
O5    O     O_R   0.340640 0.296710 0.479810 -0.574832
O6    O     O_R   0.573710 0.331780 0.509320 -0.573867
O7    O     O_R   0.440340 0.491060 0.341470 -0.595397
O8    O     O_R   0.673420 0.526120 0.370980 -0.565054
O9    O     O_3   0.147124 0.602682 0.582661 -0.544787
C25   C     C_3   0.077843 0.572442 0.682075 -0.285518
H14   H     H_    0.019471 0.466408 0.693323 0.135364
H15   H     H_    0.001048 0.625116 0.705719 0.138293
H16   H     H_    0.163352 0.608627 0.733905 0.192128
C26   C     C_2   0.430671 0.650494 0.193021 0.347954
H17   H     H_    0.415406 0.668682 0.273651 0.113703
O10   O     O_2   0.371224 0.697771 0.141348 -0.541772
C27   C     C_2   0.038238 0.359407 0.981730 0.347830
H18   H     H_    0.957381 0.322394 0.928894 0.067417
O11   O     O_2   0.996940 0.346217 0.071815 -0.548052

loop_
_geom_bond_atom_site_label_1
_geom_bond_atom_site_label_2
_ccdc_geom_bond_type
C17   O9    S    
Cu1   O1    S    
C23   C27   S    
C2    C4    A    
H6    N2    S    
C13   H2    S    
C6    C7    A    
C12   O4    A    
C22   H10   S    
C14   C18   S    
C9    C20   A    
C1    C11   S    
C4    C8    A    
C23   C24   A    
C25   H16   S    
Cu2   N1    S    
C18   O6    A    
C26   H17   S    
C13   C15   S    
C24   H11   S    
Cu1   Cu2   S    
C12   O3    A    
C3    C10   A    
C10   C22   A    
C16   H5    S    
C11   C13   D    
Cu1   O7    S    
C15   H13   S    
C10   C12   S    
Cu2   O6    S    
C16   N1    D    
C8    C26   S    
C18   O5    A    
Cu1   O3    S    
C19   C21   S    
C7    H12   S    
Cu2   O2    S    
O9    C25   S    
C3    C7    A    
C26   O10   D    
C2    C24   A    
C5    C6    A    
C17   N2    D    
H7    N1    S    
C14   H3    S    
C27   O11   D    
C25   H14   S    
C9    C21   A    
C1    O1    A    
C9    H1    S    
Cu2   O8    S    
Cu1   N2    S    
C5    C20   A    
C19   O8    A    
C14   C15   D    
C4    C5    A    
C2    C3    A    
Cu2   O4    S    
C27   H18   S    
C19   O7    A    
C20   H9    S    
Cu1   O5    S    
C1    O2    A    
C22   C23   A    
C6    H8    S    
C11   H4    S    
C16   C17   S    
C25   H15   S    
C8    C21   A    
