data_mof_unit_20877.cif
_audit_creation_date              2012-12-11T19:02:12-0500
_audit_creation_method            fapswitch 2.2
_symmetry_space_group_name_H-M    P1
_symmetry_Int_Tables_number       1
_space_group_crystal_system       triclinic
_cell_length_a                    8.326587
_cell_length_b                    15.038472
_cell_length_c                    18.725274
_cell_angle_alpha                 98.88764
_cell_angle_beta                  93.049132
_cell_angle_gamma                 99.049447
_cell_volume                      2280.54776693

loop_
_atom_site_label
_atom_site_type_symbol
_atom_type_description
_atom_site_fract_x
_atom_site_fract_y
_atom_site_fract_z
_atom_type_partial_charge
Ba1   Ba    Ba6+2 0.852310 0.543020 0.467250 1.677765
Ba2   Ba    Ba6+2 0.337530 0.457060 0.532760 1.676519
C1    C     C_3   0.741104 0.880054 0.309464 0.345008
C2    C     C_3   0.449093 0.513248 0.243868 -0.017658
C3    C     C_2   0.384114 0.519888 0.168076 -0.016744
C4    C     C_3   0.091715 0.741666 0.271612 0.620375
C5    C     C_2   0.221450 0.500271 0.147998 -0.045138
C6    C     C_2   0.106300 0.476476 0.204429 -0.134165
C7    C     C_1   0.162316 0.474782 0.272184 0.047772
C8    C     C_R   0.048994 0.497045 0.929834 0.471002
C9    C     C_R   0.159340 0.500754 0.071052 0.475435
C10   C     C_R   0.091350 0.529301 0.801772 -0.123434
C11   C     C_R   0.035542 0.520679 0.728039 0.058371
C12   C     C_3   0.699432 0.779123 0.321932 0.390172
C13   C     C_R   0.774374 0.440758 0.753115 -0.007651
C14   C     C_R   0.828223 0.449539 0.826585 -0.143750
C15   C     C_R   0.989251 0.492018 0.851889 -0.072813
C16   C     C_3   0.011011 0.756273 0.200198 -0.258860
C17   C     C_R   0.879800 0.473374 0.704192 -0.285282
C18   C     C_R   0.339637 0.823429 0.452455 0.089433
C19   C     C_R   0.579933 0.790611 0.516092 0.021633
C20   C     C_R   0.764656 0.229912 0.521654 -0.280440
C21   C     C_R   0.862067 0.170909 0.544824 0.012885
C22   C     C_R   0.803836 0.076882 0.533503 -0.046911
C23   C     C_3   0.438310 0.309926 0.309740 0.294976
C24   C     C_R   0.644185 0.040803 0.500730 0.050759
C25   C     C_R   0.551618 0.101910 0.473158 -0.017531
C26   C     C_R   0.573402 0.946343 0.493771 0.019394
C27   C     C_R   0.413405 0.915657 0.458540 -0.011935
C28   C     C_3   0.243913 0.737240 0.626421 0.246989
C29   C     C_R   0.329673 0.977610 0.430295 -0.041292
C30   C     C_R   0.398015 0.068039 0.436416 -0.029482
C31   C     C_R   0.652711 0.882168 0.523504 -0.107874
C32   C     C_R   0.426116 0.761422 0.479278 -0.255272
C33   C     C_R   0.614347 0.196021 0.482805 0.029835
C34   C     C_3   0.401320 0.274872 0.228946 -0.340470
C35   C     C_3   0.250413 0.839818 0.645180 -0.272015
C36   C     C_3   0.944499 0.262786 0.373767 0.279395
C37   C     C_3   0.910343 0.159571 0.350377 -0.329145
C38   C     C_3   0.742578 0.664759 0.686371 0.293178
C39   C     C_3   0.769213 0.692530 0.768300 -0.350206
C40   C     C_3   0.043215 0.270760 0.722203 0.393646
C41   C     C_3   0.052043 0.252193 0.799661 -0.249842
C42   C     C_3   0.537487 0.217848 0.710592 0.308805
C43   C     C_3   0.592803 0.158205 0.764300 0.727095
C44   C     C_2   0.315996 0.507961 0.296143 -0.163143
H1    H     H_    0.805260 0.761100 0.350249 -0.001988
H2    H     H_    0.857164 0.647205 0.665261 0.009818
H3    H     H_    0.643836 0.604413 0.673781 0.063889
H4    H     H_    0.868435 0.908722 0.330623 -0.005116
H5    H     H_    0.870382 0.751459 0.782361 0.145416
H6    H     H_    0.800778 0.635088 0.793689 0.067243
H7    H     H_    0.656157 0.712030 0.790379 0.147676
H8    H     H_    0.607742 0.777684 0.362212 0.034202
H9    H     H_    0.667726 0.921806 0.344402 0.019200
H10   H     H_    0.323368 0.324865 0.332630 0.022131
H11   H     H_    0.530740 0.373234 0.317518 0.021664
H12   H     H_    0.337304 0.867926 0.693372 0.192082
H13   H     H_    0.314254 0.209438 0.220304 0.154532
H14   H     H_    0.345602 0.324902 0.202419 0.048325
H15   H     H_    0.515578 0.263662 0.203542 0.136573
H16   H     H_    0.025311 0.700421 0.155886 0.108321
H17   H     H_    0.118160 0.338665 0.721755 0.039322
H18   H     H_    0.914003 0.272201 0.705362 -0.072598
H19   H     H_    0.981902 0.296815 0.833674 0.037357
H20   H     H_    0.000755 0.179998 0.801612 0.182222
H21   H     H_    0.180385 0.267412 0.822379 0.190854
H22   H     H_    0.639903 0.236641 0.677117 -0.134873
H23   H     H_    0.290463 0.873278 0.598945 0.088300
H24   H     H_    0.435518 0.177363 0.672815 0.124581
H25   H     H_    0.042111 0.672618 0.281779 0.044641
H26   H     H_    0.702804 0.197070 0.797692 -0.084222
H27   H     H_    0.471693 0.535454 0.128982 0.103661
H28   H     H_    0.976439 0.458247 0.189044 0.117509
H29   H     H_    0.212938 0.565716 0.819881 0.120286
H30   H     H_    0.744611 0.422924 0.863510 0.126629
H31   H     H_    0.351232 0.524602 0.353904 0.074563
H32   H     H_    0.836333 0.467216 0.647857 0.064648
H33   H     H_    0.369917 0.690657 0.474809 0.077798
H34   H     H_    0.127456 0.855027 0.657291 0.137160
H35   H     H_    0.209117 0.957719 0.402966 0.103860
H36   H     H_    0.769135 0.901508 0.554461 0.115159
H37   H     H_    0.811168 0.302383 0.529356 0.057673
H38   H     H_    0.885806 0.034144 0.550647 0.096239
H39   H     H_    0.325156 0.110881 0.412735 0.095452
H40   H     H_    0.880174 0.754569 0.203051 0.154658
H41   H     H_    0.065971 0.822415 0.185463 0.166861
H42   H     H_    0.366965 0.722952 0.615069 0.006381
H43   H     H_    0.157496 0.711846 0.577666 0.068067
H44   H     H_    0.600461 0.006243 0.172948 0.373809
H45   H     H_    0.831990 0.286576 0.391532 0.010544
H46   H     H_    0.673597 0.921315 0.737965 0.361446
H47   H     H_    0.190039 0.060647 0.812515 0.368275
H48   H     H_    0.322034 0.892222 0.252385 0.363310
H49   H     H_    0.040934 0.279953 0.419229 0.063594
H50   H     H_    0.809777 0.140575 0.306653 0.184285
H51   H     H_    0.874609 0.124912 0.396443 0.024414
H52   H     H_    0.021474 0.135388 0.330024 0.131443
N1    N     N_R   0.208557 0.527516 0.953063 -0.219352
N2    N     N_R   0.262289 0.529229 0.021874 -0.206401
N3    N     N_R   0.999548 0.470851 0.047972 -0.236848
N4    N     N_R   0.945871 0.468895 0.979071 -0.226408
O1    O     O_2   0.865610 0.448460 0.327050 -0.467660
O2    O     O_2   0.202734 0.177608 0.545801 -0.484558
O3    O     O_3   0.103823 0.202444 0.676498 -0.521642
O4    O     O_3   0.118280 0.449990 0.414480 -0.499656
O5    O     O_3   0.581860 0.610690 0.539360 -0.494090
O6    O     O_2   0.335900 0.275750 0.458650 -0.476532
O7    O     O_3   0.499289 0.242693 0.341925 -0.632255
O8    O     O_2   0.453863 0.462999 0.752614 -0.467950
O9    O     O_3   0.479734 0.293439 0.748613 -0.588951
O10   O     O_3   0.656850 0.615600 0.375450 -0.491334
O11   O     O_2   0.790140 0.570043 0.254123 -0.532235
O12   O     O_3   0.699322 0.738382 0.656760 -0.627818
O13   O     O_3   0.994604 0.302317 0.314178 -0.629206
O14   O     O_3   0.644355 0.713104 0.259121 -0.500068
O15   O     O_2   0.853800 0.724280 0.541390 -0.466413
O16   O     O_3   0.080770 0.663020 0.412300 -0.476433
O17   O     O_2   0.010693 0.824713 0.466417 -0.528032
O18   O     O_2   0.878119 0.940276 0.194749 -0.316505
O19   O     O_2   0.630100 0.825599 0.165425 -0.178054
O20   O     O_3   0.602360 0.990444 0.222379 -0.509954
O21   O     O_2   0.520637 0.017116 0.653604 -0.362585
O22   O     O_2   0.810029 0.076594 0.688406 -0.354639
O23   O     O_3   0.071395 0.809892 0.329541 -0.656617
O24   O     O_3   0.652821 0.976301 0.770293 -0.447431
O25   O     O_2   0.490269 0.064682 0.870799 -0.208757
O26   O     O_2   0.419611 0.216367 0.874570 -0.303640
O27   O     O_3   0.262194 0.084191 0.776860 -0.495539
O28   O     O_2   0.357347 0.695299 0.314705 -0.411860
O29   O     O_2   0.333998 0.710906 0.185756 -0.271200
O30   O     O_3   0.385212 0.859477 0.282793 -0.499891
O31   O     O_2   0.324100 0.551570 0.673000 -0.454690
O32   O     O_3   0.071440 0.550090 0.585530 -0.502754
O33   O     O_3   0.532860 0.384470 0.624560 -0.471409
O34   O     O_3   0.193959 0.697725 0.686130 -0.622905
O35   O     O_3   0.607860 0.389390 0.460650 -0.480154
O36   O     O_3   0.108950 0.337050 0.587710 -0.500971
P1    P     P_3+3 0.033450 0.421470 0.337090 0.985457
P2    P     P_3+3 0.679030 0.710970 0.562060 0.991071
P3    P     P_3+3 0.125764 0.780704 0.414828 0.979327
P4    P     P_3+3 0.156260 0.578610 0.662920 0.991119
P5    P     P_3+3 0.069188 0.219595 0.586982 1.009650
P6    P     P_3+3 0.633230 0.601908 0.281191 1.060355
P7    P     P_3+3 0.515611 0.275001 0.436203 0.948401
P8    P     P_3+3 0.561628 0.395143 0.719422 0.983000
S1    S     S_3+6 0.714148 0.906201 0.219264 -0.016399
S2    S     S_3+6 0.645219 0.055215 0.716181 -0.090285
S3    S     S_3+6 0.439682 0.130869 0.825063 0.000083
S4    S     S_3+6 0.299348 0.749309 0.261209 -0.095047

loop_
_geom_bond_atom_site_label_1
_geom_bond_atom_site_label_2
_ccdc_geom_bond_type
C1    S1    S    
N3    N4    A    
C35   H23   S    
C43   S2    S    
O30   S4    S    
C23   H10   S    
C34   H13   S    
C5    C6    S    
C2    C44   S    
C5    C9    S    
C20   C33   A    
O22   S2    D    
O31   P4    D    
Ba2   O32   S    
O35   P7    S    
C26   C27   A    
C22   C24   A    
O36   P5    S    
Ba1   O10   S    
C36   C37   S    
C37   H51   S    
C19   C31   A    
C8    C15   S    
C13   C14   A    
Ba2   O5    S    
Ba1   Ba2   S    
C33   P7    S    
O5    P2    S    
O34   P4    S    
O14   P6    S    
C1    H9    S    
C38   O12   S    
C29   C30   A    
O23   P3    S    
C6    C7    D    
C36   H49   S    
O28   S4    D    
C21   C22   A    
O19   S1    D    
C42   H24   S    
O12   P2    S    
C31   H36   S    
Ba1   O1    S    
C39   H6    S    
C35   H12   S    
Ba1   P1    S    
C23   O7    S    
Ba1   O4    S    
C18   C32   A    
O16   P3    S    
C7    C44   D    
C43   H26   S    
H44   O20   S    
C21   P5    S    
C23   H11   S    
C28   H43   S    
H47   O27   S    
C1    H4    S    
C18   C27   A    
C4    H25   S    
C4    C16   S    
C35   H34   S    
Ba2   O31   S    
C11   C17   A    
Ba2   O36   S    
C38   H3    S    
C8    N4    A    
O21   S2    D    
O9    P8    S    
C3    C5    D    
O24   S2    S    
C16   H16   S    
C37   H52   S    
Ba1   O15   S    
C19   C32   A    
C25   C33   A    
C11   P4    S    
C36   H45   S    
Ba2   O4    S    
H48   O30   S    
C28   C35   S    
C9    N2    A    
C10   C15   A    
C17   H32   S    
C13   C17   A    
O27   S3    S    
O1    P1    D    
C32   H33   S    
O32   P4    S    
N1    N2    A    
C41   H19   S    
O33   P8    S    
C6    H28   S    
C24   C25   A    
O2    P5    D    
C9    N3    A    
C16   H40   S    
O20   S1    S    
C2    P6    S    
Ba1   P2    S    
Ba2   P4    S    
C39   H7    S    
C1    C12   S    
Ba1   O5    S    
C38   C39   S    
C12   H8    S    
O13   P1    S    
C26   C31   A    
C28   O34   S    
O17   P3    D    
C42   H22   S    
O15   P2    D    
C40   C41   S    
C28   H42   S    
C34   H15   S    
C40   H18   S    
Ba1   O35   S    
C42   C43   S    
O6    P7    D    
C38   H2    S    
C25   C30   A    
C14   H30   S    
Ba2   O35   S    
C18   P3    S    
O7    P7    S    
Ba2   O33   S    
C4    O23   S    
C2    C3    S    
C34   H14   S    
H46   O24   S    
O3    P5    S    
C13   P8    S    
C12   H1    S    
C44   H31   S    
C24   C26   A    
C16   H41   S    
C29   H35   S    
O11   P6    D    
C20   H37   S    
O10   P6    S    
C22   H38   S    
C27   C29   A    
O25   S3    D    
C36   O13   S    
C7    P1    S    
O4    P1    S    
C14   C15   A    
C41   H20   S    
C12   O14   S    
C30   H39   S    
Ba2   O6    S    
C43   S3    S    
Ba1   O16   S    
C3    H27   S    
C8    N1    A    
C40   O3    S    
C37   H50   S    
C23   C34   S    
C4    S4    S    
C42   O9    S    
O26   S3    D    
C10   C11   A    
O18   S1    D    
C41   H21   S    
C10   H29   S    
C20   C21   A    
O29   S4    D    
C19   P2    S    
O8    P8    D    
C40   H17   S    
C39   H5    S    
Ba1   O32   S    
