data_mof_unit_44332.cif
_audit_creation_date              2012-12-10T18:28:20-0500
_audit_creation_method            fapswitch 2.2
_symmetry_space_group_name_H-M    P1
_symmetry_Int_Tables_number       1
_space_group_crystal_system       triclinic
_cell_length_a                    22.756786
_cell_length_b                    19.844328
_cell_length_c                    14.993964
_cell_angle_alpha                 90.000131
_cell_angle_beta                  98.880045
_cell_angle_gamma                 89.999427
_cell_volume                      6690.00970174

loop_
_atom_site_label
_atom_site_type_symbol
_atom_type_description
_atom_site_fract_x
_atom_site_fract_y
_atom_site_fract_z
_atom_type_partial_charge
C1    C     C_R   0.577250 0.086485 0.554302 0.858798
C2    C     C_R   0.705116 0.714789 0.302320 -0.073506
C3    C     C_R   0.774536 0.167710 0.517792 -0.118476
C4    C     C_R   0.181547 0.216417 0.456366 -0.122084
C5    C     C_R   0.725459 0.667703 0.482200 -0.118480
C6    C     C_R   0.818450 0.216420 0.543627 -0.122082
C7    C     C_R   0.274537 0.667711 0.517801 -0.118476
C8    C     C_R   0.226612 0.134227 0.566559 0.389897
C9    C     C_R   0.666003 0.731911 0.362812 0.382956
C10   C     C_R   0.773381 0.134235 0.433429 0.389904
C11   C     C_R   0.333986 0.731928 0.637188 0.382964
C12   C     C_R   0.726613 0.634228 0.566562 0.389908
C13   C     C_R   0.802405 0.163163 0.366722 -0.075938
C14   C     C_R   0.166004 0.231914 0.362812 0.382952
C15   C     C_R   0.273387 0.634232 0.433442 0.389900
C16   C     C_R   0.833993 0.231914 0.637182 0.382955
C17   C     C_R   0.204548 0.130988 0.723413 0.181911
C18   C     C_R   0.171473 0.073324 0.737377 -0.094598
C19   C     C_R   0.179308 0.041999 0.821944 -0.158554
C20   C     C_R   0.220245 0.067948 0.892734 -0.162152
C21   C     C_R   0.253503 0.125213 0.879073 -0.152032
C22   C     C_R   0.245832 0.156646 0.794604 -0.159185
C23   C     C_R   0.689304 0.733698 0.205792 0.181515
C24   C     C_R   0.294873 0.714806 0.697677 -0.073519
C25   C     C_R   0.679480 0.683615 0.138914 -0.178824
C26   C     C_R   0.664155 0.701569 0.048098 -0.141904
C27   C     C_R   0.658605 0.769470 0.023468 -0.103695
C28   C     C_R   0.668121 0.819552 0.089681 -0.152385
C29   C     C_R   0.683245 0.801858 0.180605 -0.078691
C30   C     C_R   0.795446 0.130999 0.276576 0.181920
C31   C     C_R   0.828542 0.073354 0.262597 -0.094659
C32   C     C_R   0.820709 0.042033 0.178028 -0.158529
C33   C     C_R   0.779754 0.067967 0.107249 -0.162155
C34   C     C_R   0.746475 0.125213 0.120925 -0.152033
C35   C     C_R   0.697591 0.663157 0.633270 -0.075941
C36   C     C_R   0.754144 0.156642 0.205397 -0.159136
C37   C     C_R   0.310676 0.733727 0.794200 0.181549
C38   C     C_R   0.320526 0.683652 0.861085 -0.178786
C39   C     C_R   0.335835 0.701619 0.951899 -0.141923
C40   C     C_R   0.341342 0.769524 0.976519 -0.103704
C41   C     C_R   0.331800 0.819598 0.910298 -0.152360
C42   C     C_R   0.316692 0.801891 0.819376 -0.078749
C43   C     C_R   0.704550 0.630994 0.723416 0.181926
C44   C     C_R   0.671437 0.573365 0.737404 -0.094700
C45   C     C_R   0.679269 0.542045 0.821974 -0.158506
C46   C     C_R   0.205117 0.214792 0.302320 -0.073506
C47   C     C_R   0.720240 0.567963 0.892743 -0.162154
C48   C     C_R   0.753535 0.625194 0.879058 -0.152054
C49   C     C_R   0.745867 0.656623 0.794586 -0.159102
C50   C     C_R   0.189304 0.233697 0.205791 0.181505
C51   C     C_R   0.179486 0.183611 0.138917 -0.178835
C52   C     C_R   0.164155 0.201561 0.048100 -0.141919
C53   C     C_R   0.158592 0.269460 0.023466 -0.103705
C54   C     C_R   0.168102 0.319545 0.089676 -0.152395
C55   C     C_R   0.183233 0.301855 0.180601 -0.078672
C56   C     C_R   0.295453 0.630994 0.276588 0.181922
C57   C     C_R   0.302411 0.663158 0.366734 -0.075934
C58   C     C_R   0.328543 0.573343 0.262614 -0.094645
C59   C     C_R   0.320714 0.542023 0.178043 -0.158531
C60   C     C_R   0.279767 0.567964 0.107259 -0.162127
C61   C     C_R   0.246493 0.625216 0.120931 -0.152052
C62   C     C_R   0.254159 0.656643 0.205403 -0.159163
C63   C     C_R   0.810697 0.233694 0.794204 0.181505
C64   C     C_R   0.820521 0.183607 0.861075 -0.178831
C65   C     C_R   0.835854 0.201554 0.951892 -0.141903
C66   C     C_R   0.841412 0.269453 0.976530 -0.103699
C67   C     C_R   0.831895 0.319539 0.910323 -0.152391
C68   C     C_R   0.794882 0.214791 0.697674 -0.073506
C69   C     C_R   0.816763 0.301852 0.819398 -0.078677
C70   C     C_R   0.630767 0.002130 0.203235 -0.302023
C71   C     C_R   0.369233 0.002128 0.796765 -0.301997
C72   C     C_R   0.130767 0.502132 0.203235 -0.302035
C73   C     C_R   0.425232 0.910501 0.447433 0.856757
C74   C     C_R   0.869232 0.502123 0.796765 -0.302032
C75   C     C_R   0.608685 0.000272 0.284116 0.048723
C76   C     C_R   0.391314 0.000271 0.715883 0.048742
C77   C     C_R   0.108685 0.500274 0.284116 0.048714
C78   C     C_R   0.891314 0.500269 0.715883 0.048721
C79   C     C_R   0.509096 0.001230 0.208232 -0.065186
C80   C     C_R   0.490904 0.001231 0.791768 -0.065186
C81   C     C_R   0.009096 0.501228 0.208233 -0.065185
C82   C     C_R   0.990904 0.501231 0.791768 -0.065192
C83   C     C_R   0.528428 0.003392 0.123771 0.004880
C84   C     C_R   0.422749 0.086485 0.445697 0.858797
C85   C     C_R   0.471571 0.003391 0.876229 0.004875
C86   C     C_R   0.028428 0.503390 0.123771 0.004879
C87   C     C_R   0.971571 0.503389 0.876229 0.004880
C88   C     C_R   0.590748 0.003767 0.122636 0.171486
C89   C     C_R   0.409252 0.003765 0.877364 0.171506
C90   C     C_R   0.090748 0.503767 0.122636 0.171484
C91   C     C_R   0.909251 0.503760 0.877364 0.171487
C92   C     C_R   0.488378 0.004734 0.041454 0.089132
C93   C     C_R   0.511622 0.004735 0.958546 0.089135
C94   C     C_R   0.988378 0.504730 0.041454 0.089135
C95   C     C_R   0.574768 0.910500 0.552566 0.856756
C96   C     C_R   0.011622 0.504733 0.958546 0.089134
C97   C     C_R   0.574016 0.006089 0.960626 -0.244827
C98   C     C_R   0.425984 0.006087 0.039374 -0.244815
C99   C     C_R   0.074016 0.506090 0.960626 -0.244834
C100  C     C_R   0.925984 0.506080 0.039374 -0.244830
C101  C     C_R   0.612642 0.005763 0.041329 -0.233164
C102  C     C_R   0.387357 0.005761 0.958671 -0.233122
C103  C     C_R   0.112642 0.505764 0.041329 -0.233169
C104  C     C_R   0.887357 0.505753 0.958671 -0.233181
C105  C     C_R   0.609336 0.849150 0.577505 -0.075589
C106  C     C_R   0.077250 0.586484 0.554303 0.858802
C107  C     C_R   0.369471 0.124660 0.407949 -0.075067
C108  C     C_R   0.390663 0.849152 0.422493 -0.075594
C109  C     C_R   0.630528 0.124661 0.592049 -0.075065
C110  C     C_R   0.109335 0.349149 0.577505 -0.075591
C111  C     C_R   0.869470 0.624658 0.407949 -0.075064
C112  C     C_R   0.890663 0.349152 0.422492 -0.075590
C113  C     C_R   0.130527 0.624660 0.592050 -0.075064
C114  C     C_R   0.641257 0.758694 0.682331 -0.184471
C115  C     C_R   0.304240 0.173190 0.281267 -0.191251
C116  C     C_R   0.358749 0.758691 0.317673 -0.184479
C117  C     C_R   0.925232 0.410500 0.447433 0.856756
C118  C     C_R   0.695761 0.173188 0.718732 -0.191247
C119  C     C_R   0.141251 0.258690 0.682328 -0.184481
C120  C     C_R   0.804238 0.673185 0.281266 -0.191248
C121  C     C_R   0.858743 0.258697 0.317665 -0.184473
C122  C     C_R   0.195756 0.673192 0.718733 -0.191241
C123  C     C_R   0.612731 0.820395 0.663473 -0.179299
C124  C     C_R   0.358442 0.143667 0.316943 -0.189415
C125  C     C_R   0.387275 0.820392 0.336529 -0.179299
C126  C     C_R   0.641559 0.143665 0.683057 -0.189415
C127  C     C_R   0.112726 0.320392 0.663471 -0.179296
C128  C     C_R   0.922749 0.586484 0.445697 0.858799
C129  C     C_R   0.858440 0.643663 0.316942 -0.189416
C130  C     C_R   0.887270 0.320397 0.336524 -0.179295
C131  C     C_R   0.141555 0.643666 0.683057 -0.189419
C132  C     C_R   0.633401 0.814917 0.510532 -0.233748
C133  C     C_R   0.325641 0.134593 0.461925 -0.236006
C134  C     C_R   0.366591 0.814925 0.489463 -0.233746
C135  C     C_R   0.674356 0.134598 0.538071 -0.236006
C136  C     C_R   0.133403 0.314918 0.510533 -0.233745
C137  C     C_R   0.825640 0.634591 0.461925 -0.236011
C138  C     C_R   0.866595 0.314920 0.489463 -0.233745
C139  C     C_R   0.074768 0.410500 0.552566 0.856757
C140  C     C_R   0.174357 0.634595 0.538075 -0.236010
C141  C     C_R   0.658079 0.750623 0.525754 0.078164
C142  C     C_R   0.269241 0.158695 0.425938 0.079170
C143  C     C_R   0.341915 0.750631 0.474246 0.078168
C144  C     C_R   0.730755 0.158700 0.574056 0.079170
C145  C     C_R   0.158080 0.250624 0.525754 0.078165
C146  C     C_R   0.769240 0.658693 0.425938 0.079169
C147  C     C_R   0.841916 0.250628 0.474240 0.078165
C148  C     C_R   0.230755 0.658701 0.574062 0.079172
C149  C     C_R   0.665658 0.723822 0.614665 0.041871
C150  C     C_R   0.197589 0.163154 0.633268 -0.075936
C151  C     C_R   0.259177 0.181876 0.335292 0.042281
C152  C     C_R   0.334343 0.723824 0.385338 0.041873
C153  C     C_R   0.740822 0.181877 0.664704 0.042282
C154  C     C_R   0.165657 0.223820 0.614664 0.041878
C155  C     C_R   0.759175 0.681873 0.335291 0.042281
C156  C     C_R   0.834339 0.223826 0.385329 0.041872
C157  C     C_R   0.240817 0.681883 0.664707 0.042274
C158  C     C_R   0.681545 0.716415 0.456366 -0.122081
C159  C     C_R   0.225459 0.167705 0.482199 -0.118471
C160  C     C_R   0.318448 0.716426 0.543634 -0.122092
H1    H     H_    0.594980 0.007712 0.901110 0.134604
H2    H     H_    0.133643 0.339474 0.446274 0.199815
H3    H     H_    0.163714 0.624386 0.466629 0.200131
H4    H     H_    0.866356 0.339476 0.553724 0.199818
H5    H     H_    0.391636 0.135880 0.273393 0.152883
H6    H     H_    0.593481 0.845566 0.716196 0.157179
H7    H     H_    0.608367 0.135876 0.726609 0.152882
H8    H     H_    0.406530 0.845559 0.283808 0.157187
H9    H     H_    0.891634 0.635876 0.273392 0.152884
H10   H     H_    0.093473 0.345561 0.716193 0.157182
H11   H     H_    0.108363 0.635877 0.726607 0.152884
H12   H     H_    0.405020 0.007709 0.098890 0.134599
H13   H     H_    0.906522 0.345567 0.283803 0.157179
H14   H     H_    0.644130 0.738836 0.750087 0.142492
H15   H     H_    0.298338 0.189693 0.211689 0.143362
H16   H     H_    0.355883 0.738829 0.249921 0.142502
H17   H     H_    0.701665 0.189688 0.788311 0.143362
H18   H     H_    0.144119 0.238829 0.750081 0.142497
H19   H     H_    0.798335 0.689686 0.211687 0.143364
H20   H     H_    0.855872 0.238839 0.249910 0.142493
H21   H     H_    0.201658 0.689693 0.788312 0.143361
H22   H     H_    0.660121 0.006462 0.039965 0.142843
H23   H     H_    0.094980 0.507713 0.901110 0.134607
H24   H     H_    0.339879 0.006459 0.960035 0.142820
H25   H     H_    0.160121 0.506465 0.039965 0.142848
H26   H     H_    0.839878 0.506447 0.960035 0.142842
H27   H     H_    0.536853 0.000394 0.782905 0.123685
H28   H     H_    0.463147 0.000393 0.217095 0.123686
H29   H     H_    0.036853 0.500396 0.782905 0.123686
H30   H     H_    0.963147 0.500390 0.217095 0.123684
H31   H     H_    0.361166 0.999332 0.652619 0.164498
H32   H     H_    0.638834 0.999334 0.347381 0.164503
H33   H     H_    0.861166 0.499330 0.652619 0.164502
H34   H     H_    0.905019 0.507698 0.098890 0.134606
H35   H     H_    0.138834 0.499337 0.347381 0.164503
H36   H     H_    0.678446 0.002358 0.203659 0.176459
H37   H     H_    0.321553 0.002354 0.796341 0.176444
H38   H     H_    0.178446 0.502362 0.203659 0.176459
H39   H     H_    0.821553 0.502348 0.796341 0.176458
H40   H     H_    0.139844 0.052690 0.682824 0.129412
H41   H     H_    0.153723 0.997544 0.832567 0.133601
H42   H     H_    0.226225 0.043678 0.958154 0.125329
H43   H     H_    0.285299 0.145122 0.933886 0.140502
H44   H     H_    0.272037 0.200764 0.784489 0.130114
H45   H     H_    0.336284 0.124384 0.533370 0.200132
H46   H     H_    0.683574 0.630833 0.157219 0.130443
H47   H     H_    0.656424 0.662857 0.996827 0.148319
H48   H     H_    0.646848 0.783257 0.953116 0.127819
H49   H     H_    0.663841 0.872069 0.070544 0.139082
H50   H     H_    0.690519 0.841152 0.231273 0.134996
H51   H     H_    0.860187 0.052732 0.317141 0.129403
H52   H     H_    0.846311 0.997593 0.167393 0.133604
H53   H     H_    0.773776 0.043700 0.041827 0.125333
H54   H     H_    0.714666 0.145111 0.066121 0.140504
H55   H     H_    0.727924 0.200745 0.215523 0.130110
H56   H     H_    0.633640 0.839472 0.446272 0.199817
H57   H     H_    0.316463 0.630867 0.842788 0.130439
H58   H     H_    0.343585 0.662913 0.003177 0.148317
H59   H     H_    0.353085 0.783321 0.046869 0.127815
H60   H     H_    0.336045 0.872118 0.929427 0.139042
H61   H     H_    0.309397 0.841180 0.768700 0.134966
H62   H     H_    0.639780 0.552755 0.682868 0.129397
H63   H     H_    0.653654 0.497617 0.832616 0.133603
H64   H     H_    0.726218 0.543697 0.958166 0.125335
H65   H     H_    0.785357 0.645080 0.933855 0.140508
H66   H     H_    0.772100 0.700713 0.784452 0.130107
H67   H     H_    0.663710 0.124392 0.466624 0.200131
H68   H     H_    0.183589 0.130831 0.157225 0.130448
H69   H     H_    0.156428 0.162847 0.996832 0.148324
H70   H     H_    0.146830 0.283243 0.953115 0.127823
H71   H     H_    0.163811 0.372059 0.070535 0.139095
H72   H     H_    0.190501 0.341151 0.231267 0.135004
H73   H     H_    0.360182 0.552716 0.317162 0.129409
H74   H     H_    0.346311 0.497579 0.167413 0.133602
H75   H     H_    0.273791 0.543699 0.041836 0.125337
H76   H     H_    0.214690 0.645119 0.066123 0.140505
H77   H     H_    0.227943 0.700751 0.215526 0.130113
H78   H     H_    0.366346 0.839486 0.553719 0.199824
H79   H     H_    0.816422 0.130827 0.842764 0.130446
H80   H     H_    0.843586 0.162839 0.003159 0.148319
H81   H     H_    0.853175 0.283235 0.046882 0.127823
H82   H     H_    0.836182 0.372053 0.929467 0.139091
H83   H     H_    0.809489 0.341149 0.768734 0.135001
H84   H     H_    0.254672 0.048950 0.526057 0.331342
H85   H     H_    0.582537 0.747598 0.368615 0.339530
H86   H     H_    0.745321 0.048957 0.473925 0.331342
H87   H     H_    0.417452 0.747621 0.631393 0.339527
H88   H     H_    0.754672 0.548949 0.526063 0.331344
H89   H     H_    0.836284 0.624383 0.533371 0.200126
H90   H     H_    0.082538 0.247599 0.368617 0.339531
H91   H     H_    0.245329 0.548955 0.473942 0.331343
H92   H     H_    0.917459 0.247598 0.631376 0.339531
N1    N     N_R   0.549130 0.000000 0.284090 -0.103239
N2    N     N_R   0.450870 0.000000 0.715910 -0.103239
N3    N     N_R   0.049130 0.500000 0.284090 -0.103236
N4    N     N_R   0.950870 0.500000 0.715910 -0.103238
O1    O     O_R   0.541320 0.066090 0.608930 -0.609439
O2    O     O_R   0.427120 0.933890 0.529720 -0.610746
O3    O     O_R   0.427120 0.066110 0.529720 -0.610798
O4    O     O_R   0.572880 0.933890 0.470280 -0.610749
O5    O     O_R   0.072880 0.566110 0.470280 -0.610798
O6    O     O_R   0.927120 0.433890 0.529720 -0.610750
O7    O     O_R   0.927120 0.566110 0.529720 -0.610797
O8    O     O_R   0.072880 0.433890 0.470280 -0.610747
O9    O     O_3   0.253178 0.072005 0.584325 -0.802057
O10   O     O_3   0.611277 0.758720 0.327408 -0.774873
O11   O     O_3   0.746815 0.072015 0.415659 -0.802047
O12   O     O_R   0.458680 0.933910 0.391070 -0.606651
O13   O     O_3   0.388708 0.758746 0.672593 -0.774856
O14   O     O_3   0.753177 0.572006 0.584330 -0.802036
O15   O     O_3   0.111278 0.258722 0.327409 -0.774876
O16   O     O_3   0.246823 0.572010 0.415675 -0.802049
O17   O     O_3   0.888720 0.258722 0.672584 -0.774874
O18   O     O_R   0.458680 0.066090 0.391070 -0.609438
O19   O     O_R   0.541320 0.933910 0.608930 -0.606646
O20   O     O_R   0.041320 0.566090 0.608930 -0.609440
O21   O     O_R   0.958680 0.433910 0.391070 -0.606651
O22   O     O_R   0.958680 0.566090 0.391070 -0.609438
O23   O     O_R   0.041320 0.433910 0.608930 -0.606649
O24   O     O_R   0.572880 0.066110 0.470280 -0.610797
Zn1   Zn    Zn3+2 0.478910 1.000000 0.592580 0.943860
Zn2   Zn    Zn3+2 0.521090 0.000000 0.407420 0.943855
Zn3   Zn    Zn3+2 0.978910 0.500000 0.592580 0.943854
Zn4   Zn    Zn3+2 0.021090 0.500000 0.407420 0.943855

loop_
_geom_bond_atom_site_label_1
_geom_bond_atom_site_label_2
_ccdc_geom_bond_type
C142  C151  A    
C99   C103  A    
C47   H64   S    
C57   C152  A    
C2    C155  A    
C48   H65   S    
C121  C156  A    
C87   C91   A    
C89   C102  A    
C109  C135  A    
C134  H78   S    
C41   C42   A    
C21   H43   S    
C39   H58   S    
C110  C136  A    
C26   H47   S    
C103  H25   S    
C19   H41   S    
C91   C104  A    
C3    C6    A    
C70   C88   A    
C140  C148  A    
C88   C101  A    
C92   C98   A    
C29   H50   S    
C14   C46   A    
C136  H2    S    
C53   C54   A    
C52   C53   A    
C127  H10   S    
C83   C92   A    
C79   N1    A    
C131  H11   S    
C26   C27   A    
C37   C38   A    
C62   H77   S    
C135  H67   S    
C23   C29   A    
C129  H9    S    
C28   C29   A    
C120  H19   S    
C12   O14   S    
C18   C19   A    
C84   O18   A    
C36   H55   S    
C135  C144  A    
C38   C39   A    
H87   O13   S    
C110  C127  A    
C52   H69   S    
C4    C159  A    
C133  H45   S    
C82   C87   A    
C96   C99   A    
C11   C24   A    
C100  C104  A    
C84   C107  S    
C95   O19   A    
C56   C57   S    
C105  C123  A    
C118  C153  A    
H84   O9    S    
C128  O7    A    
H90   O15   S    
C37   C42   A    
O6    Zn3   S    
C27   H48   S    
C64   H79   S    
C115  H15   S    
C84   O3    A    
C72   C77   A    
C1    C109  S    
C134  C143  A    
C63   C68   S    
C123  H6    S    
C85   C93   A    
C111  C129  A    
C122  H21   S    
C146  C155  A    
H85   O10   S    
C56   C58   A    
C79   C83   A    
C77   N3    A    
N3    Zn4   S    
C117  O21   A    
C65   H80   S    
C71   H37   S    
C16   C68   A    
C119  H18   S    
O23   Zn3   S    
C108  C125  A    
C121  H20   S    
C42   H61   S    
C76   N2    A    
H92   O17   S    
C142  C159  A    
C99   H23   S    
C81   C86   A    
C145  C154  A    
C53   H70   S    
C98   H12   S    
C58   H73   S    
C7    C15   A    
C66   C67   A    
C77   H35   S    
C59   C60   A    
O22   Zn4   S    
C139  O8    A    
O1    Zn1   S    
C118  C126  A    
C15   C57   A    
C38   H57   S    
C82   N4    A    
C60   H75   S    
C107  C124  A    
C30   C36   A    
C128  O22   A    
O18   Zn2   S    
C67   H82   S    
C11   C160  A    
C33   C34   A    
C105  C132  A    
C1    O1    A    
C45   C47   A    
C130  H13   S    
C86   C94   A    
C95   O4    A    
C16   O17   S    
C79   H28   S    
C116  H16   S    
C106  C113  S    
C141  C149  A    
C120  C129  A    
C45   H63   S    
C63   C69   A    
C13   C30   S    
C143  C160  A    
C125  H8    S    
C106  O20   A    
C1    O24   A    
C24   C37   S    
C126  H7    S    
C86   C90   A    
C39   C40   A    
C49   H66   S    
C33   H53   S    
C73   O2    A    
C69   H83   S    
C73   C108  S    
C7    C160  A    
C50   C51   A    
C28   H49   S    
C98   C102  A    
C6    C16   A    
C120  C155  A    
N1    Zn2   S    
C51   C52   A    
O12   Zn2   S    
C60   C61   A    
C140  H3    S    
C78   H33   S    
C74   C91   A    
C8    C150  A    
C43   C44   A    
N2    Zn1   S    
C13   C156  A    
C108  C134  A    
C80   C85   A    
C73   O12   A    
C112  C138  A    
C51   H68   S    
O5    Zn4   S    
C72   C90   A    
C94   C100  A    
C137  C146  A    
O4    Zn2   S    
C47   C48   A    
C71   C89   A    
C71   C76   A    
O3    Zn1   S    
C138  C147  A    
C48   C49   A    
C50   C55   A    
C97   C101  A    
C87   C96   A    
C2    C23   S    
C17   C18   A    
C133  C142  A    
C113  C140  A    
C31   H51   S    
C121  C130  A    
C81   N3    A    
C12   C35   A    
C94   C96   A    
C147  C156  A    
H86   O11   S    
C141  C158  A    
C80   N2    A    
C5    C12   A    
C132  H56   S    
C114  C123  A    
C70   H36   S    
C40   C41   A    
C66   H81   S    
O21   Zn4   S    
C5    C158  A    
C119  C154  A    
C97   H1    S    
C116  C125  A    
C80   H27   S    
C40   H59   S    
C34   H54   S    
O8    Zn4   S    
C56   C62   A    
C24   C157  A    
C59   H74   S    
C44   H62   S    
C21   C22   A    
C117  O6    A    
C112  C130  A    
C25   H46   S    
C93   C97   A    
C54   H71   S    
C116  C152  A    
C41   H60   S    
C35   C43   S    
C44   C45   A    
C111  C137  A    
C7    C148  A    
C139  O23   A    
C132  C141  A    
C54   C55   A    
C110  C139  S    
C85   C89   A    
C115  C124  A    
C113  C131  A    
N4    Zn3   S    
C14   O15   S    
C55   H72   S    
C31   C32   A    
C43   C49   A    
C3    C144  A    
C136  C145  A    
O24   Zn2   S    
C8    O9    S    
C75   N1    A    
C10   C13   A    
H91   O16   S    
C137  H89   S    
O20   Zn3   S    
C100  H34   S    
C104  H26   S    
C9    O10   S    
C46   C50   S    
C17   C22   A    
C22   H44   S    
C74   H39   S    
C102  H24   S    
C32   C33   A    
C19   C20   A    
C75   H32   S    
C25   C26   A    
C78   N4    A    
C82   H29   S    
C76   H31   S    
C64   C65   A    
C81   H30   S    
C18   H40   S    
C6    C147  A    
C8    C159  A    
C30   C31   A    
C122  C131  A    
C112  C117  S    
C9    C158  A    
C32   H52   S    
C4    C145  A    
C124  H5    S    
C74   C78   A    
C92   C93   A    
C122  C157  A    
C95   C105  S    
C46   C151  A    
C83   C88   A    
O2    Zn1   S    
C34   C36   A    
C148  C157  A    
C106  O5    A    
C4    C14   A    
C61   C62   A    
O19   Zn1   S    
C58   C59   A    
C90   C103  A    
C72   H38   S    
C63   C64   A    
C118  H17   S    
C11   O13   S    
C109  C126  A    
C114  H14   S    
C23   C25   A    
H88   O14   S    
C20   C21   A    
C70   C75   A    
C107  C133  A    
C65   C66   A    
C150  C154  A    
O7    Zn3   S    
C115  C151  A    
C111  C128  S    
C3    C10   A    
C61   H76   S    
C144  C153  A    
C138  H4    S    
C10   O11   S    
C35   C149  A    
C114  C149  A    
C67   C69   A    
C20   H42   S    
C5    C146  A    
C2    C9    A    
C68   C153  A    
C143  C152  A    
C101  H22   S    
C15   O16   S    
C27   C28   A    
C17   C150  S    
C119  C127  A    
