data_mof_unit_6626.cif
_audit_creation_date              2012-12-10T18:34:35-0500
_audit_creation_method            fapswitch 2.2
_symmetry_space_group_name_H-M    P1
_symmetry_Int_Tables_number       1
_space_group_crystal_system       triclinic
_cell_length_a                    13.057149
_cell_length_b                    15.116968
_cell_length_c                    13.868659
_cell_angle_alpha                 90.691886
_cell_angle_beta                  95.537543
_cell_angle_gamma                 91.07073
_cell_volume                      2723.94245724

loop_
_atom_site_label
_atom_site_type_symbol
_atom_type_description
_atom_site_fract_x
_atom_site_fract_y
_atom_site_fract_z
_atom_type_partial_charge
C1    C     C_R   0.499967 0.330094 0.499460 0.812470
C2    C     C_R   0.499382 0.951926 0.496505 -0.085599
C3    C     C_R   0.577703 0.540994 0.114681 -0.337164
C4    C     C_R   0.469838 0.423639 0.888541 -0.321194
C5    C     C_R   0.576058 0.542813 0.215918 -0.053386
C6    C     C_R   0.469085 0.425912 0.786948 -0.059528
C7    C     C_R   0.423355 0.454655 0.202696 0.529768
C8    C     C_R   0.533526 0.573026 0.796569 0.554147
C9    C     C_R   0.417371 0.458294 0.100100 0.242425
C10   C     C_R   0.523157 0.576860 0.896907 0.279741
C11   C     C_R   0.497647 0.498786 0.054633 0.025362
C12   C     C_R   0.500139 0.670174 0.500382 0.845584
C13   C     C_R   0.496543 0.499763 0.945596 0.006429
C14   C     C_R   0.300607 0.496800 0.482594 0.815544
C15   C     C_R   0.699207 0.496490 0.517140 0.806388
C16   C     C_R   0.811183 0.488554 0.525402 -0.141826
C17   C     C_R   0.188218 0.489448 0.473397 -0.150086
C18   C     C_R   0.027818 0.484463 0.370317 -0.204512
C19   C     C_R   0.971523 0.485949 0.627800 -0.186425
C20   C     C_R   0.134357 0.489857 0.380942 -0.291082
C21   C     C_R   0.865357 0.489725 0.617559 -0.300477
C22   C     C_R   0.133793 0.481196 0.556229 0.392605
C23   C     C_R   0.499263 0.234003 0.498016 -0.156880
C24   C     C_R   0.864936 0.479214 0.442066 0.390600
C25   C     C_R   0.026217 0.482973 0.545801 0.016829
C26   C     C_R   0.972762 0.481982 0.452234 0.016853
C27   C     C_R   0.445737 0.095498 0.564342 0.469258
C28   C     C_R   0.462035 0.902481 0.413093 0.436566
C29   C     C_R   0.450798 0.187449 0.567708 -0.294626
C30   C     C_R   0.466374 0.810412 0.414656 -0.306245
C31   C     C_3   0.800748 0.380087 0.325349 0.048516
C32   C     C_3   0.777676 0.370786 0.215480 -0.330074
C33   C     C_3   0.759200 0.274477 0.183569 -0.934209
C34   C     C_R   0.499390 0.766759 0.500048 -0.167456
C35   C     C_3   0.193365 0.384436 0.672691 0.040955
C36   C     C_3   0.200826 0.376817 0.782900 -0.317316
C37   C     C_3   0.224640 0.282629 0.815016 -0.933261
C38   C     C_3   0.347963 0.321689 0.236512 0.072496
C39   C     C_3   0.275466 0.280134 0.304411 -0.320820
C40   C     C_3   0.272319 0.179474 0.295739 -0.942978
C41   C     C_3   0.684451 0.635832 0.757538 0.085395
C42   C     C_3   0.740168 0.693194 0.838759 -0.354248
C43   C     C_3   0.854533 0.703849 0.825873 -0.943012
C44   C     C_3   0.251884 0.486610 0.040163 0.086311
C45   C     C_R   0.545948 0.188656 0.426208 -0.315982
C46   C     C_3   0.149262 0.438596 0.049436 -0.325178
C47   C     C_3   0.059522 0.502114 0.038838 -0.952805
C48   C     C_3   0.452006 0.699036 0.961117 0.060651
C49   C     C_3   0.422796 0.762036 0.877542 -0.306291
C50   C     C_3   0.331098 0.818141 0.897762 -0.917658
C51   C     C_3   0.295014 0.025679 0.594397 0.079976
C52   C     C_3   0.217367 0.095668 0.617533 -0.369668
C53   C     C_3   0.107711 0.066022 0.582366 -0.947386
C54   C     C_3   0.322671 0.934232 0.306419 0.039322
C55   C     C_3   0.295071 0.951025 0.198705 -0.296621
C56   C     C_R   0.532444 0.815685 0.583759 -0.291515
C57   C     C_3   0.178805 0.948179 0.172631 -0.946661
C58   C     C_3   0.693973 0.025899 0.384263 0.087898
C59   C     C_3   0.771465 0.103421 0.403298 -0.407695
C60   C     C_3   0.882198 0.072319 0.407421 -0.929793
C61   C     C_3   0.667443 0.990393 0.666459 0.075486
C62   C     C_3   0.751145 0.920155 0.675044 -0.399375
C63   C     C_3   0.858382 0.962688 0.691855 -0.913396
C64   C     C_R   0.549221 0.096676 0.426057 0.465710
C65   C     C_R   0.536761 0.907754 0.582084 0.453618
C66   C     C_R   0.497404 0.049153 0.494857 -0.095225
Cu1   Cu    Cu3+1 0.500000 0.499990 0.596430 0.963094
Cu2   Cu    Cu3+1 0.500000 0.500010 0.403570 0.966528
H1    H     H_    0.825922 0.493427 0.682396 0.169061
H2    H     H_    0.871361 0.341732 0.347098 0.127119
H3    H     H_    0.708120 0.408473 0.191543 0.235596
H4    H     H_    0.843435 0.398638 0.179615 0.211752
H5    H     H_    0.827525 0.234528 0.206831 0.259775
H6    H     H_    0.745220 0.270544 0.103366 0.261723
H7    H     H_    0.690425 0.246860 0.214796 0.255936
H8    H     H_    0.264010 0.357792 0.645138 0.151290
H9    H     H_    0.126078 0.342768 0.642104 0.121528
H10   H     H_    0.261751 0.422719 0.816208 0.248930
H11   H     H_    0.126768 0.396511 0.809302 0.202542
H12   H     H_    0.174453 0.494457 0.316316 0.211127
H13   H     H_    0.160791 0.236833 0.787191 0.253790
H14   H     H_    0.233383 0.280139 0.895344 0.272265
H15   H     H_    0.297456 0.260643 0.787885 0.249542
H16   H     H_    0.427186 0.296974 0.255526 0.144993
H17   H     H_    0.321447 0.300703 0.161004 0.171513
H18   H     H_    0.301050 0.299720 0.380517 0.218627
H19   H     H_    0.196470 0.305176 0.286521 0.213243
H20   H     H_    0.241327 0.158643 0.221397 0.259097
H21   H     H_    0.221543 0.151695 0.348120 0.250417
H22   H     H_    0.350528 0.152619 0.311946 0.282443
H23   H     H_    0.413971 0.222451 0.623204 0.153845
H24   H     H_    0.710290 0.566225 0.766391 0.114750
H25   H     H_    0.707871 0.658671 0.686868 0.167526
H26   H     H_    0.704878 0.759413 0.839744 0.237661
H27   H     H_    0.732490 0.661667 0.909653 0.241449
H28   H     H_    0.893034 0.744511 0.886539 0.265487
H29   H     H_    0.865243 0.737553 0.756713 0.261548
H30   H     H_    0.891232 0.638118 0.825756 0.256678
H31   H     H_    0.249106 0.519278 0.968603 0.143115
H32   H     H_    0.262045 0.539583 0.097508 0.125974
H33   H     H_    0.136570 0.385901 0.992857 0.221259
H34   H     H_    0.441967 0.773141 0.348942 0.176798
H35   H     H_    0.151570 0.406942 0.121520 0.227886
H36   H     H_    0.069423 0.554353 0.096195 0.259020
H37   H     H_    0.986452 0.465118 0.046118 0.254913
H38   H     H_    0.054495 0.533454 0.966521 0.256940
H39   H     H_    0.465662 0.738498 0.029407 0.171218
H40   H     H_    0.386505 0.652545 0.971052 0.111728
H41   H     H_    0.489522 0.806405 0.866883 0.247820
H42   H     H_    0.402463 0.723251 0.809632 0.229825
H43   H     H_    0.263130 0.775042 0.907540 0.251004
H44   H     H_    0.311445 0.862421 0.835655 0.269769
H45   H     H_    0.582442 0.224725 0.371314 0.161129
H46   H     H_    0.350057 0.859540 0.964036 0.255246
H47   H     H_    0.988892 0.484745 0.297735 0.187425
H48   H     H_    0.010461 0.487783 0.700342 0.180053
H49   H     H_    0.274840 0.962761 0.629287 0.169660
H50   H     H_    0.288810 0.011548 0.515000 0.101554
H51   H     H_    0.223000 0.107448 0.697088 0.234467
H52   H     H_    0.235013 0.158805 0.581849 0.204599
H53   H     H_    0.100644 0.054132 0.502790 0.259576
H54   H     H_    0.053353 0.118391 0.599175 0.259443
H55   H     H_    0.086696 0.004301 0.619070 0.263954
H56   H     H_    0.557913 0.782803 0.650318 0.214306
H57   H     H_    0.283954 0.983710 0.349480 0.141231
H58   H     H_    0.293189 0.866823 0.322574 0.124780
H59   H     H_    0.326221 0.016807 0.179827 0.233956
H60   H     H_    0.330862 0.899815 0.155331 0.212533
H61   H     H_    0.146449 0.882122 0.188816 0.257862
H62   H     H_    0.161541 0.960730 0.094075 0.260440
H63   H     H_    0.141526 0.999752 0.214180 0.258914
H64   H     H_    0.719381 0.983270 0.325625 0.183897
H65   H     H_    0.693810 0.983124 0.448735 0.109517
H66   H     H_    0.759107 0.152389 0.344698 0.233780
H67   H     H_    0.641779 0.572526 0.083693 0.201805
H68   H     H_    0.759563 0.136605 0.473174 0.200483
H69   H     H_    0.896207 0.021088 0.463539 0.263414
H70   H     H_    0.935657 0.129405 0.425419 0.256767
H71   H     H_    0.898111 0.044344 0.336079 0.260136
H72   H     H_    0.680433 0.036012 0.730043 0.180347
H73   H     H_    0.674463 0.032011 0.602061 0.110237
H74   H     H_    0.738875 0.876364 0.736609 0.236565
H75   H     H_    0.746555 0.879250 0.607600 0.204181
H76   H     H_    0.871369 0.009288 0.632832 0.258767
H77   H     H_    0.917295 0.910560 0.693396 0.256859
H78   H     H_    0.448952 0.362435 0.922040 0.207943
H79   H     H_    0.867360 0.999219 0.762226 0.259935
H80   H     H_    0.637140 0.577268 0.260371 0.192312
H81   H     H_    0.444510 0.367252 0.745263 0.163943
H82   H     H_    0.735436 0.351199 0.361243 0.152340
N1    N     N_R   0.500000 0.500020 0.258690 -0.223233
N2    N     N_R   0.500000 0.499980 0.741310 -0.225545
O1    O     O_R   0.500010 0.371450 0.581430 -0.602662
O2    O     O_3   0.184896 0.474858 0.648081 -0.598752
O3    O     O_3   0.344444 0.414622 0.246739 -0.597721
O4    O     O_3   0.576478 0.645278 0.754846 -0.609510
O5    O     O_3   0.331429 0.423889 0.045227 -0.633268
O6    O     O_3   0.544764 0.655817 0.946956 -0.623811
O7    O     O_3   0.395326 0.051546 0.633507 -0.571998
O8    O     O_3   0.430372 0.944170 0.327296 -0.565499
O9    O     O_3   0.594320 0.054989 0.351781 -0.568861
O10   O     O_3   0.567655 0.952540 0.668178 -0.571983
O11   O     O_R   0.499990 0.628550 0.418570 -0.591601
O12   O     O_R   0.500010 0.371460 0.418560 -0.582107
O13   O     O_R   0.499990 0.628540 0.581440 -0.538291
O14   O     O_R   0.349000 0.499980 0.568210 -0.541225
O15   O     O_R   0.651000 0.500020 0.431790 -0.548815
O16   O     O_R   0.349000 0.499990 0.405340 -0.542482
O17   O     O_R   0.651000 0.500010 0.594660 -0.604407
O18   O     O_3   0.813071 0.471054 0.350294 -0.609980

loop_
_geom_bond_atom_site_label_1
_geom_bond_atom_site_label_2
_ccdc_geom_bond_type
C34   C56   A    
C16   C21   A    
C23   C45   A    
C27   C29   A    
C11   C13   S    
C41   C42   S    
C35   C36   S    
C18   C26   A    
C35   O2    S    
C39   H19   S    
C62   H75   S    
C2    C65   A    
C15   O15   A    
C51   H50   S    
C32   H4    S    
Cu1   O17   S    
C54   H58   S    
C23   C29   A    
C57   H61   S    
C36   C37   S    
C19   C21   A    
C24   C26   A    
C53   H54   S    
C38   C39   S    
C44   H31   S    
C48   H39   S    
C27   O7    S    
C15   C16   S    
C53   H53   S    
C59   H68   S    
C28   O8    S    
C17   C20   A    
C15   O17   A    
C4    C13   A    
C46   C47   S    
C6    H81   S    
C33   H7    S    
C31   H2    S    
C41   H25   S    
C1    O12   A    
C58   H64   S    
C47   H37   S    
C22   C25   A    
C65   O10   S    
C63   H76   S    
C43   H30   S    
C19   H48   S    
C40   H21   S    
C14   O14   A    
C24   O18   S    
C10   O6    S    
C18   C20   A    
C60   H69   S    
C41   O4    S    
C6    N2    A    
Cu1   O13   S    
C59   C60   S    
C16   C24   A    
C5    H80   S    
C44   O5    S    
C14   C17   S    
C37   H13   S    
C38   O3    S    
C62   H74   S    
C8    O4    S    
C63   H79   S    
C46   H33   S    
C44   C46   S    
C32   H3    S    
Cu2   O12   S    
C58   H65   S    
C54   H57   S    
C35   H8    S    
C30   C34   A    
C38   H17   S    
Cu1   Cu2   S    
C57   H62   S    
C4    C6    A    
C53   H55   S    
C12   O13   A    
C31   H82   S    
C20   H12   S    
C3    C5    A    
C25   C26   A    
C48   O6    S    
C61   O10   S    
C10   C13   A    
C42   H27   S    
C21   H1    S    
C50   H46   S    
C64   C66   A    
Cu2   O15   S    
C62   C63   S    
C31   C32   S    
C9    O5    S    
C47   H38   S    
C4    H78   S    
C30   H34   S    
C50   H44   S    
C43   H28   S    
C1    O1    A    
C9    C11   A    
C7    N1    A    
C52   H52   S    
Cu1   O14   S    
C33   H5    S    
C48   C49   S    
C55   H59   S    
C1    C23   S    
C55   C57   S    
C37   H14   S    
C42   C43   S    
C14   O16   A    
C56   H56   S    
C29   H23   S    
C52   C53   S    
C49   H41   S    
C22   O2    S    
Cu2   O11   S    
C61   H73   S    
C7    C9    A    
C54   C55   S    
C47   H36   S    
C45   C64   A    
C38   H16   S    
Cu1   N2    S    
C42   H26   S    
C57   H63   S    
C43   H29   S    
C64   O9    S    
C2    C66   S    
C36   H11   S    
C18   H47   S    
C61   H72   S    
C31   O18   S    
C46   H35   S    
C59   H66   S    
C17   C22   A    
C5    N1    A    
Cu1   O1    S    
C32   C33   S    
C40   H20   S    
C28   C30   A    
C58   C59   S    
C51   C52   S    
C27   C66   A    
C36   H10   S    
C12   O11   A    
C44   H32   S    
C48   H40   S    
C8    N2    A    
C51   O7    S    
C50   H43   S    
C51   H49   S    
C35   H9    S    
C3    H67   S    
C61   C62   S    
C19   C25   A    
Cu2   O16   S    
C3    C11   A    
C60   H71   S    
C54   O8    S    
C39   C40   S    
C52   H51   S    
C45   H45   S    
C33   H6    S    
C41   H24   S    
C7    O3    S    
C55   H60   S    
C8    C10   A    
C49   C50   S    
Cu2   N1    S    
C37   H15   S    
C2    C28   A    
C39   H18   S    
C40   H22   S    
C58   O9    S    
C12   C34   S    
C63   H77   S    
C56   C65   A    
C60   H70   S    
C49   H42   S    
