data_mof_unit_41177.cif
_audit_creation_date              2012-12-10T17:11:01-0500
_audit_creation_method            fapswitch 2.2
_symmetry_space_group_name_H-M    P1
_symmetry_Int_Tables_number       1
_space_group_crystal_system       triclinic
_cell_length_a                    18.232682
_cell_length_b                    18.298773
_cell_length_c                    18.262538
_cell_angle_alpha                 90.283948
_cell_angle_beta                  119.582699
_cell_angle_gamma                 120.022514
_cell_volume                      4323.34021949

loop_
_atom_site_label
_atom_site_type_symbol
_atom_type_description
_atom_site_fract_x
_atom_site_fract_y
_atom_site_fract_z
_atom_type_partial_charge
C1    C     C_R   0.996799 0.857230 0.638040 0.831510
C2    C     C_R   0.196731 0.386625 0.277791 -0.168745
C3    C     C_R   0.102100 0.319908 0.264539 0.093901
C4    C     C_R   0.001706 0.140086 0.360115 0.771002
C5    C     C_R   0.102133 0.265253 0.319372 0.097510
C6    C     C_R   0.006946 0.196291 0.304118 -0.061939
C7    C     C_R   0.913898 0.179300 0.233177 -0.204012
C8    C     C_R   0.913852 0.232519 0.179609 -0.202336
C9    C     C_R   0.006846 0.303897 0.195925 -0.066678
C10   C     C_R   0.609617 0.925816 0.239308 -0.120203
C11   C     C_R   0.556680 0.956425 0.179540 -0.143088
C12   C     C_3   0.080545 0.299902 0.720881 -0.387232
C13   C     C_R   0.449279 0.902461 0.124134 -0.107147
C14   C     C_R   0.394094 0.817819 0.128600 -0.057618
C15   C     C_R   0.446115 0.784901 0.188017 0.104918
C16   C     C_R   0.280000 0.139847 0.637290 0.777206
C17   C     C_R   0.555486 0.839306 0.243901 0.045543
C18   C     C_R   0.607645 0.806709 0.304350 -0.238902
C19   C     C_R   0.551483 0.722031 0.310695 0.465269
C20   C     C_R   0.444263 0.670679 0.257065 -0.268803
C21   C     C_R   0.391800 0.700282 0.195242 -0.140712
C22   C     C_R   0.863223 0.797793 0.709036 -0.148807
C23   C     C_3   0.000532 0.199005 0.699412 0.155213
C24   C     C_R   0.831381 0.801730 0.763739 0.210613
C25   C     C_R   0.881911 0.796818 0.848949 -0.312382
C26   C     C_R   0.956219 0.779132 0.876363 0.368559
C27   C     C_R   0.974168 0.759721 0.813639 -0.016247
C28   C     C_R   0.720035 0.860513 0.360246 0.894951
C29   C     C_R   0.943368 0.786560 0.737844 -0.008167
C30   C     C_R   0.993900 0.800001 0.694381 -0.049464
C31   C     C_R   0.053165 0.766448 0.713624 -0.192932
C32   C     C_R   0.059984 0.718585 0.772170 -0.213786
C33   C     C_R   0.017605 0.712034 0.820288 -0.046277
C34   C     C_3   0.000352 0.300526 0.801639 0.171582
C35   C     C_R   0.174441 0.936546 0.344994 -0.263291
C36   C     C_R   0.258445 0.971667 0.339255 -0.249878
C37   C     C_R   0.262106 0.916339 0.290235 0.537298
C38   C     C_R   0.178827 0.826227 0.243416 -0.158083
C39   C     C_R   0.091895 0.789993 0.246709 0.044284
C40   C     C_R   0.000468 0.859744 0.359183 0.795565
C41   C     C_R   0.090766 0.845281 0.299617 0.104097
C42   C     C_R   0.003970 0.808097 0.303077 -0.033625
C43   C     C_R   0.917485 0.720248 0.251050 -0.187425
C44   C     C_R   0.917357 0.666829 0.197391 -0.220737
C45   C     C_3   0.033556 0.241241 0.850530 0.087021
C46   C     C_R   0.004277 0.700513 0.196416 -0.011579
C47   C     C_R   0.394490 0.099681 0.592478 -0.190954
C48   C     C_R   0.449653 0.079843 0.574445 -0.116095
C49   C     C_R   0.556829 0.135637 0.626403 -0.119869
C50   C     C_R   0.609714 0.210610 0.698024 -0.188759
C51   C     C_R   0.555868 0.229421 0.721201 0.103145
C52   C     C_R   0.999901 0.141324 0.641226 0.762780
C53   C     C_R   0.446256 0.173712 0.666851 0.096515
C54   C     C_R   0.392319 0.195592 0.687309 -0.074126
C55   C     C_R   0.446389 0.272657 0.757604 -0.204712
C56   C     C_3   0.080076 0.359381 0.780130 -0.459576
C57   C     C_R   0.553088 0.326037 0.811240 -0.209969
C58   C     C_R   0.608205 0.303966 0.795397 -0.070625
C59   C     C_R   0.279837 0.641045 0.139662 0.825249
C60   C     C_R   0.720142 0.360026 0.857815 0.778623
C61   C     C_R   0.001645 0.360015 0.139907 0.779285
C62   C     C_R   0.004648 0.644354 0.864266 0.871402
C63   C     C_R   0.000327 0.641113 0.140710 0.822549
C64   C     C_3   0.892089 0.180228 0.651968 -0.385320
C65   C     C_R   0.000362 0.358655 0.858969 0.760765
C66   C     C_3   0.893097 0.242601 0.710280 -0.394166
C67   C     C_R   0.196738 0.278985 0.385473 -0.169023
C68   C     C_3   0.029548 0.179143 0.788412 -0.432194
C69   C     C_3   0.775335 0.898536 0.717586 -0.741476
C70   C     C_3   0.870252 0.124405 0.838496 -0.720349
C71   C     C_R   0.289123 0.346360 0.398285 -0.132265
C72   C     C_R   0.289108 0.400026 0.344702 -0.115305
H1    H     H_    0.833544 0.109157 0.638287 0.183882
H2    H     H_    0.840789 0.219280 0.126329 0.157222
H3    H     H_    0.868474 0.191033 0.586338 0.165737
H4    H     H_    0.692988 0.971214 0.282318 0.123186
H5    H     H_    0.599234 0.022649 0.176745 0.133536
H6    H     H_    0.408444 0.926759 0.078324 0.153467
H7    H     H_    0.310670 0.779477 0.086188 0.160581
H8    H     H_    0.400618 0.605790 0.261868 0.193891
H9    H     H_    0.090949 0.773974 0.680594 0.174003
H10   H     H_    0.820380 0.798699 0.642681 0.231180
H11   H     H_    0.866590 0.811182 0.895415 0.175099
H12   H     H_    0.159129 0.404232 0.842860 0.184266
H13   H     H_    0.876854 0.287345 0.674621 0.159091
H14   H     H_    0.097174 0.685475 0.778630 0.171138
H15   H     H_    0.850348 0.692802 0.252809 0.161465
H16   H     H_    0.174697 0.981716 0.383722 0.141798
H17   H     H_    0.320908 0.042181 0.373560 0.186343
H18   H     H_    0.182188 0.785474 0.203684 0.186770
H19   H     H_    0.849981 0.598390 0.157652 0.142332
H20   H     H_    0.405652 0.290194 0.772901 0.162588
H21   H     H_    0.311496 0.056935 0.546462 0.155446
H22   H     H_    0.409146 0.021672 0.518987 0.161849
H23   H     H_    0.106619 0.190982 0.822251 0.140753
H24   H     H_    0.829019 0.203109 0.717939 0.176831
H25   H     H_    0.599230 0.121441 0.610449 0.151964
H26   H     H_    0.692707 0.253883 0.733271 0.148133
H27   H     H_    0.592963 0.383797 0.867128 0.161457
H28   H     H_    0.974099 0.107325 0.775087 0.191691
H29   H     H_    0.159492 0.315555 0.755846 0.183949
H30   H     H_    0.061953 0.315736 0.657861 0.191755
H31   H     H_    0.060763 0.403173 0.745091 0.196236
H32   H     H_    0.564904 0.546748 0.398548 0.381177
H33   H     H_    0.722810 0.802660 0.772842 0.229155
H34   H     H_    0.116615 0.289043 0.906887 0.093850
H35   H     H_    0.710412 0.903839 0.697686 0.236834
H36   H     H_    0.785429 0.901458 0.662245 0.265835
H37   H     H_    0.846858 0.956044 0.778827 0.229196
H38   H     H_    0.919249 0.739472 0.005291 0.346430
H39   H     H_    0.407069 0.014607 0.194885 0.371397
H40   H     H_    0.022225 0.175351 0.941757 0.228423
H41   H     H_    0.851484 0.074555 0.872390 0.224402
H42   H     H_    0.841093 0.088152 0.771319 0.223275
H43   H     H_    0.828655 0.154549 0.832218 0.263900
H44   H     H_    0.840851 0.125675 0.220476 0.151858
H45   H     H_    0.200540 0.237032 0.426654 0.146818
H46   H     H_    0.360892 0.356120 0.449213 0.147903
H47   H     H_    0.360832 0.451457 0.354142 0.185498
H48   H     H_    0.200580 0.427847 0.235818 0.148236
N1    N     N_2   0.752207 0.815228 0.734913 -0.279729
N2    N     N_2   0.980973 0.192853 0.891889 -0.285425
O1    O     O_3   0.000000 0.000000 0.500000 -0.489435
O2    O     O_R   0.939290 0.616110 0.884440 -0.631523
O3    O     O_R   0.060700 0.616880 0.177520 -0.646387
O4    O     O_R   0.939250 0.884470 0.616070 -0.644659
O5    O     O_R   0.060740 0.443890 0.883140 -0.657599
O6    O     O_R   0.939270 0.616890 0.056080 -0.626372
O7    O     O_R   0.939290 0.322450 0.883140 -0.633941
O8    O     O_R   0.939260 0.323230 0.054780 -0.631441
O9    O     O_R   0.060750 0.615550 0.883900 -0.652812
O10   O     O_R   0.231610 0.616100 0.176760 -0.623577
O11   O     O_R   0.768390 0.445230 0.884440 -0.646365
O12   O     O_R   0.231620 0.176800 0.616070 -0.643510
O13   O     O_R   0.060740 0.176800 0.445190 -0.647318
O14   O     O_R   0.231610 0.054800 0.615530 -0.647270
O15   O     O_R   0.768390 0.883920 0.323210 -0.645783
O16   O     O_R   0.060730 0.883140 0.443890 -0.647190
O17   O     O_R   0.939260 0.056140 0.616830 -0.657328
O18   O     O_R   0.939300 0.883140 0.322450 -0.624235
O19   O     O_R   0.060710 0.177580 0.616830 -0.647696
O20   O     O_2   0.702662 0.696290 0.383835 -0.330771
O21   O     O_2   0.649008 0.718875 0.476400 -0.308469
O22   O     O_3   0.527654 0.565355 0.351102 -0.592208
O23   O     O_R   0.768380 0.884480 0.445190 -0.593392
O24   O     O_2   0.106586 0.775302 0.022009 -0.329703
O25   O     O_2   0.123698 0.916045 0.023678 -0.221710
O26   O     O_3   0.988141 0.796685 0.045720 -0.539809
O27   O     O_2   0.461255 0.046211 0.361643 -0.336421
O28   O     O_2   0.396163 0.893118 0.291648 -0.315845
O29   O     O_3   0.340241 0.978053 0.188035 -0.487094
O30   O     O_R   0.060710 0.883920 0.615530 -0.638643
O31   O     O_R   0.939300 0.054810 0.323210 -0.639368
O32   O     O_3   1.000000 0.500030 0.999970 -0.485610
O33   O     O_R   0.231620 0.615550 0.054780 -0.651174
O34   O     O_R   0.768380 0.323230 0.883900 -0.651636
O35   O     O_R   0.060700 0.445220 0.176760 -0.644943
S1    S     S_3+6 0.612081 0.676868 0.383632 0.010079
S2    S     S_3+6 0.047667 0.816452 0.993909 0.045955
S3    S     S_3+6 0.369932 0.959706 0.285757 0.021598
Zn1   Zn    Zn3+2 0.086760 0.130530 0.543760 0.950436
Zn2   Zn    Zn3+2 0.086760 0.956230 0.542990 0.980572
Zn3   Zn    Zn3+2 0.913250 0.956230 0.369490 0.993703
Zn4   Zn    Zn3+2 0.913230 0.957020 0.543760 1.009323
Zn5   Zn    Zn3+2 0.913240 0.369500 0.956210 0.957113
Zn6   Zn    Zn3+2 0.086750 0.543800 0.130490 0.999034
Zn7   Zn    Zn3+2 0.913240 0.543800 0.956980 0.999857
Zn8   Zn    Zn3+2 0.086770 0.543010 0.956210 0.975415

loop_
_geom_bond_atom_site_label_1
_geom_bond_atom_site_label_2
_ccdc_geom_bond_type
C36   H17   S    
C23   C68   S    
C34   C56   S    
C22   C29   A    
C27   C29   A    
C41   C42   A    
C35   C36   A    
C5    C67   A    
O25   S2    D    
C34   C66   S    
C66   H13   S    
C62   O2    A    
C69   H35   S    
C7    C8    A    
C39   C41   A    
O14   Zn2   S    
C53   C54   A    
C27   C33   A    
O18   Zn3   S    
C12   H30   S    
C12   C23   S    
C26   C27   A    
C29   C30   A    
O28   S3    D    
O31   Zn3   S    
C9    C61   S    
C65   O5    A    
C37   S3    S    
C36   C37   A    
O10   Zn6   S    
C21   C59   S    
O11   Zn7   S    
C30   C31   A    
O1    Zn1   S    
H38   O26   S    
C10   C17   A    
C58   C60   S    
C57   H27   S    
C52   O17   A    
C1    O30   A    
C18   C19   A    
C51   C58   A    
C24   N1    S    
C11   H5    S    
C54   C55   A    
C69   H37   S    
C47   C48   A    
C33   C62   S    
C40   O16   A    
O6    Zn7   S    
C64   H1    S    
H32   O22   S    
O32   Zn5   S    
C63   O6    A    
C47   C53   A    
C12   H29   S    
C2    C72   A    
C40   C42   S    
C4    O31   A    
C16   O12   A    
C13   C14   A    
O13   Zn1   S    
O32   Zn8   S    
C10   H4    S    
O20   S1    D    
O4    Zn4   S    
C34   C65   S    
C69   H36   S    
C44   C46   A    
C56   H12   S    
C57   C58   A    
C70   H41   S    
C47   H21   S    
C38   C39   A    
C59   O10   A    
C50   H26   S    
C68   H23   S    
C20   H8    S    
C18   C28   S    
C1    O4    A    
C4    C6    S    
O15   Zn3   S    
O1    Zn2   S    
C2    H48   S    
C8    C9    A    
O24   S2    D    
C50   C51   A    
C25   C26   A    
C70   H42   S    
H39   O29   S    
C51   C53   A    
O26   S2    S    
C64   C66   S    
C7    H44   S    
C43   C44   A    
C68   H28   S    
H40   N2    S    
C37   C38   A    
C3    C9    A    
C61   O35   A    
O2    Zn7   S    
O1    Zn3   S    
C35   H16   S    
C70   N2    S    
C31   C32   A    
C69   N1    S    
O33   Zn8   S    
C32   H14   S    
C45   C68   S    
C8    H2    S    
C17   C18   A    
C28   O23   A    
H33   N1    S    
C26   S2    S    
O16   Zn2   S    
C34   C45   S    
C12   C56   S    
C14   H7    S    
C24   C25   A    
C67   H45   S    
C63   O3    A    
C44   H19   S    
C48   H22   S    
C61   O8    A    
C4    O13   A    
C48   C49   A    
C55   H20   S    
O9    Zn8   S    
C39   C46   A    
C70   H43   S    
C22   C24   A    
O32   Zn7   S    
C42   C43   A    
O22   S1    S    
C16   O14   A    
C22   H10   S    
C45   H34   S    
O21   S1    D    
C66   H24   S    
C15   C17   A    
C13   H6    S    
C23   C64   S    
C59   O33   A    
C71   H46   S    
C19   S1    S    
C62   O9    A    
C28   O15   A    
C56   H31   S    
C3    C5    A    
O5    Zn8   S    
O35   Zn6   S    
C65   O7    A    
C6    C7    A    
O23   Zn4   S    
C45   N2    S    
C38   H18   S    
C52   O19   A    
C31   H9    S    
O12   Zn1   S    
O7    Zn5   S    
C46   C63   S    
C43   H15   S    
C32   C33   A    
C19   C20   A    
C55   C57   A    
C2    C3    A    
C71   C72   A    
O29   S3    S    
O1    Zn4   S    
C11   C13   A    
O8    Zn5   S    
C23   C52   S    
C5    C6    A    
O34   Zn5   S    
C40   O18   A    
C72   H47   S    
C1    C30   S    
C64   H3    S    
O3    Zn6   S    
C67   C71   A    
C60   O34   A    
O19   Zn1   S    
C35   C41   A    
O27   S3    D    
C16   C54   S    
O17   Zn4   S    
C10   C11   A    
C49   H25   S    
C15   C21   A    
C20   C21   A    
C49   C50   A    
C25   H11   S    
C14   C15   A    
O32   Zn6   S    
C60   O11   A    
O30   Zn2   S    
