data_mof_unit_20882.cif
_audit_creation_date              2012-12-11T16:37:22-0500
_audit_creation_method            fapswitch 2.2
_symmetry_space_group_name_H-M    P1
_symmetry_Int_Tables_number       1
_space_group_crystal_system       triclinic
_cell_length_a                    19.514163
_cell_length_b                    6.938034
_cell_length_c                    17.658589
_cell_angle_alpha                 90.117477
_cell_angle_beta                  108.996654
_cell_angle_gamma                 90.129771
_cell_volume                      2260.57097315

loop_
_atom_site_label
_atom_site_type_symbol
_atom_type_description
_atom_site_fract_x
_atom_site_fract_y
_atom_site_fract_z
_atom_type_partial_charge
O1    O     O_R   0.561710 0.369960 0.440200 -0.510982
O2    O     O_R   0.061710 0.630040 0.940200 -0.512749
O3    O     O_R   0.412630 0.033330 0.406330 -0.504494
O4    O     O_R   0.912630 0.966670 0.906330 -0.500399
O5    O     O_R   0.438290 0.869790 0.559800 -0.512532
O6    O     O_R   0.938290 0.130210 0.059800 -0.521073
C1    C     C_R   0.384922 0.202667 0.383025 0.805437
C2    C     C_R   0.886051 0.796134 0.881450 0.793818
O7    O     O_R   0.559570 0.039810 0.430640 -0.548352
O8    O     O_R   0.059570 0.960190 0.930640 -0.554808
O9    O     O_R   0.586280 0.876320 0.584290 -0.553477
O10   O     O_R   0.086280 0.123680 0.084290 -0.554322
C3    C     C_R   0.581014 0.209274 0.415302 0.789292
C4    C     C_R   0.082301 0.791282 0.916848 0.776717
O11   O     O_R   0.413720 0.363440 0.415710 -0.520599
O12   O     O_R   0.913720 0.636560 0.915710 -0.514498
O13   O     O_3   0.508590 0.205630 0.550380 -0.398486
O14   O     O_3   0.008590 0.794370 0.050380 -0.397060
V1    V     V_3+5 0.498410 0.928130 0.490650 1.581577
V2    V     V_3+5 0.998410 0.071870 0.990650 1.561320
O15   O     O_R   0.587370 0.546990 0.593670 -0.548424
O16   O     O_R   0.087370 0.453010 0.093670 -0.552398
C5    C     C_R   0.614056 0.717363 0.618035 0.728296
C6    C     C_R   0.115175 0.283538 0.116921 0.706027
O17   O     O_R   0.440430 0.540520 0.569360 -0.543812
O18   O     O_R   0.940430 0.459480 0.069360 -0.545620
C7    C     C_R   0.420486 0.709277 0.586275 0.876185
C8    C     C_R   0.920282 0.290740 0.085703 0.883158
V3    V     V_3+5 0.501590 0.428960 0.509350 1.538679
V4    V     V_3+5 0.001590 0.571040 0.009350 1.528647
O19   O     O_3   0.491410 0.701330 0.449620 -0.356905
O20   O     O_3   0.991410 0.298670 0.949620 -0.350098
C9    C     C_R   0.270952 0.869938 0.665501 0.582870
C10   C     C_R   0.753876 0.192725 0.144894 0.581140
C11   C     C_R   0.316697 0.854264 0.619134 0.522797
C12   C     C_R   0.801909 0.203489 0.100966 0.533201
C13   C     C_R   0.374245 0.720914 0.638818 -0.375402
C14   C     C_R   0.871948 0.280406 0.135282 -0.377356
C15   C     C_R   0.386491 0.604620 0.708538 -0.129833
C16   C     C_R   0.894218 0.344803 0.216000 -0.146772
C17   C     C_R   0.339541 0.622669 0.754612 0.663100
C18   C     C_R   0.846379 0.324897 0.260794 0.654027
C19   C     C_R   0.281478 0.753452 0.733077 -0.161612
C20   C     C_R   0.775624 0.251933 0.225460 -0.151227
C21   C     C_R   0.193163 0.599176 0.790735 0.614673
C22   C     C_R   0.712677 0.403717 0.314457 0.613801
C23   C     C_R   0.147342 0.605913 0.837333 0.485219
C24   C     C_R   0.666124 0.394415 0.360211 0.490420
C25   C     C_R   0.133654 0.781474 0.870039 -0.356529
C26   C     C_R   0.629840 0.221190 0.365566 -0.364732
C27   C     C_R   0.171369 0.947006 0.859405 -0.361627
C28   C     C_R   0.641162 0.059085 0.323107 -0.323338
H1    H     H_    0.164440 0.082765 0.886265 0.248287
H2    H     H_    0.613960 0.924040 0.325382 0.230626
C29   C     C_R   0.220337 0.937911 0.816301 0.715836
C30   C     C_R   0.687583 0.068847 0.276987 0.711739
C31   C     C_R   0.230757 0.764374 0.780360 -0.166061
C32   C     C_R   0.724438 0.241102 0.272617 -0.168402
C33   C     C_R   0.808660 0.644141 0.749386 -0.102577
C34   C     C_R   0.309308 0.356509 0.253731 -0.104212
C35   C     C_R   0.818724 0.782967 0.811005 -0.214551
C36   C     C_R   0.317809 0.214711 0.312716 -0.207305
C37   C     C_R   0.760871 0.913044 0.802839 0.706265
C38   C     C_R   0.259376 0.086107 0.302538 0.681825
C39   C     C_R   0.694393 0.892821 0.739815 -0.296527
C40   C     C_R   0.194183 0.108044 0.238089 -0.306027
H3    H     H_    0.651107 0.993755 0.735879 0.144551
H4    H     H_    0.150003 0.008737 0.233094 0.150791
C41   C     C_R   0.682263 0.736481 0.685834 -0.142352
C42   C     C_R   0.183897 0.264750 0.184497 -0.133193
C43   C     C_R   0.741027 0.618262 0.691984 0.009277
C44   C     C_R   0.244139 0.381661 0.191661 -0.001407
C45   C     C_3   0.746600 0.406460 0.687891 -0.411490
C46   C     C_3   0.251899 0.595827 0.192141 -0.405217
C47   C     C_3   0.823811 0.430860 0.746257 0.695307
C48   C     C_3   0.323561 0.568890 0.260098 0.688321
H5    H     H_    0.741631 0.357936 0.626267 0.141485
H6    H     H_    0.257213 0.651072 0.135344 0.125166
H7    H     H_    0.709647 0.331654 0.714705 0.194935
H8    H     H_    0.209653 0.669481 0.211228 0.195208
F1    F     F_    0.214728 0.995624 0.642864 -0.568866
F2    F     F_    0.685292 0.128579 0.107832 -0.582442
C49   C     C_3   0.880222 0.378969 0.704789 -0.473888
C50   C     C_3   0.953188 0.314511 0.762691 -0.245881
C51   C     C_3   0.003293 0.248450 0.716811 -0.596486
H9    H     H_    0.976179 0.137681 0.671348 0.209179
H10   H     H_    0.019079 0.372964 0.686577 0.253997
H11   H     H_    0.052782 0.182255 0.758630 0.269597
H12   H     H_    0.978578 0.435747 0.803259 0.236958
H13   H     H_    0.944855 0.190961 0.798577 0.231474
H14   H     H_    0.858739 0.257149 0.662539 0.181504
H15   H     H_    0.888491 0.503008 0.668806 0.175260
C52   C     C_3   0.392751 0.635380 0.243079 -0.382469
C53   C     C_3   0.408728 0.529038 0.174092 -0.433048
C54   C     C_3   0.479342 0.601293 0.164335 -0.606691
H16   H     H_    0.475734 0.757948 0.150757 0.235827
H17   H     H_    0.525532 0.575282 0.219974 0.227262
H18   H     H_    0.489667 0.523093 0.114213 0.246798
H19   H     H_    0.414110 0.371872 0.186572 0.201926
H20   H     H_    0.364055 0.551712 0.116927 0.224271
H21   H     H_    0.388371 0.792690 0.230547 0.165944
H22   H     H_    0.439515 0.613645 0.298452 0.204481
F3    F     F_    0.833735 0.339388 0.818579 -0.613204
F4    F     F_    0.320546 0.641336 0.331934 -0.609336
F5    F     F_    0.303174 0.966538 0.552964 -0.585512
F6    F     F_    0.779112 0.143799 0.023454 -0.567207
C55   C     C_3   0.449759 0.465100 0.736628 -0.238788
C56   C     C_3   0.522417 0.572059 0.770204 -0.364597
C57   C     C_3   0.585930 0.431538 0.792750 -0.635625
H23   H     H_    0.581569 0.330188 0.839588 0.258757
H24   H     H_    0.586742 0.348140 0.739292 0.201188
H25   H     H_    0.637679 0.512733 0.816424 0.246378
H26   H     H_    0.529836 0.675405 0.725667 0.162483
H27   H     H_    0.523095 0.655194 0.824332 0.237510
H28   H     H_    0.443903 0.369195 0.784458 0.238893
H29   H     H_    0.449942 0.365754 0.687492 0.185597
C58   C     C_3   0.968880 0.430061 0.256534 -0.257670
C59   C     C_3   0.025119 0.271640 0.289844 -0.355050
C60   C     C_3   0.098569 0.357990 0.337571 -0.624676
H30   H     H_    0.119318 0.450362 0.298464 0.219854
H31   H     H_    0.093845 0.445736 0.388314 0.255706
H32   H     H_    0.137945 0.240474 0.362298 0.256519
H33   H     H_    0.006781 0.175674 0.329872 0.247842
H34   H     H_    0.031204 0.183470 0.239817 0.168653
H35   H     H_    0.985779 0.522933 0.214697 0.159101
H36   H     H_    0.967557 0.526994 0.306259 0.239538
F7    F     F_    0.351240 0.516025 0.822148 -0.616269
F8    F     F_    0.869556 0.372175 0.339879 -0.627869
F9    F     F_    0.200124 0.431123 0.754623 -0.544976
F10   F     F_    0.746104 0.573322 0.310710 -0.549522
F11   F     F_    0.117347 0.439303 0.851204 -0.684088
F12   F     F_    0.657840 0.555368 0.400211 -0.646114
F13   F     F_    0.259309 0.096859 0.811709 -0.547413
F14   F     F_    0.697475 0.908549 0.237771 -0.564876
F15   F     F_    0.766169 0.050270 0.859259 -0.573294
F16   F     F_    0.262205 0.952023 0.359171 -0.587818

loop_
_geom_bond_atom_site_label_1
_geom_bond_atom_site_label_2
_ccdc_geom_bond_type
C48   F4    S    
C40   H4    S    
C38   F16   S    
C21   F9    S    
C52   C53   S    
O13   V3    S    
C17   F7    S    
C20   C32   S    
C54   H16   S    
O4    C2    A    
V1    O19   S    
C37   C39   A    
C54   H18   S    
C6    C42   S    
C23   C25   A    
C51   H9    S    
C15   C55   S    
C49   H15   S    
C21   C31   A    
C46   C48   S    
C11   C13   A    
O3    C1    A    
C57   H24   S    
C60   H32   S    
C4    C25   S    
C34   C44   A    
O12   V4    S    
C56   C57   S    
C34   C36   A    
C21   C23   A    
C56   H27   S    
C41   C43   A    
C5    C41   S    
C59   C60   S    
O7    C3    A    
C9    C11   A    
O5    C7    A    
O7    V1    S    
O6    C8    A    
O8    V2    S    
C25   C27   A    
C26   C28   A    
C55   C56   S    
O3    V1    S    
O14   V4    S    
C53   H20   S    
V4    O20   S    
C58   H36   S    
C36   C38   A    
C18   F8    S    
C2    C35   S    
C24   C26   A    
C16   C58   S    
C2    O12   A    
C46   H8    S    
C22   C32   A    
C47   F3    S    
C17   C19   A    
C50   H13   S    
O1    V3    S    
C28   H2    S    
O11   V3    S    
C51   H10   S    
O17   V3    S    
C22   C24   A    
C33   C35   A    
C12   F6    S    
C9    C19   A    
C10   C20   A    
C50   C51   S    
C44   C46   S    
O8    C4    A    
C57   H25   S    
C52   H21   S    
C43   C45   S    
C1    O11   A    
C27   C29   A    
C39   H3    S    
C29   F13   S    
O15   V3    S    
C34   C48   S    
C23   F11   S    
C27   H1    S    
C37   F15   S    
C56   H26   S    
C1    C36   S    
C11   F5    S    
C48   C52   S    
C49   C50   S    
C8    C14   S    
O9    V1    S    
O10   V2    S    
C35   C37   A    
C45   H7    S    
C59   H34   S    
C55   H28   S    
C60   H31   S    
O18   V4    S    
O15   C5    A    
O16   C6    A    
O1    C3    A    
C50   H12   S    
C45   C47   S    
C12   C14   A    
C33   C47   S    
C49   H14   S    
V2    O20   S    
C51   H11   S    
O16   V4    S    
C16   C18   A    
C52   H22   S    
C22   F10   S    
C30   F14   S    
C60   H30   S    
C54   H17   S    
O5    V1    S    
O17   C7    A    
O6    V2    S    
O10   C6    A    
O18   C8    A    
O2    V4    S    
C29   C31   A    
C18   C20   A    
V3    O19   S    
C57   H23   S    
C14   C16   A    
C47   C49   S    
C40   C42   A    
C9    F1    S    
C53   H19   S    
C7    C13   S    
C39   C41   A    
O9    C5    A    
O13   V1    S    
C10   C12   A    
C30   C32   A    
O14   V2    S    
C59   H33   S    
C53   C54   S    
O2    C4    A    
C55   H29   S    
C19   C31   S    
C3    C26   S    
O4    V2    S    
C15   C17   A    
C13   C15   A    
C46   H6    S    
C33   C43   A    
C45   H5    S    
C24   F12   S    
C42   C44   A    
C10   F2    S    
C58   C59   S    
C58   H35   S    
C28   C30   A    
C38   C40   A    
