data_mof_unit_23633.cif
_audit_creation_date              2013-03-05T15:52:31-0500
_audit_creation_method            fapswitch 2.2
_symmetry_space_group_name_H-M    P1
_symmetry_Int_Tables_number       1
_space_group_crystal_system       triclinic
_cell_length_a                    27.739502
_cell_length_b                    10.849321
_cell_length_c                    9.602995
_cell_angle_alpha                 89.340057
_cell_angle_beta                  88.72355
_cell_angle_gamma                 93.310067
_cell_volume                      2884.2921881

loop_
_atom_site_label
_atom_site_type_symbol
_atom_site_description
_atom_site_fract_x
_atom_site_fract_y
_atom_site_fract_z
_atom_type_partial_charge
O1    O     O_R   0.500000 0.319640 0.618810 -0.595981
O2    O     O_R   0.500000 0.319660 0.381240 -0.585960
C1    C     C_R   0.501306 0.261989 0.502160 0.804254
O3    O     O_R   0.430260 0.500010 0.618770 -0.589464
O4    O     O_R   0.430270 0.500030 0.381200 -0.580005
C2    C     C_R   0.407444 0.499443 0.501492 0.794310
Cu1   Cu    Cu3+1 0.500000 0.499990 0.640660 0.930347
Cu2   Cu    Cu3+1 0.500000 0.500010 0.359340 0.951234
O5    O     O_R   0.500000 0.680340 0.618760 -0.609122
O6    O     O_R   0.500000 0.680360 0.381190 -0.566922
O7    O     O_R   0.569730 0.499970 0.618800 -0.606477
O8    O     O_R   0.569740 0.499990 0.381230 -0.596326
C3    C     C_R   0.495408 0.736171 0.499975 0.838603
C4    C     C_R   0.592499 0.498652 0.498916 0.828137
C5    C     C_R   0.174767 0.388696 0.552310 0.623254
O9    O     O_2   0.197433 0.282109 0.547961 -0.490212
N1    N     N_R   0.201313 0.497334 0.529003 -0.454746
C6    C     C_R   0.180188 0.607582 0.522594 0.590902
C7    C     C_R   0.277403 0.496571 0.386277 0.032393
C8    C     C_R   0.328054 0.498203 0.382429 -0.301576
C9    C     C_R   0.329302 0.497421 0.634767 -0.206812
C10   C     C_R   0.279176 0.496270 0.640062 -0.134981
C11   C     C_R   0.252927 0.496129 0.517344 0.348879
C12   C     C_R   0.101462 0.500610 0.558398 -0.053955
C13   C     C_R   0.124108 0.388155 0.576310 -0.049904
C14   C     C_R   0.095593 0.280909 0.619801 -0.084667
C15   C     C_R   0.129915 0.611170 0.534007 -0.005627
C16   C     C_R   0.354266 0.498561 0.506031 -0.027757
H1    H     H_    0.348458 0.497553 0.731840 0.160723
H2    H     H_    0.260457 0.495956 0.740300 0.150762
C17   C     C_R   0.645621 0.497911 0.497226 -0.014533
C18   C     C_R   0.971917 0.390937 0.550178 0.073072
C19   C     C_R   0.976918 0.617990 0.548269 0.047913
C20   C     C_R   0.949238 0.504382 0.542372 0.067178
C21   C     C_R   0.944315 0.281373 0.520227 -0.124983
C22   C     C_R   0.894636 0.281455 0.503792 -0.118578
C23   C     C_R   0.871118 0.391883 0.510733 -0.024761
C24   C     C_R   0.898486 0.504025 0.526893 -0.042318
C25   C     C_R   0.875106 0.615756 0.527009 -0.020298
C26   C     C_R   0.824784 0.613140 0.513436 0.578733
N2    N     N_R   0.798757 0.502983 0.500435 -0.449635
C27   C     C_R   0.820800 0.393316 0.499399 0.606722
C28   C     C_R   0.722002 0.475309 0.371135 0.042987
C29   C     C_R   0.671343 0.470814 0.374787 -0.311284
C30   C     C_R   0.671014 0.525170 0.618744 -0.198489
C31   C     C_R   0.721158 0.526529 0.617665 -0.136605
C32   C     C_R   0.747049 0.502259 0.495132 0.345114
O10   O     O_2   0.794041 0.286150 0.488128 -0.524655
C33   C     C_R   0.021981 0.390922 0.579296 0.031851
C34   C     C_R   0.050421 0.502816 0.562024 0.056990
C35   C     C_R   0.028100 0.616962 0.546464 0.058043
C36   C     C_R   0.044630 0.284067 0.627051 -0.100889
H3    H     H_    0.651953 0.446699 0.281362 0.134241
H4    H     H_    0.874800 0.194558 0.484768 0.190151
H5    H     H_    0.960928 0.194569 0.506193 0.133547
O11   O     O_2   0.207847 0.713144 0.503147 -0.524640
C37   C     C_R   0.107751 0.722917 0.519987 -0.127494
H6    H     H_    0.347060 0.498677 0.282529 0.152220
H7    H     H_    0.128934 0.808850 0.501532 0.189495
C38   C     C_R   0.952303 0.728586 0.551808 -0.189735
C39   C     C_R   0.902326 0.727197 0.541695 -0.126077
O12   O     O_2   0.801976 0.719708 0.513156 -0.518945
C40   C     C_R   0.057846 0.726029 0.526092 -0.196023
H8    H     H_    0.970616 0.817867 0.565177 0.136907
H9    H     H_    0.652170 0.546031 0.714857 0.152430
H10   H     H_    0.885129 0.814316 0.544629 0.189121
H11   H     H_    0.740182 0.546813 0.712740 0.150049
H12   H     H_    0.043616 0.815117 0.508723 0.133752
H13   H     H_    0.510841 0.114288 0.284635 0.157805
C41   C     C_R   0.496221 0.107384 0.771670 -0.177633
H14   H     H_    0.515633 0.193552 0.792732 0.171821
C42   C     C_R   0.477623 0.041812 0.888517 -0.167658
H15   H     H_    0.480059 0.082381 0.990815 0.128673
C43   C     C_R   0.455530 0.924888 0.873480 -0.102709
H16   H     H_    0.439460 0.875574 0.963199 0.139534
C44   C     C_R   0.456422 0.868773 0.743969 -0.136816
H17   H     H_    0.438852 0.777576 0.736501 0.155294
C45   C     C_R   0.479007 0.930385 0.626811 0.081402
C46   C     C_R   0.492324 0.057376 0.635914 0.109955
C47   C     C_R   0.501106 0.126648 0.508993 -0.111552
C48   C     C_R   0.504084 0.064579 0.382285 -0.210484
H18   H     H_    0.505310 0.892534 0.280766 0.172952
C49   C     C_R   0.499877 0.937359 0.379236 -0.152220
C50   C     C_R   0.489299 0.869045 0.501300 -0.115937
H19   H     H_    0.454848 0.338412 0.133919 0.136613
C51   C     C_R   0.549792 0.702498 0.130984 0.017246
C52   C     C_R   0.558402 0.810303 0.050444 -0.239925
H20   H     H_    0.572869 0.894908 0.096876 0.182069
C53   C     C_R   0.564062 0.799717 0.908287 -0.216257
H21   H     H_    0.580349 0.876076 0.846777 0.179543
C54   C     C_R   0.553093 0.687042 0.847392 -0.141159
H22   H     H_    0.566055 0.678184 0.742825 0.206639
C55   C     C_R   0.525998 0.592776 0.921289 0.198855
C56   C     C_R   0.525444 0.595849 0.070561 0.092617
N3    N     N_R   0.500460 0.501210 0.147910 -0.196626
C57   C     C_R   0.475274 0.411135 0.076711 -0.055940
H23   H     H_    0.453801 0.340515 0.876264 0.142112
C58   C     C_R   0.474839 0.412048 0.928982 -0.086095
N4    N     N_R   0.500480 0.501290 0.852040 -0.195496
C59   C     C_2   0.251978 0.494694 0.251773 0.415819
H24   H     H_    0.272815 0.501074 0.154556 0.054848
O13   O     O_2   0.208000 0.485012 0.246644 -0.518403
C60   C     C_2   0.589034 0.692422 0.229235 0.470389
H25   H     H_    0.614643 0.622320 0.212346 0.048546
O14   O     O_2   0.595924 0.768254 0.320852 -0.562599
C61   C     C_2   0.118146 0.168774 0.671934 0.485641
H26   H     H_    0.106918 0.078632 0.632237 0.025666
O15   O     O_2   0.147800 0.176141 0.764013 -0.478788
C62   C     C_2   0.746821 0.453748 0.235780 0.417083
H27   H     H_    0.725912 0.420683 0.148098 0.054327
O16   O     O_2   0.790246 0.475039 0.218658 -0.520182
C63   C     C_2   0.016559 0.184529 0.707685 0.363764
H28   H     H_    0.026102 0.089221 0.701251 0.040396
O17   O     O_2   0.983282 0.209260 0.785997 -0.497007

loop_
_geom_bond_atom_site_label_1
_geom_bond_atom_site_label_2
_geom_bond_distance
_ccdc_geom_bond_type
C52   H20   1.085030 S    
C55   C56   1.433984 A    
N3    C57   1.366916 A    
N2    C27   1.368817 A    
C21   C22   1.390597 A    
C12   C15   1.411576 A    
C4    C17   1.473798 S    
C14   C61   1.486581 S    
C63   O17   1.221440 D    
H23   C58   1.081246 S    
Cu1   Cu2   2.701512 S    
C30   C31   1.390006 A    
Cu1   O7    1.940991 S    
C3    C50   1.461363 S    
N1    C11   1.434449 S    
Cu1   N4    2.030428 S    
C22   C23   1.398428 A    
C44   C45   1.417038 A    
C62   O16   1.220486 D    
O4    C2    1.304661 A    
H19   C57   1.081608 S    
C5    C13   1.418613 A    
C61   H26   1.085114 S    
C51   C60   1.464309 S    
C5    O9    1.348411 S    
C58   N4    1.367430 A    
C26   O12   1.349642 S    
C5    N1    1.366724 A    
C23   C27   1.403405 A    
O5    C3    1.297607 A    
C51   C56   1.440254 A    
C31   C32   1.400381 A    
C29   H3    1.083185 S    
C2    C16   1.474274 S    
C7    C8    1.403777 A    
C57   C58   1.418879 A    
C41   H14   1.075128 S    
C53   C54   1.382153 A    
C55   N4    1.372418 A    
C6    O11   1.349973 S    
O1    Cu1   1.970295 S    
C9    C10   1.389591 A    
Cu2   N3    2.030004 S    
O3    Cu1   1.950605 S    
C1    C47   1.468753 S    
C39   H10   1.083435 S    
C63   H28   1.084185 S    
C48   C49   1.379155 A    
C37   C40   1.386635 A    
C12   C34   1.417103 A    
C25   C39   1.398250 A    
C17   C29   1.404560 A    
C21   H5    1.080625 S    
C18   C21   1.412293 A    
C35   C40   1.412121 A    
C44   H17   1.081281 S    
C42   C43   1.387097 A    
C15   C37   1.397132 A    
C54   H22   1.066298 S    
C45   C46   1.409890 A    
C47   C48   1.400590 A    
C8    C16   1.405631 A    
C34   C35   1.424001 A    
C13   C14   1.421877 A    
C9    H1    1.083218 S    
C38   C39   1.391121 A    
O1    C1    1.290074 A    
C18   C20   1.416222 A    
C7    C11   1.416533 A    
C28   C29   1.402946 A    
C23   C24   1.408413 A    
C14   C36   1.416254 A    
C54   C55   1.408963 A    
C49   C50   1.396059 A    
Cu2   O8    1.950599 S    
C33   C36   1.426081 A    
C59   O13   1.220528 D    
N1    C6    1.363347 A    
N2    C32   1.435963 S    
C60   O14   1.222071 D    
C27   O10   1.349564 S    
C12   C13   1.414650 A    
C43   C44   1.391345 A    
H13   C48   1.083588 S    
O3    C2    1.304008 A    
C26   N2    1.368573 A    
C9    C16   1.403042 A    
O8    C4    1.307077 A    
H18   C49   1.079862 S    
C19   C38   1.414785 A    
C52   C53   1.377522 A    
C30   H9    1.083194 S    
C37   H7    1.083605 S    
C8    H6    1.084138 S    
C25   C26   1.403546 A    
C51   C52   1.400682 A    
Cu1   O5    1.965535 S    
C40   H12   1.077550 S    
C10   H2    1.083362 S    
C41   C46   1.421759 A    
C20   C24   1.418735 A    
O2    Cu2   1.965535 S    
C6    C15   1.399243 A    
C42   H15   1.082972 S    
O6    C3    1.304756 A    
O4    Cu2   1.940994 S    
C7    C59   1.485157 S    
C19   C35   1.420166 A    
C38   H8    1.077836 S    
O2    C1    1.314889 A    
C31   H11   1.083125 S    
C62   H27   1.085716 S    
C24   C25   1.407430 A    
C61   O15   1.221211 D    
C59   H24   1.086413 S    
O7    C4    1.301344 A    
C19   C20   1.416423 A    
C56   N3    1.401293 A    
C18   C33   1.422728 A    
C22   H4    1.083285 S    
C46   C47   1.433262 A    
C45   C50   1.414985 A    
C43   H16   1.082591 S    
Cu2   O6    1.970295 S    
C33   C34   1.415122 A    
C17   C30   1.402108 A    
C60   H25   1.081439 S    
C36   C63   1.492967 S    
C10   C11   1.398965 A    
C41   C42   1.394555 A    
C28   C62   1.484570 S    
C53   H21   1.083025 S    
C28   C32   1.416859 A    
