data_mof_unit_38856.cif
_audit_creation_date              2012-12-10T18:59:14-0500
_audit_creation_method            fapswitch 2.2
_symmetry_space_group_name_H-M    P1
_symmetry_Int_Tables_number       1
_space_group_crystal_system       triclinic
_cell_length_a                    10.828186
_cell_length_b                    10.861017
_cell_length_c                    9.525343
_cell_angle_alpha                 91.322856
_cell_angle_beta                  91.049243
_cell_angle_gamma                 91.77525
_cell_volume                      1119.18999745

loop_
_atom_site_label
_atom_site_type_symbol
_atom_type_description
_atom_site_fract_x
_atom_site_fract_y
_atom_site_fract_z
_atom_type_partial_charge
C1    C     C_R   0.492050 0.262765 0.498188 0.788736
C2    C     C_R   0.063026 0.528676 0.626072 0.104672
C3    C     C_R   0.126810 0.504890 0.500320 -0.148798
C4    C     C_R   0.062715 0.453767 0.382683 -0.160161
C5    C     C_R   0.935071 0.431011 0.384922 -0.028734
C6    C     C_R   0.870775 0.461912 0.508007 -0.231569
C7    C     C_R   0.561493 0.070421 0.589493 0.007855
C8    C     C_R   0.487182 0.129561 0.493680 -0.227607
C9    C     C_R   0.408039 0.059420 0.399965 -0.111881
C10   C     C_R   0.414841 0.928911 0.397780 0.469613
C11   C     C_R   0.487814 0.871287 0.500721 -0.228751
C12   C     C_R   0.261990 0.505929 0.499552 0.798243
C13   C     C_R   0.561328 0.943428 0.594156 0.087239
C14   C     C_3   0.560187 0.947266 0.751334 -0.511191
C15   C     C_3   0.560109 0.085914 0.745623 -0.160369
C16   C     C_R   0.599534 0.547487 0.077589 0.264240
C17   C     C_R   0.408291 0.441238 0.070969 -0.062227
C18   C     C_R   0.408649 0.440617 0.922057 -0.051034
C19   C     C_R   0.598357 0.550614 0.929545 0.268662
C20   C     C_3   0.638290 0.684120 0.936514 -0.274267
C21   C     C_3   0.650199 0.675382 0.094765 -0.607563
C22   C     C_R   0.495827 0.737715 0.501000 0.900978
C23   C     C_R   0.736586 0.483801 0.501591 0.826778
C24   C     C_R   0.119377 0.588060 0.746040 -0.136291
C25   C     C_R   0.065424 0.579299 0.877118 -0.175041
C26   C     C_R   0.954393 0.513457 0.889778 -0.119640
C27   C     C_R   0.890846 0.468378 0.769792 -0.094011
C28   C     C_R   0.939374 0.486838 0.634629 0.122508
Cu1   Cu    Cu3+1 0.499990 0.499980 0.640670 0.978611
Cu2   Cu    Cu3+1 0.500010 0.500020 0.359330 0.961828
H1    H     H_    0.113370 0.427020 0.290321 0.190132
H2    H     H_    0.646665 0.913915 0.798012 0.216869
H3    H     H_    0.473339 0.125402 0.785410 0.184973
H4    H     H_    0.332735 0.395903 0.124000 0.133227
H5    H     H_    0.333715 0.394093 0.863557 0.150176
H6    H     H_    0.561737 0.743201 0.904558 0.164144
H7    H     H_    0.746421 0.676397 0.137846 0.196642
H8    H     H_    0.588652 0.737573 0.151570 0.228897
H9    H     H_    0.205101 0.641255 0.740294 0.153646
H10   H     H_    0.111056 0.621275 0.969151 0.148291
H11   H     H_    0.913636 0.503763 0.991730 0.175110
H12   H     H_    0.805599 0.416818 0.785059 0.181697
H13   H     H_    0.473177 0.907194 0.793786 0.180971
N1    N     N_R   0.500790 0.500930 0.147930 -0.187120
N2    N     N_R   0.500790 0.500890 0.852020 -0.198841
O1    O     O_R   0.500000 0.319640 0.618810 -0.571642
O2    O     O_R   0.500010 0.319680 0.381230 -0.605502
O3    O     O_R   0.319640 0.499980 0.618820 -0.606914
O4    O     O_R   0.319650 0.500020 0.381230 -0.587569
O5    O     O_R   0.499990 0.680320 0.618770 -0.567888
O6    O     O_R   0.500000 0.680360 0.381190 -0.558023
O7    O     O_R   0.680350 0.499980 0.618770 -0.542778
O8    O     O_R   0.680360 0.500020 0.381180 -0.595713
C29   C     C_2   0.676230 0.148773 0.804012 0.410354
H14   H     H_    0.765997 0.123366 0.765673 0.082402
O9    O     O_2   0.670152 0.228709 0.895544 -0.555973
C30   C     C_2   0.758575 0.714617 0.867321 0.380938
H15   H     H_    0.841258 0.737059 0.929954 0.087414
O10   O     O_2   0.763655 0.719274 0.739744 -0.525656
C31   C     C_2   0.873630 0.360471 0.265809 0.372807
H16   H     H_    0.778072 0.328660 0.271541 0.110148
O11   O     O_2   0.931128 0.330838 0.161931 -0.550095
C32   C     C_2   0.308076 0.120103 0.320073 0.370117
H17   H     H_    0.318582 0.214454 0.287478 0.081361
O12   O     O_2   0.209090 0.066450 0.295062 -0.500084
O13   O     O_3   0.340350 0.855841 0.307111 -0.538384
C33   C     C_3   0.375634 0.871989 0.166100 -0.239854
H18   H     H_    0.372686 0.780525 0.111560 0.166344
H19   H     H_    0.470183 0.913744 0.153938 0.114801
H20   H     H_    0.308057 0.929365 0.110972 0.199744

loop_
_geom_bond_atom_site_label_1
_geom_bond_atom_site_label_2
_ccdc_geom_bond_type
C17   C18   A    
C23   O7    A    
Cu2   O6    S    
C32   O12   D    
C23   O8    A    
Cu1   Cu2   S    
C1    C8    S    
C9    C10   A    
C16   N1    A    
C11   C22   S    
C19   C20   S    
C12   O3    A    
Cu1   O1    S    
C22   O5    A    
C33   H20   S    
C14   H13   S    
C7    C15   S    
C12   O4    A    
C26   C27   A    
C17   N1    A    
C7    C8    A    
C9    C32   S    
C13   C14   S    
C20   C21   S    
C4    C5    A    
C11   C13   A    
C27   H12   S    
Cu2   N1    S    
C30   H15   S    
C16   C21   S    
C31   H16   S    
C16   C19   A    
C6    C23   S    
C18   H5    S    
C32   H17   S    
Cu2   O4    S    
O13   C33   S    
C2    C3    A    
Cu1   O5    S    
C10   O13   S    
C25   H10   S    
C2    C24   A    
C5    C6    A    
Cu2   O8    S    
C29   O9    D    
C1    O1    A    
C30   O10   D    
C4    H1    S    
C17   H4    S    
C21   H8    S    
Cu1   O3    S    
C33   H18   S    
C20   H6    S    
C18   N2    A    
Cu2   O2    S    
C7    C13   A    
C24   H9    S    
C21   H7    S    
C24   C25   A    
C31   O11   D    
C15   C29   S    
C10   C11   A    
C14   H2    S    
C27   C28   A    
C20   C30   S    
C29   H14   S    
C1    O2    A    
C2    C28   A    
C3    C12   S    
C5    C31   S    
C25   C26   A    
C14   C15   S    
C15   H3    S    
C22   O6    A    
C6    C28   A    
C19   N2    A    
C3    C4    A    
C26   H11   S    
Cu1   N2    S    
C8    C9    A    
C33   H19   S    
Cu1   O7    S    
