data_mof_unit_31623.cif
_audit_creation_date              2013-03-05T15:41:33-0500
_audit_creation_method            fapswitch 2.2
_symmetry_space_group_name_H-M    P1
_symmetry_Int_Tables_number       1
_space_group_crystal_system       triclinic
_cell_length_a                    24.738145
_cell_length_b                    17.475169
_cell_length_c                    15.522432
_cell_angle_alpha                 90.099634
_cell_angle_beta                  129.478904
_cell_angle_gamma                 89.681634
_cell_volume                      5179.38536493

loop_
_atom_site_label
_atom_site_type_symbol
_atom_site_description
_atom_site_fract_x
_atom_site_fract_y
_atom_site_fract_z
_atom_type_partial_charge
C1    C     C_R   0.347314 0.363617 0.232234 -0.024435
C2    C     C_R   0.332755 0.606424 0.197889 -0.075218
C3    C     C_R   0.850240 0.859630 0.243353 -0.028452
C4    C     C_R   0.846052 0.135271 0.228870 -0.036207
H1    H     H_    0.295848 0.354956 0.206378 0.165169
H2    H     H_    0.281170 0.605947 0.173845 0.194393
H3    H     H_    0.801561 0.848984 0.226817 0.171955
H4    H     H_    0.793399 0.142689 0.198955 0.162022
N1    N     N_R   0.389430 0.421450 0.294590 -0.077445
N2    N     N_R   0.389430 0.578550 0.294590 -0.083170
N3    N     N_R   0.889430 0.921450 0.294590 -0.077932
N4    N     N_R   0.889430 0.078550 0.294590 -0.075240
C5    C     C_R   0.666358 0.389946 0.798452 0.727610
C6    C     C_R   0.668051 0.602846 0.803718 0.687887
C7    C     C_R   0.152001 0.862913 0.762958 0.704670
C8    C     C_R   0.166306 0.109614 0.798336 0.720256
N5    N     N_R   0.612200 0.424040 0.705410 -0.106537
N6    N     N_R   0.612200 0.575960 0.705410 -0.101486
N7    N     N_R   0.112200 0.924040 0.705410 -0.109940
N8    N     N_R   0.112200 0.075960 0.705410 -0.103110
C9    C     C_R   0.614583 0.395348 0.407595 0.292998
C10   C     C_R   0.591211 0.642800 0.409690 0.325424
C11   C     C_R   0.112942 0.891504 0.406408 0.303415
C12   C     C_R   0.116589 0.103495 0.409836 0.273018
N9    N     N_R   0.581780 0.422390 0.443390 -0.100665
N10   N     N_R   0.581780 0.577610 0.443390 -0.096553
N11   N     N_R   0.081780 0.922390 0.443390 -0.110706
N12   N     N_R   0.081780 0.077610 0.443390 -0.108282
C13   C     C_R   0.404548 0.370228 0.597592 -0.054798
C14   C     C_R   0.414236 0.641072 0.595484 -0.145371
C15   C     C_R   0.889688 0.895756 0.595696 -0.014186
C16   C     C_R   0.910132 0.136839 0.596687 -0.121530
H5    H     H_    0.431675 0.361863 0.685298 0.128394
H6    H     H_    0.441864 0.651890 0.682648 0.123093
H7    H     H_    0.912372 0.898117 0.682381 0.133655
H8    H     H_    0.938065 0.146798 0.684148 0.124523
N13   N     N_R   0.419850 0.423100 0.556610 -0.063225
N14   N     N_R   0.419850 0.576900 0.556610 -0.057571
N15   N     N_R   0.919850 0.923100 0.556610 -0.065756
N16   N     N_R   0.919850 0.076900 0.556610 -0.064716
C17   C     C_R   0.689350 0.399598 0.592590 -0.019587
C18   C     C_R   0.665343 0.640028 0.594923 -0.146531
C19   C     C_R   0.189105 0.898375 0.591144 -0.044569
C20   C     C_R   0.189250 0.100950 0.594538 -0.049098
H9    H     H_    0.736506 0.404527 0.678141 0.235606
H10   H     H_    0.706604 0.651565 0.681804 0.211291
H11   H     H_    0.237139 0.905272 0.675454 0.234368
H12   H     H_    0.236142 0.095537 0.680258 0.232009
N17   N     N_R   0.627410 0.423100 0.556610 -0.084683
N18   N     N_R   0.627410 0.576900 0.556610 -0.080644
N19   N     N_R   0.127410 0.923100 0.556610 -0.094915
N20   N     N_R   0.127410 0.076900 0.556610 -0.085983
C21   C     C_R   0.326517 0.369757 0.410424 -0.008740
C22   C     C_R   0.340205 0.644220 0.409365 0.026716
C23   C     C_R   0.814300 0.893192 0.410335 -0.033507
C24   C     C_R   0.832675 0.138031 0.410221 0.013237
H13   H     H_    0.279356 0.360941 0.325987 0.169817
H14   H     H_    0.297583 0.659076 0.323677 0.128576
H15   H     H_    0.766745 0.890241 0.324699 0.174748
H16   H     H_    0.785585 0.148857 0.326412 0.161169
N21   N     N_R   0.374220 0.422390 0.443390 -0.067951
N22   N     N_R   0.374220 0.577610 0.443390 -0.061367
N23   N     N_R   0.874220 0.922390 0.443390 -0.070099
N24   N     N_R   0.874220 0.077610 0.443390 -0.072788
C25   C     C_R   0.577087 0.390800 0.801045 -0.102279
C26   C     C_R   0.578258 0.604908 0.804120 -0.124847
C27   C     C_R   0.060752 0.861778 0.761517 -0.089424
C28   C     C_R   0.077489 0.108536 0.801795 -0.102182
H17   H     H_    0.548658 0.391994 0.832461 0.173287
H18   H     H_    0.549543 0.602812 0.835013 0.174113
H19   H     H_    0.024785 0.846088 0.775646 0.205052
H20   H     H_    0.049518 0.106969 0.833979 0.173003
N25   N     N_R   0.555000 0.424040 0.705410 -0.091546
N26   N     N_R   0.555000 0.575960 0.705410 -0.086500
N27   N     N_R   0.055000 0.924040 0.705410 -0.097478
N28   N     N_R   0.055000 0.075960 0.705410 -0.085704
C29   C     C_R   0.439800 0.359339 0.236932 -0.082846
C30   C     C_R   0.419625 0.601870 0.191264 0.033564
C31   C     C_R   0.941386 0.854517 0.245538 -0.051914
C32   C     C_R   0.939965 0.140922 0.237907 -0.078567
H21   H     H_    0.475018 0.341711 0.222300 0.181968
H22   H     H_    0.444007 0.592599 0.154146 0.189969
H23   H     H_    0.976699 0.832057 0.234150 0.179210
H24   H     H_    0.976507 0.159904 0.227458 0.175613
N29   N     N_R   0.446630 0.421450 0.294590 -0.058928
N30   N     N_R   0.446630 0.578550 0.294590 -0.071475
N31   N     N_R   0.946630 0.921450 0.294590 -0.047686
N32   N     N_R   0.946630 0.078550 0.294590 -0.053431
C33   C     C_R   0.379434 0.321051 0.200649 0.156074
C34   C     C_R   0.349824 0.621378 0.130834 0.133519
C35   C     C_R   0.882576 0.815109 0.214350 0.138571
C36   C     C_R   0.878610 0.178447 0.199126 0.164253
C37   C     C_R   0.646777 0.369555 0.861471 -0.289006
C38   C     C_R   0.648857 0.622052 0.867759 -0.272954
C39   C     C_R   0.120187 0.821243 0.796083 -0.302488
C40   C     C_R   0.147021 0.129789 0.861882 -0.278723
C41   C     C_R   0.683579 0.380772 0.501147 -0.055760
C42   C     C_R   0.645447 0.682849 0.504078 0.044463
C43   C     C_R   0.182201 0.876461 0.499197 -0.039601
C44   C     C_R   0.184229 0.119851 0.504545 -0.017101
C45   C     C_R   0.346309 0.334698 0.506615 0.174357
C46   C     C_R   0.363620 0.685176 0.504293 0.225057
C47   C     C_R   0.823479 0.874729 0.505445 0.159168
C48   C     C_R   0.855514 0.177156 0.505611 0.224642
Ni1   Ni    Ni4+2 0.382890 0.500000 0.370170 0.269673
Ni2   Ni    Ni4+2 0.882890 0.000000 0.370170 0.255182
Ni3   Ni    Ni4+2 0.618740 0.500000 0.629830 0.299525
Ni4   Ni    Ni4+2 0.118740 0.000000 0.629830 0.276278
Ni5   Ni    Ni4+2 0.514090 0.500000 0.370170 0.311330
Ni6   Ni    Ni4+2 0.014090 0.000000 0.370170 0.319277
Ni7   Ni    Ni4+2 0.487550 0.500000 0.629830 0.216502
Ni8   Ni    Ni4+2 0.987550 0.000000 0.629830 0.215359
C49   C     C_3   0.346126 0.244699 0.630694 0.511578
C50   C     C_3   0.360242 0.783517 0.620341 0.505059
C51   C     C_3   0.805655 0.812715 0.631516 0.445627
C52   C     C_3   0.855060 0.272613 0.625917 0.503757
H25   H     H_    0.357252 0.292270 0.687633 0.079936
H26   H     H_    0.387064 0.742867 0.691397 0.090810
H27   H     H_    0.814210 0.867978 0.674270 0.086355
H28   H     H_    0.876482 0.228961 0.692450 0.090280
C53   C     C_3   0.753556 0.764305 0.630161 0.495398
C54   C     C_3   0.805413 0.324049 0.628014 0.440924
C55   C     C_3   0.300611 0.186113 0.630827 0.465793
C56   C     C_3   0.308649 0.830879 0.623343 0.433060
H29   H     H_    0.783133 0.714400 0.685823 0.127543
H30   H     H_    0.829132 0.381574 0.660842 0.130625
H31   H     H_    0.329101 0.130564 0.665018 0.126100
H32   H     H_    0.327995 0.890556 0.649663 0.120133
H33   H     H_    0.247082 0.359078 0.527963 0.095135
H34   H     H_    0.282595 0.654842 0.561679 0.095304
H35   H     H_    0.708821 0.918289 0.494331 0.112302
H36   H     H_    0.767685 0.152354 0.552298 0.100506
H37   H     H_    0.623985 0.838011 0.461903 0.223324
H38   H     H_    0.685082 0.232110 0.522277 0.205288
H39   H     H_    0.176438 0.270994 0.517455 0.207054
H40   H     H_    0.198783 0.728258 0.537518 0.201196
C57   C     C_3   0.236173 0.312811 0.469414 0.485886
C58   C     C_3   0.259727 0.693589 0.488869 0.458434
C59   C     C_3   0.703524 0.867136 0.446684 0.460844
C60   C     C_3   0.749525 0.192314 0.482592 0.455269
C61   C     C_3   0.292764 0.209198 0.433386 0.768311
C62   C     C_3   0.286713 0.800772 0.411229 0.742672
C63   C     C_3   0.768221 0.750515 0.452872 0.801096
C64   C     C_3   0.788536 0.297779 0.419859 0.802765
C65   C     C_3   0.306511 0.276278 0.510195 -0.386324
C66   C     C_3   0.319363 0.740510 0.506228 -0.352470
C67   C     C_3   0.776235 0.827840 0.509339 -0.357920
C68   C     C_3   0.813745 0.234351 0.508603 -0.387521
H41   H     H_    0.740124 0.759973 0.362399 0.110903
H42   H     H_    0.751475 0.273288 0.334497 0.128782
H43   H     H_    0.263444 0.230093 0.346292 0.131624
H44   H     H_    0.249567 0.772635 0.328539 0.095518
C69   C     C_3   0.692582 0.737759 0.508577 -0.098103
C70   C     C_3   0.733709 0.331144 0.507178 -0.071588
C71   C     C_3   0.230827 0.174523 0.509258 -0.086788
C72   C     C_3   0.234774 0.830801 0.504943 -0.068925
C73   C     C_3   0.652548 0.810207 0.436626 -0.395664
C74   C     C_3   0.699559 0.250705 0.470692 -0.408038
C75   C     C_3   0.190956 0.252043 0.465953 -0.447485
C76   C     C_3   0.207522 0.747389 0.478799 -0.413577
C77   C     C_3   0.726140 0.695168 0.464755 -0.634425
C78   C     C_3   0.750332 0.360785 0.431886 -0.584926
C79   C     C_3   0.248978 0.148572 0.434436 -0.551746
C80   C     C_3   0.246070 0.860832 0.422875 -0.538859
H45   H     H_    0.760571 0.648058 0.523427 0.242582
H46   H     H_    0.784026 0.412395 0.470872 0.239298
H47   H     H_    0.276819 0.092448 0.463614 0.242244
H48   H     H_    0.276306 0.915079 0.456172 0.232297
H49   H     H_    0.686862 0.668267 0.382510 0.233753
H50   H     H_    0.704158 0.379178 0.347994 0.245158
H51   H     H_    0.201424 0.143016 0.346566 0.251856
H52   H     H_    0.197820 0.875720 0.339126 0.253012
H53   H     H_    0.614061 0.794810 0.347890 0.275907
H54   H     H_    0.650417 0.251309 0.383076 0.259122
H55   H     H_    0.141228 0.246099 0.378775 0.245393
H56   H     H_    0.156295 0.742272 0.394431 0.261940
H57   H     H_    0.786402 0.381999 0.017998 0.188399
H58   H     H_    0.790341 0.619940 0.022123 0.193125
H59   H     H_    0.206485 0.717452 0.813340 0.176713
H60   H     H_    0.287337 0.119610 0.016593 0.189192
C81   C     C_2   0.692198 0.338982 0.975390 0.853585
C82   C     C_2   0.694066 0.650384 0.983489 0.865815
C83   C     C_2   0.145647 0.749545 0.859918 0.896405
C84   C     C_2   0.192633 0.160549 0.975721 0.854663
C85   C     C_2   0.761909 0.346831 0.041839 -0.508325
C86   C     C_2   0.764225 0.649219 0.048009 -0.520586
C87   C     C_2   0.191240 0.704591 0.863586 -0.501390
C88   C     C_2   0.262540 0.153964 0.040982 -0.489477
H61   H     H_    0.326252 0.682557 0.987611 0.182781
H62   H     H_    0.362860 0.238640 0.079131 0.173018
H63   H     H_    0.862502 0.261933 0.079189 0.174845
H64   H     H_    0.870722 0.728863 0.101042 0.166687
C89   C     C_2   0.302653 0.649710 0.015465 -0.405647
C90   C     C_2   0.351726 0.250510 0.135275 -0.408515
C91   C     C_2   0.851186 0.249600 0.134921 -0.416629
C92   C     C_2   0.855804 0.743127 0.151661 -0.412241
C93   C     C_2   0.232701 0.647903 0.952551 0.894421
C94   C     C_2   0.307030 0.206260 0.134037 0.915476
C95   C     C_2   0.806682 0.294101 0.134564 0.924968
C96   C     C_2   0.806833 0.701564 0.142531 0.914979
F1    F     F_    0.409650 0.211440 0.672147 -0.600663
F2    F     F_    0.410987 0.830570 0.636649 -0.596943
F3    F     F_    0.869422 0.774122 0.692299 -0.622040
F4    F     F_    0.910807 0.314858 0.651141 -0.600649
F5    F     F_    0.287931 0.213654 0.700625 -0.681292
F6    F     F_    0.306016 0.798623 0.702387 -0.677096
F7    F     F_    0.727552 0.805915 0.673105 -0.679449
F8    F     F_    0.796864 0.291295 0.700212 -0.682787
F9    F     F_    0.355003 0.177208 0.467030 -0.576453
F10   F     F_    0.337978 0.836076 0.414292 -0.600810
F11   F     F_    0.832994 0.718224 0.499253 -0.594025
F12   F     F_    0.844405 0.328772 0.431611 -0.577615
F13   F     F_    0.198787 0.345135 0.364025 -0.652568
F14   F     F_    0.224066 0.648256 0.393935 -0.652756
F15   F     F_    0.676023 0.891848 0.340959 -0.644807
F16   F     F_    0.713254 0.149377 0.385408 -0.655648
F17   F     F_    0.731686 0.388474 0.830809 -0.692064
F18   F     F_    0.734186 0.592168 0.841434 -0.712697
F19   F     F_    0.215919 0.849670 0.792938 -0.690643
F20   F     F_    0.231486 0.110716 0.830236 -0.704399
F21   F     F_    0.200615 0.603977 0.980401 -0.629175
F22   F     F_    0.294493 0.217231 0.206808 -0.654450
F23   F     F_    0.793704 0.281990 0.206513 -0.648885
F24   F     F_    0.789363 0.714803 0.208576 -0.637022
F25   F     F_    0.662585 0.295410 0.008100 -0.614188
F26   F     F_    0.662663 0.686981 0.019003 -0.610840
F27   F     F_    0.126556 0.732865 0.922925 -0.602649
F28   F     F_    0.162780 0.203048 0.009421 -0.614539
N33   N     N_R   0.587495 0.404419 0.294572 0.218306
O1    O     O_R   0.585340 0.346257 0.240084 -0.399564
O2    O     O_R   0.548135 0.463388 0.237772 -0.368056
N34   N     N_R   0.559088 0.660704 0.296472 0.203219
O3    O     O_R   0.568684 0.616328 0.239882 -0.347232
O4    O     O_R   0.515828 0.718282 0.246861 -0.400736
N35   N     N_R   0.081333 0.889660 0.290111 0.234163
O5    O     O_R   0.085569 0.828395 0.247007 -0.401865
O6    O     O_R   0.032940 0.939580 0.222011 -0.343060
N36   N     N_R   0.100323 0.080996 0.307021 0.243894
O7    O     O_R   0.139496 0.029165 0.310083 -0.381685
O8    O     O_R   0.065352 0.127507 0.222247 -0.377487

loop_
_geom_bond_atom_site_label_1
_geom_bond_atom_site_label_2
_geom_bond_distance
_ccdc_geom_bond_type
C11   C43   1.391943 A    
N12   Ni6   1.880160 S    
H64   C92   1.087518 S    
C54   H30   1.113132 S    
C10   C42   1.394200 A    
C23   H15   1.079604 S    
N35   O6    1.301543 A    
C48   C68   1.455390 S    
C79   H47   1.113010 S    
C3    N3    1.329558 A    
C64   C68   1.555743 S    
C36   C91   1.461086 S    
C39   C83   1.466400 S    
C30   N30   1.349642 A    
C60   C68   1.556544 S    
C31   N31   1.355600 A    
C27   N27   1.344088 A    
C47   C67   1.463437 S    
N16   Ni8   1.860750 S    
N22   Ni1   1.865086 S    
C55   C71   1.562797 S    
C30   C34   1.383009 A    
C12   N36   1.430560 S    
C7    N7    1.334796 A    
C59   C67   1.554670 S    
N27   Ni8   1.847745 S    
C28   C40   1.390122 A    
C53   C69   1.561117 S    
C87   C93   1.460393 S    
C77   H45   1.114040 S    
C51   C53   1.534517 S    
C16   H8    1.076331 S    
C57   C65   1.557054 S    
C8    N8    1.329967 A    
C94   F22   1.361230 S    
C19   C43   1.379023 A    
C70   C74   1.553211 S    
C3    H3    1.076996 S    
C93   F21   1.360314 S    
N10   N18   1.356577 A    
C7    C39   1.391516 A    
C89   C93   1.341952 D    
C28   N28   1.346900 A    
H59   C87   1.084714 S    
C33   C90   1.462770 S    
C49   C65   1.558900 S    
C26   N26   1.346919 A    
C23   C47   1.381960 A    
H57   C85   1.082515 S    
C14   N14   1.320403 A    
C3    C35   1.377570 A    
C82   C86   1.343562 D    
C62   H44   1.112064 S    
C4    H4    1.076230 S    
C2    C34   1.375153 A    
C62   C66   1.554768 S    
N6    Ni3   1.843398 S    
N34   O3    1.300025 A    
C64   H42   1.112233 S    
H60   C88   1.081872 S    
N1    N29   1.415022 A    
C78   H46   1.113306 S    
C37   C81   1.464565 S    
C74   H54   1.106869 S    
N5    Ni3   1.847627 S    
C58   F14   1.388528 S    
C13   H5    1.078439 S    
N3    N31   1.415022 A    
N19   Ni4   1.856103 S    
C23   N23   1.327096 A    
C50   C66   1.565598 S    
C57   F13   1.387125 S    
N35   O5    1.300116 A    
C50   F2    1.386620 S    
C49   F1    1.388075 S    
C4    N4    1.332057 A    
C79   H51   1.101899 S    
C31   C35   1.392693 A    
C1    H1    1.075698 S    
C92   C96   1.343999 D    
C56   H32   1.113100 S    
C50   C56   1.542709 S    
N7    Ni4   1.847627 S    
N4    Ni2   1.880478 S    
N8    N28   1.415022 A    
C25   C37   1.388421 A    
C16   C48   1.372803 A    
C42   C69   1.481199 S    
C29   N29   1.346863 A    
N6    N26   1.415022 A    
C75   H55   1.113304 S    
N5    N25   1.415022 A    
C76   H56   1.104311 S    
C86   C96   1.462863 S    
C2    H2    1.078100 S    
C21   N21   1.320220 A    
C40   C84   1.467207 S    
N8    Ni4   1.843398 S    
C17   N17   1.316858 A    
C52   F4    1.387031 S    
H33   C57   1.113781 S    
N11   N19   1.356636 A    
N25   Ni7   1.847745 S    
H62   C90   1.087377 S    
C91   C95   1.341483 D    
C77   H49   1.104782 S    
N36   O8    1.299598 A    
C8    C40   1.385717 A    
H39   C75   1.113832 S    
C14   H6    1.076160 S    
C71   C75   1.550826 S    
C32   H24   1.069355 S    
C96   F24   1.361175 S    
C54   F8    1.390409 S    
C72   C76   1.550765 S    
N30   Ni5   1.880472 S    
C60   C74   1.516413 S    
C24   C48   1.384234 A    
N17   Ni3   1.856103 S    
C25   N25   1.344527 A    
C59   F15   1.386376 S    
N26   Ni7   1.858104 S    
N31   Ni6   1.891003 S    
C57   C75   1.522638 S    
C82   F26   1.361680 S    
C63   F11   1.388804 S    
C22   N22   1.329689 A    
C55   F5    1.390147 S    
C81   F25   1.361896 S    
H63   C91   1.087403 S    
C24   H16   1.075435 S    
C51   H27   1.113224 S    
C5    C37   1.387124 A    
C28   H20   1.081168 S    
C15   C47   1.366533 A    
C32   C36   1.387297 A    
C81   C85   1.340495 D    
C63   C67   1.552861 S    
C51   F3    1.389716 S    
C53   H29   1.110887 S    
N33   O1    1.300583 A    
C13   C45   1.369379 A    
C62   C80   1.537505 S    
H61   C89   1.087567 S    
C84   F28   1.361754 S    
C9    C41   1.389824 A    
C30   H22   1.078198 S    
C55   H31   1.113225 S    
C49   C55   1.527004 S    
C88   C94   1.455336 S    
C9    N33   1.434204 S    
N28   Ni8   1.858104 S    
N4    N32   1.415022 A    
C45   C65   1.447616 S    
C43   C72   1.475556 S    
C14   C46   1.380154 A    
N3    Ni2   1.876184 S    
C24   N24   1.324081 A    
C84   C88   1.341893 D    
C1    N1    1.330308 A    
C41   C70   1.462693 S    
C85   C95   1.453838 S    
N23   Ni2   1.869689 S    
N24   Ni2   1.865086 S    
C58   C76   1.518728 S    
N10   Ni5   1.880160 S    
N20   Ni4   1.860683 S    
C50   H26   1.108284 S    
C52   C54   1.534895 S    
C18   N18   1.323190 A    
C49   H25   1.112939 S    
C44   C71   1.466880 S    
N15   Ni8   1.871308 S    
H38   C74   1.114374 S    
C27   C39   1.392154 A    
C54   C70   1.564487 S    
C11   N11   1.331214 A    
C11   N35   1.440968 S    
C56   C72   1.564182 S    
C4    C36   1.382752 A    
C18   H10   1.073405 S    
N18   Ni3   1.860683 S    
C17   C41   1.372804 A    
C80   H52   1.098627 S    
C95   F23   1.361126 S    
C62   F10   1.386750 S    
C7    F19   1.353133 S    
C2    N2    1.332279 A    
C61   F9    1.387383 S    
C64   F12   1.387138 S    
N21   Ni1   1.869689 S    
C56   F6    1.389896 S    
C61   H43   1.113091 S    
C52   C68   1.563465 S    
C21   C45   1.383729 A    
C22   H14   1.078478 S    
C9    N9    1.326169 A    
N36   O7    1.301364 A    
N2    N30   1.415022 A    
C1    C33   1.382977 A    
C64   C78   1.533779 S    
N34   O4    1.301338 A    
C12   C44   1.385156 A    
C6    N6    1.334935 A    
C22   C46   1.390903 A    
C12   N12   1.338977 A    
C21   H13   1.076849 S    
C20   N20   1.313228 A    
N13   N21   1.356636 A    
C83   F27   1.361744 S    
C61   C79   1.526851 S    
C29   C33   1.391141 A    
N9    Ni5   1.869560 S    
H36   C60   1.114119 S    
N15   N23   1.356636 A    
C26   H18   1.081385 S    
C27   H19   1.079806 S    
N29   Ni5   1.891003 S    
N11   Ni6   1.869560 S    
C5    N5    1.330204 A    
C63   C77   1.519598 S    
C51   C67   1.562272 S    
C71   C79   1.554095 S    
C18   C42   1.381203 A    
N32   Ni6   1.880472 S    
C78   H50   1.099886 S    
C32   N32   1.343948 A    
C17   H9    1.078238 S    
C46   C66   1.471247 S    
C72   C80   1.559792 S    
C31   H23   1.068055 S    
C35   C92   1.467426 S    
C20   C44   1.362500 A    
C19   N19   1.325347 A    
C90   C94   1.342871 D    
C34   C89   1.467385 S    
C19   H11   1.078337 S    
C58   C66   1.558399 S    
C25   H17   1.081075 S    
N16   N24   1.356577 A    
C15   H7    1.080313 S    
N7    N27   1.415022 A    
C61   C65   1.547675 S    
C15   N15   1.316738 A    
C8    F20   1.352968 S    
H37   C73   1.112379 S    
C16   N16   1.314174 A    
C69   C73   1.554203 S    
N9    N17   1.356636 A    
N13   Ni7   1.871308 S    
H40   C76   1.114307 S    
H35   C59   1.113115 S    
C60   F16   1.387843 S    
C10   N10   1.336443 A    
H58   C86   1.079973 S    
C52   H28   1.109794 S    
C63   H41   1.113974 S    
C10   N34   1.428706 S    
C59   C73   1.538642 S    
N33   O2    1.299130 A    
C29   H21   1.074194 S    
C80   H48   1.113490 S    
C13   N13   1.309113 A    
C53   F7    1.387557 S    
C26   C38   1.388082 A    
C6    F18   1.354002 S    
N2    Ni1   1.880478 S    
N12   N20   1.356577 A    
C5    F17   1.353575 S    
N14   Ni7   1.860750 S    
C38   C82   1.473553 S    
N1    Ni1   1.876184 S    
C6    C38   1.386927 A    
C69   C77   1.554111 S    
C70   C78   1.555281 S    
C83   C87   1.342080 D    
C20   H12   1.077760 S    
C73   H53   1.100032 S    
N14   N22   1.356577 A    
H34   C58   1.114099 S    
