data_mof_unit_12657.cif
_audit_creation_date              2012-12-11T15:43:09-0500
_audit_creation_method            fapswitch 2.2
_symmetry_space_group_name_H-M    P1
_symmetry_Int_Tables_number       1
_space_group_crystal_system       triclinic
_cell_length_a                    19.043009
_cell_length_b                    10.937321
_cell_length_c                    18.811713
_cell_angle_alpha                 90.065417
_cell_angle_beta                  89.864181
_cell_angle_gamma                 90.131943
_cell_volume                      3918.07029325

loop_
_atom_site_label
_atom_site_type_symbol
_atom_type_description
_atom_site_fract_x
_atom_site_fract_y
_atom_site_fract_z
_atom_type_partial_charge
C1    C     C_R   0.730259 0.376783 0.146040 0.547880
C2    C     C_R   0.032834 0.999325 0.025241 -0.133337
C3    C     C_R   0.758387 0.458543 0.566299 0.016390
C4    C     C_R   0.730473 0.381503 0.351309 0.545625
C5    C     C_R   0.270226 0.378667 0.647650 0.552894
C6    C     C_R   0.229643 0.879152 0.352217 0.548016
C7    C     C_R   0.771507 0.875724 0.646281 0.553687
C8    C     C_R   0.534368 0.156656 0.355090 0.544102
C9    C     C_R   0.469025 0.157025 0.647195 0.549478
C10   C     C_R   0.030815 0.656831 0.352682 0.546060
C11   C     C_R   0.964191 0.656910 0.644205 0.546447
C12   C     C_R   0.741837 0.970464 0.354022 0.548614
C13   C     C_R   0.529852 0.494809 0.956536 -0.133396
C14   C     C_R   0.258925 0.973212 0.644774 0.545313
C15   C     C_R   0.241134 0.472826 0.355085 0.543500
C16   C     C_R   0.760819 0.479155 0.642589 0.548311
C17   C     C_R   0.494248 0.162228 0.926729 -0.001196
C18   C     C_R   0.500527 0.169111 0.075737 -0.004181
C19   C     C_R   0.989845 0.660365 0.928290 -0.005456
C20   C     C_R   0.998649 0.671389 0.076859 -0.006491
C21   C     C_R   0.508285 0.274908 0.961008 0.015523
C22   C     C_R   0.505334 0.280493 0.036319 0.029839
C23   C     C_R   0.011499 0.770627 0.960728 0.006083
C24   C     C_R   0.519106 0.502765 0.029434 -0.140512
C25   C     C_R   0.008829 0.780035 0.035803 0.027860
C26   C     C_R   0.486515 0.059993 0.040263 -0.167391
C27   C     C_R   0.485694 0.055996 0.967446 -0.153896
C28   C     C_R   0.975872 0.564819 0.043563 -0.166411
C29   C     C_R   0.971646 0.559299 0.970728 -0.149951
C30   C     C_R   0.778652 0.843986 0.937980 0.012668
C31   C     C_R   0.248885 0.909220 0.074344 0.020603
C32   C     C_R   0.265542 0.381302 0.933814 0.020910
C33   C     C_R   0.753167 0.423934 0.077910 0.017522
C34   C     C_R   0.714182 0.820762 0.970968 0.011039
C35   C     C_R   0.276235 0.818103 0.029626 0.039340
C36   C     C_R   0.203132 0.349651 0.967715 -0.000933
C37   C     C_R   0.273713 0.367895 0.857661 0.548063
C38   C     C_R   0.803427 0.362203 0.036702 0.002714
C39   C     C_R   0.703866 0.847536 0.042202 0.006913
C40   C     C_R   0.276494 0.832102 0.956632 0.001172
C41   C     C_R   0.196771 0.362867 0.040488 0.002840
C42   C     C_R   0.805577 0.376906 0.963624 0.008281
C43   C     C_R   0.825542 0.903774 0.053162 -0.155972
C44   C     C_R   0.215407 0.023716 0.970971 -0.134869
C45   C     C_R   0.319759 0.411734 0.049360 -0.164247
C46   C     C_R   0.711305 0.522636 0.971861 -0.140058
C47   C     C_R   0.835717 0.877367 0.981054 -0.153359
C48   C     C_R   0.230286 0.876243 0.146022 0.546759
C49   C     C_R   0.216061 0.010393 0.044010 -0.146764
C50   C     C_R   0.325670 0.401595 0.975894 -0.150759
C51   C     C_R   0.712000 0.513612 0.045266 -0.140331
C52   C     C_3   0.642377 0.862965 0.951152 -0.269924
C53   C     C_3   0.347633 0.761420 0.028559 -0.268664
C54   C     C_3   0.130695 0.394531 0.953934 -0.282235
C55   C     C_3   0.819678 0.228800 0.031029 -0.248045
C56   C     C_3   0.631187 0.892611 0.029114 -0.262582
C57   C     C_3   0.346523 0.773600 0.948159 -0.281754
C58   C     C_3   0.123749 0.411148 0.033635 -0.244912
C59   C     C_R   0.788473 0.829571 0.861327 0.562806
C60   C     C_3   0.822897 0.245661 0.951131 -0.276515
C61   C     C_R   0.757688 0.899047 0.082954 0.009035
C62   C     C_R   0.248688 0.937480 0.926465 0.026563
C63   C     C_R   0.253461 0.404979 0.081322 0.015126
C64   C     C_R   0.755140 0.448375 0.929773 0.020257
C65   C     C_R   0.530921 0.156413 0.147070 0.536151
C66   C     C_R   0.468368 0.155239 0.853459 0.536291
C67   C     C_R   0.030705 0.656724 0.147292 0.534874
C68   C     C_R   0.967250 0.654749 0.854073 0.528096
C69   C     C_R   0.505399 0.165413 0.579224 0.016307
C70   C     C_R   0.524920 0.382063 0.922421 -0.096287
C71   C     C_R   0.517608 0.162069 0.430378 0.021205
C72   C     C_R   0.978831 0.663640 0.568550 0.016522
C73   C     C_R   0.993425 0.663350 0.420156 0.016091
C74   C     C_R   0.526003 0.058849 0.543552 0.023566
C75   C     C_R   0.531566 0.057973 0.470778 0.047339
C76   C     C_R   0.972987 0.555807 0.529652 0.043562
C77   C     C_R   0.979223 0.554884 0.457156 0.029953
C78   C     C_R   0.507965 0.273219 0.466230 -0.172234
C79   C     C_R   0.504437 0.275370 0.540683 -0.168937
C80   C     C_R   0.985197 0.774828 0.456568 -0.163184
C81   C     C_R   0.507087 0.397149 0.069130 -0.088611
C82   C     C_R   0.978741 0.774976 0.531000 -0.159439
C83   C     C_3   0.496561 0.931580 0.544133 -0.270531
C84   C     C_3   0.501355 0.932646 0.463995 -0.272503
C85   C     C_3   0.010336 0.437395 0.538962 -0.277457
C86   C     C_3   0.016787 0.434402 0.458938 -0.270111
C87   C     C_R   0.760410 0.899886 0.571553 0.017545
C88   C     C_R   0.249240 0.925853 0.421577 0.016241
C89   C     C_R   0.249533 0.423111 0.578153 0.013147
C90   C     C_R   0.753127 0.437669 0.417835 0.015444
C91   C     C_R   0.818352 0.939600 0.532497 0.043344
C92   C     C_R   0.033645 0.872787 0.920412 -0.097886
C93   C     C_R   0.203633 0.004741 0.457760 0.021029
C94   C     C_R   0.290477 0.511241 0.543546 0.018353
C95   C     C_R   0.708077 0.517876 0.454020 0.028403
C96   C     C_R   0.816271 0.947220 0.459811 0.025912
C97   C     C_R   0.205249 0.012035 0.530556 0.042849
C98   C     C_R   0.289787 0.519004 0.470630 0.047616
C99   C     C_R   0.710560 0.526387 0.526828 0.044225
C100  C     C_R   0.700316 0.858186 0.460466 -0.149679
C101  C     C_R   0.303478 0.874514 0.534386 -0.162482
C102  C     C_R   0.200428 0.363598 0.463783 -0.171859
C103  C     C_R   0.015699 0.897802 0.066619 -0.083632
C104  C     C_R   0.813252 0.399960 0.529411 -0.159151
C105  C     C_R   0.702611 0.851620 0.534746 -0.151034
C106  C     C_R   0.302996 0.868606 0.460119 -0.161177
C107  C     C_R   0.200525 0.355600 0.537954 -0.164309
C108  C     C_R   0.811310 0.391523 0.454964 -0.161839
C109  C     C_3   0.859279 0.055071 0.540670 -0.277637
C110  C     C_3   0.124960 0.011850 0.457341 -0.269664
C111  C     C_3   0.368227 0.532302 0.545564 -0.269190
C112  C     C_3   0.629608 0.528671 0.454657 -0.270097
C113  C     C_R   0.742072 0.967180 0.148086 0.534879
C114  C     C_R   0.043762 0.986119 0.952615 -0.124012
C115  C     C_R   0.258639 0.971486 0.853046 0.545299
C116  C     C_R   0.241576 0.467535 0.148250 0.544479
C117  C     C_R   0.759736 0.474285 0.854387 0.538880
C118  C     C_3   0.857750 0.063964 0.460665 -0.270696
C119  C     C_3   0.127298 0.018397 0.537383 -0.277616
C120  C     C_3   0.367250 0.537036 0.465556 -0.270370
C121  C     C_3   0.632941 0.535129 0.534768 -0.273286
C122  C     C_R   0.754996 0.916052 0.422979 0.016700
C123  C     C_R   0.252045 0.942257 0.570326 0.021761
C124  C     C_R   0.247860 0.441937 0.429484 0.020903
Cr1   Cr    Cr6+3 0.772010 0.169670 0.250090 1.001263
Cr2   Cr    Cr6+3 0.383290 0.010760 0.749160 1.005502
Cr3   Cr    Cr6+3 0.116710 0.510760 0.250840 1.004381
Cr4   Cr    Cr6+3 0.883290 0.510760 0.749160 1.007061
Cr5   Cr    Cr6+3 0.227990 0.169670 0.749910 1.006873
Cr6   Cr    Cr6+3 0.272010 0.669670 0.250090 1.006164
Cr7   Cr    Cr6+3 0.727990 0.669670 0.749910 1.003246
Cr8   Cr    Cr6+3 0.615000 0.323260 0.249260 1.000495
Cr9   Cr    Cr6+3 0.385000 0.323260 0.750740 1.001322
Cr10  Cr    Cr6+3 0.115000 0.823260 0.249260 1.000123
Cr11  Cr    Cr6+3 0.885000 0.823260 0.750740 1.000922
Cr12  Cr    Cr6+3 0.616710 0.010760 0.250840 1.007836
H1    H     H_    0.976198 0.363830 0.560449 0.133952
H2    H     H_    0.342234 0.823581 0.563740 0.114201
H3    H     H_    0.164836 0.306818 0.433364 0.119055
H4    H     H_    0.855478 0.356498 0.558001 0.126749
H5    H     H_    0.912748 0.040228 0.562251 0.133622
H6    H     H_    0.100237 0.926371 0.438274 0.169354
H7    H     H_    0.397142 0.452494 0.565532 0.166811
H8    H     H_    0.603435 0.444984 0.435737 0.171194
H9    H     H_    0.828692 0.128138 0.567715 0.136330
H10   H     H_    0.105432 0.097131 0.432197 0.124382
H11   H     H_    0.382514 0.620630 0.570852 0.124646
H12   H     H_    0.071844 0.441698 0.440836 0.172420
H13   H     H_    0.611100 0.614745 0.429695 0.122781
H14   H     H_    0.826489 0.142722 0.442153 0.167320
H15   H     H_    0.108465 0.106933 0.558868 0.131706
H16   H     H_    0.382871 0.626915 0.443814 0.133417
H17   H     H_    0.615048 0.623817 0.556592 0.132250
H18   H     H_    0.910334 0.053827 0.435592 0.125982
H19   H     H_    0.104769 0.936289 0.563845 0.136086
H20   H     H_    0.393616 0.457987 0.439933 0.133181
H21   H     H_    0.610512 0.453617 0.561682 0.139727
H22   H     H_    0.535089 0.379705 0.865880 0.132717
H23   H     H_    0.441783 0.927407 0.563142 0.167790
H24   H     H_    0.495810 0.409495 0.124942 0.131674
H25   H     H_    0.043202 0.866199 0.863861 0.132867
H26   H     H_    0.004398 0.914780 0.122006 0.133278
H27   H     H_    0.058925 0.064416 0.920902 0.111856
H28   H     H_    0.038162 0.088473 0.049748 0.099689
H29   H     H_    0.541020 0.576525 0.926111 0.104004
H30   H     H_    0.520506 0.591088 0.055448 0.100481
H31   H     H_    0.869207 0.939850 0.083382 0.133485
H32   H     H_    0.191331 0.105183 0.949672 0.147563
H33   H     H_    0.365331 0.438759 0.079777 0.130374
H34   H     H_    0.539000 0.864990 0.442541 0.131315
H35   H     H_    0.674965 0.586343 0.948181 0.144652
H36   H     H_    0.886911 0.892127 0.957822 0.152851
H37   H     H_    0.189752 0.078023 0.076682 0.132912
H38   H     H_    0.376780 0.415299 0.952025 0.160629
H39   H     H_    0.674425 0.567152 0.075352 0.141619
H40   H     H_    0.096032 0.321383 0.932524 0.130819
H41   H     H_    0.774994 0.170040 0.047882 0.164072
H42   H     H_    0.608564 0.786872 0.932029 0.125464
H43   H     H_    0.346671 0.665058 0.046813 0.159571
H44   H     H_    0.643142 0.945360 0.916553 0.151431
H45   H     H_    0.532714 0.864983 0.569353 0.122365
H46   H     H_    0.387939 0.819784 0.054547 0.122884
H47   H     H_    0.129853 0.482117 0.923939 0.143325
H48   H     H_    0.871310 0.205469 0.054834 0.135630
H49   H     H_    0.626276 0.992255 0.039560 0.161256
H50   H     H_    0.386898 0.836749 0.926881 0.151175
H51   H     H_    0.120180 0.508846 0.049384 0.170977
H52   H     H_    0.876621 0.233862 0.928949 0.139309
H53   H     H_    0.481272 0.974424 0.068733 0.130012
H54   H     H_    0.476742 0.967897 0.943101 0.136573
H55   H     H_    0.965252 0.482392 0.073713 0.136065
H56   H     H_    0.449397 0.932987 0.437299 0.136274
H57   H     H_    0.952977 0.474378 0.947803 0.151137
H58   H     H_    0.500914 0.356838 0.436714 0.111026
H59   H     H_    0.495719 0.360966 0.567575 0.115731
H60   H     H_    0.989264 0.860844 0.428602 0.117410
H61   H     H_    0.976395 0.861054 0.559077 0.126553
H62   H     H_    0.658717 0.813224 0.563469 0.120125
H63   H     H_    0.340705 0.811488 0.433312 0.123322
H64   H     H_    0.166740 0.289061 0.563120 0.134633
H65   H     H_    0.851439 0.339890 0.427560 0.119166
H66   H     H_    0.590850 0.833831 0.054911 0.130624
H67   H     H_    0.061470 0.448605 0.566608 0.140648
H68   H     H_    0.342925 0.684083 0.920326 0.146065
H69   H     H_    0.084125 0.349296 0.058125 0.133080
H70   H     H_    0.780789 0.195599 0.922233 0.146330
H71   H     H_    0.985794 0.359705 0.433915 0.124909
H72   H     H_    0.653762 0.827691 0.433096 0.122088
O1    O     O_R   0.787520 0.042810 0.170440 -0.533635
O2    O     O_R   0.454050 0.051210 0.669140 -0.523738
O3    O     O_R   0.045950 0.551210 0.330860 -0.523744
O4    O     O_R   0.954050 0.551210 0.669140 -0.517394
O5    O     O_R   0.681390 0.959480 0.325510 -0.506397
O6    O     O_R   0.318610 0.959480 0.674490 -0.508690
O7    O     O_R   0.181390 0.459480 0.325510 -0.510407
O8    O     O_R   0.818610 0.459480 0.674490 -0.505633
O9    O     O_3   0.667900 0.167900 0.250060 -0.241064
O10   O     O_3   0.332100 0.167900 0.749940 -0.243586
O11   O     O_3   0.167900 0.667900 0.250060 -0.240760
O12   O     O_R   0.212480 0.042810 0.829560 -0.534198
O13   O     O_3   0.832100 0.667900 0.749940 -0.267687
O14   O     O_R   0.765640 0.292100 0.175020 -0.503131
O15   O     O_R   0.234360 0.292100 0.824980 -0.501005
O16   O     O_R   0.265640 0.792100 0.175020 -0.501117
O17   O     O_R   0.734360 0.792100 0.824980 -0.501957
O18   O     O_R   0.670190 0.408840 0.168540 -0.522290
O19   O     O_R   0.329810 0.408840 0.831460 -0.530017
O20   O     O_R   0.170190 0.908840 0.168540 -0.520767
O21   O     O_R   0.829810 0.908840 0.831460 -0.519872
O22   O     O_R   0.556620 0.251410 0.175160 -0.509068
O23   O     O_R   0.287520 0.542810 0.170440 -0.529725
O24   O     O_R   0.443380 0.251410 0.824840 -0.512023
O25   O     O_R   0.056620 0.751410 0.175160 -0.509937
O26   O     O_R   0.943380 0.751410 0.824840 -0.524611
O27   O     O_R   0.545960 0.049620 0.170320 -0.525928
O28   O     O_R   0.454040 0.049620 0.829680 -0.526560
O29   O     O_R   0.045960 0.549620 0.170320 -0.527457
O30   O     O_R   0.954040 0.549620 0.829680 -0.523406
O31   O     O_R   0.681390 0.958010 0.176690 -0.497661
O32   O     O_R   0.318610 0.958010 0.823310 -0.500996
O33   O     O_R   0.181390 0.458010 0.176690 -0.501564
O34   O     O_R   0.712480 0.542810 0.829560 -0.537272
O35   O     O_R   0.818610 0.458010 0.823310 -0.497318
O36   O     O_R   0.787510 0.044390 0.330970 -0.524625
O37   O     O_R   0.212490 0.044390 0.669030 -0.519289
O38   O     O_R   0.287510 0.544390 0.330970 -0.519500
O39   O     O_R   0.712490 0.544390 0.669030 -0.518176
O40   O     O_R   0.765630 0.293570 0.323840 -0.508924
O41   O     O_R   0.234370 0.293570 0.676160 -0.506074
O42   O     O_R   0.265630 0.793570 0.323840 -0.506727
O43   O     O_R   0.734370 0.793570 0.676160 -0.502725
O44   O     O_R   0.670190 0.410420 0.329080 -0.525875
O45   O     O_R   0.556610 0.252880 0.323980 -0.510540
O46   O     O_R   0.329810 0.410420 0.670920 -0.523846
O47   O     O_R   0.170190 0.910420 0.329080 -0.526264
O48   O     O_R   0.829810 0.910420 0.670920 -0.514951
O49   O     O_R   0.443390 0.252880 0.676020 -0.510362
O50   O     O_R   0.056610 0.752880 0.323980 -0.511231
O51   O     O_R   0.943390 0.752880 0.676020 -0.508022
O52   O     O_R   0.545950 0.051210 0.330860 -0.518557

loop_
_geom_bond_atom_site_label_1
_geom_bond_atom_site_label_2
_ccdc_geom_bond_type
C3    C104  A    
C44   C49   A    
C71   C75   A    
C8    O52   A    
C87   C91   A    
C7    O48   A    
C35   C53   S    
C8    O45   A    
C20   C67   S    
C24   H30   S    
C18   C26   A    
C59   O21   A    
C74   C83   S    
C72   C76   A    
Cr2   O32   S    
C49   H37   S    
C47   H36   S    
Cr6   O38   S    
C91   C109  S    
C1    C33   S    
C90   C95   A    
Cr5   O37   S    
Cr1   O14   S    
C68   O26   A    
C18   C65   S    
C98   C124  A    
C54   H47   S    
C83   H45   S    
C100  C105  A    
C101  C123  A    
C121  H17   S    
C65   O22   A    
C53   C57   S    
C2    C103  A    
C96   C118  S    
C28   C29   A    
C9    C69   S    
C41   C58   S    
C38   C42   A    
Cr5   O12   S    
C84   H34   S    
C95   C112  S    
C78   H58   S    
C107  H64   S    
C48   O20   A    
C10   C73   S    
C95   C99   A    
C75   C84   S    
C16   O39   A    
C56   H66   S    
C20   C25   A    
C94   C98   A    
Cr4   O30   S    
Cr10  O11   S    
Cr12  O27   S    
C66   O24   A    
C94   C111  S    
C120  H20   S    
C6    C88   S    
C46   H35   S    
C14   O6    A    
Cr1   O36   S    
C110  H6    S    
Cr8   O9    S    
C44   H32   S    
C54   H40   S    
C89   C94   A    
C16   O8    A    
C4    O40   A    
Cr2   O6    S    
C91   C96   A    
C88   C93   A    
C52   C56   S    
C73   C80   A    
C7    C87   S    
C38   C55   S    
C83   C84   S    
C12   O36   A    
Cr3   O33   S    
Cr12  O52   S    
C55   H48   S    
C10   O50   A    
C118  H18   S    
C14   C123  S    
C27   H54   S    
Cr11  O48   S    
Cr2   O28   S    
C111  H7    S    
C93   C110  S    
C99   C121  S    
C14   O37   A    
C117  O34   A    
C103  H26   S    
Cr9   O49   S    
C40   C62   A    
C98   C120  S    
C60   H52   S    
C81   H24   S    
C121  H21   S    
C55   C60   S    
C55   H41   S    
Cr1   O1    S    
C36   C41   A    
C15   O38   A    
C12   O5    A    
C31   C49   A    
C102  C124  A    
C53   H43   S    
C11   C72   S    
C26   H53   S    
Cr7   O43   S    
C109  C118  S    
C4    C90   S    
Cr6   O42   S    
C119  H15   S    
C39   C61   A    
Cr5   O41   S    
C120  H16   S    
C15   C124  S    
C30   C34   A    
Cr3   O11   S    
C34   C39   A    
C17   C27   A    
C22   C81   A    
C5    O41   A    
C30   C47   A    
C102  C107  A    
C76   C77   A    
C4    O44   A    
C82   H61   S    
C15   O7    A    
C74   C75   A    
C17   C66   S    
C42   C60   S    
C100  H72   S    
C6    O42   A    
C78   C79   A    
C25   C103  A    
Cr12  O9    S    
C20   C28   A    
C58   H69   S    
C44   C62   A    
C9    O49   A    
C85   C86   S    
C46   C51   A    
C112  H13   S    
C17   C21   A    
C64   C117  S    
C104  H4    S    
C13   C24   A    
Cr8   O22   S    
C111  C120  S    
C70   H22   S    
Cr10  O20   S    
C5    O46   A    
C97   C119  S    
C19   C23   A    
C24   C81   A    
C52   H44   S    
C108  H65   S    
Cr8   O18   S    
C11   O4    A    
C88   C106  A    
Cr7   O17   S    
C13   H29   S    
C39   C56   S    
C87   C105  A    
C1    O18   A    
C37   O19   A    
C9    O2    A    
Cr10  O50   S    
C30   C59   S    
C89   C107  A    
C12   C122  S    
C26   C27   A    
Cr11  O26   S    
C67   O29   A    
C19   C68   S    
Cr7   O13   S    
Cr8   O44   S    
C66   O28   A    
C32   C37   S    
Cr11  O21   S    
C51   H39   S    
C32   C50   A    
C57   H50   S    
C110  H10   S    
Cr7   O39   S    
Cr8   O45   S    
Cr4   O8    S    
C63   C116  S    
C117  O35   A    
C80   C82   A    
C105  H62   S    
Cr5   O10   S    
C77   C86   S    
Cr11  O13   S    
C79   H59   S    
C31   C48   S    
C116  O23   A    
Cr2   O2    S    
C31   C35   A    
C115  O12   A    
C69   C79   A    
C90   C108  A    
C41   C63   A    
C2    H28   S    
C19   C29   A    
C28   H55   S    
C93   C97   A    
C104  C108  A    
C43   C61   A    
Cr12  O5    S    
C54   C58   S    
C85   H1    S    
Cr3   O3    S    
C101  C106  A    
Cr4   O35   S    
C116  O33   A    
C67   O25   A    
C8    C71   S    
C119  H19   S    
C40   C57   S    
C112  C121  S    
C58   H51   S    
C18   C22   A    
C34   C52   S    
C65   O27   A    
C109  H9    S    
Cr9   O19   S    
C5    C89   S    
Cr1   O40   S    
Cr7   O34   S    
C45   H33   S    
C110  C119  S    
Cr10  O47   S    
C42   C64   A    
C101  H2    S    
C32   C36   A    
Cr3   O29   S    
C43   H31   S    
C33   C51   A    
C48   O16   A    
C86   H71   S    
Cr11  O51   S    
Cr9   O10   S    
C96   C122  A    
C21   C70   A    
C50   H38   S    
C80   H60   S    
C112  H8    S    
Cr6   O16   S    
C35   C40   A    
Cr4   O13   S    
C118  H14   S    
C62   C115  S    
C97   C123  A    
C68   O30   A    
C53   H46   S    
Cr4   O4    S    
C7    O43   A    
C61   C113  S    
C2    C114  A    
C60   H70   S    
C114  H27   S    
C115  O32   A    
Cr9   O46   S    
C43   C47   A    
Cr6   O23   S    
C29   H57   S    
C76   C85   S    
C57   H68   S    
Cr10  O25   S    
C45   C63   A    
C6    O47   A    
C84   H56   S    
C100  C122  A    
C102  H3    S    
C23   C25   A    
C92   H25   S    
Cr6   O11   S    
C59   O17   A    
C86   H12   S    
C52   H42   S    
Cr9   O24   S    
C36   C54   S    
C85   H67   S    
C113  O1    A    
Cr3   O7    S    
C3    C99   A    
C10   O3    A    
C113  O31   A    
C83   H23   S    
C56   H49   S    
C13   C70   A    
Cr12  O31   S    
C46   C64   A    
C37   O15   A    
C111  H11   S    
C73   C77   A    
C23   C92   A    
C1    O14   A    
C33   C38   A    
C109  H5    S    
C45   C50   A    
C69   C74   A    
C21   C22   A    
C92   C114  A    
Cr5   O15   S    
C71   C78   A    
C72   C82   A    
C3    C16   S    
Cr2   O10   S    
C11   O51   A    
C106  H63   S    
Cr1   O9    S    
