data_mof_unit_16927.cif
_audit_creation_date              2012-12-11T17:01:30-0500
_audit_creation_method            fapswitch 2.2
_symmetry_space_group_name_H-M    P1
_symmetry_Int_Tables_number       1
_space_group_crystal_system       triclinic
_cell_length_a                    15.088166
_cell_length_b                    14.870679
_cell_length_c                    14.849062
_cell_angle_alpha                 109.55635
_cell_angle_beta                  109.285353
_cell_angle_gamma                 109.95681
_cell_volume                      2552.42552881

loop_
_atom_site_label
_atom_site_type_symbol
_atom_type_description
_atom_site_fract_x
_atom_site_fract_y
_atom_site_fract_z
_atom_type_partial_charge
C1    C     C_R   0.930333 0.744228 0.022819 -0.149726
C2    C     C_R   0.209725 0.805589 0.301418 -0.136057
C3    C     C_R   0.972684 0.408430 0.223901 -0.125292
C4    C     C_R   0.779021 0.254207 0.685582 -0.147634
C5    C     C_R   0.314495 0.592800 0.035297 0.176544
C6    C     C_R   0.050136 0.502120 0.327537 0.071118
C7    C     C_R   0.325302 0.499539 0.015402 -0.067091
C8    C     C_R   0.301860 0.869936 0.302663 0.057705
C9    C     C_R   0.935048 0.131348 0.934879 0.077913
C10   C     C_3   0.522920 0.389249 0.054154 -0.399914
C11   C     C_3   0.414486 0.386352 0.029850 -0.400602
C12   C     C_R   0.676097 0.225228 0.673046 0.070884
C13   C     C_3   0.628411 0.597621 0.164553 -0.418828
C14   C     C_3   0.549976 0.498966 0.956985 -0.394734
C15   C     C_3   0.603567 0.495609 0.063869 0.390289
C16   C     C_R   0.097259 0.592738 0.793532 -0.148090
C17   C     C_3   0.425202 0.496101 0.034664 0.396983
C18   C     C_3   0.521536 0.592175 0.151624 -0.379773
C19   C     C_3   0.447493 0.503456 0.942223 -0.380990
C20   C     C_R   0.571672 0.127128 0.467643 0.164100
C21   C     C_R   0.574754 0.170636 0.568796 0.033926
C22   C     C_R   0.474432 0.141215 0.566573 -0.196069
C23   C     C_R   0.068811 0.502378 0.699646 0.070405
C24   C     C_R   0.378313 0.048847 0.472189 -0.190332
C25   C     C_R   0.382720 0.987651 0.379847 0.037055
C26   C     C_R   0.476676 0.037265 0.374211 0.144324
C27   C     C_3   0.537095 0.989196 0.332720 -0.471441
C28   C     C_R   0.703215 0.406905 0.007811 -0.153456
C29   C     C_3   0.640705 0.086676 0.435143 -0.533273
C30   C     C_R   0.159264 0.605547 0.533200 0.134362
C31   C     C_R   0.099852 0.505666 0.432482 0.043942
C32   C     C_R   0.072951 0.407051 0.436154 -0.199880
C33   C     C_R   0.077527 0.407019 0.531843 -0.184919
C34   C     C_R   0.703268 0.497459 0.072950 0.006289
C35   C     C_R   0.110055 0.505862 0.623705 0.014185
C36   C     C_R   0.166269 0.605987 0.628436 0.138824
C37   C     C_3   0.164770 0.712008 0.670808 0.039772
C38   C     C_3   0.154357 0.709740 0.565418 -0.597218
C39   C     C_R   0.842830 0.872035 0.944961 0.166707
C40   C     C_R   0.005675 0.409530 0.699852 -0.134261
C41   C     C_R   0.899327 0.829593 0.902920 0.028281
C42   C     C_R   0.926321 0.860936 0.831837 -0.193290
C43   C     C_R   0.924540 0.953599 0.829294 -0.196257
C44   C     C_R   0.894728 0.013697 0.897048 0.027486
C45   C     C_R   0.066917 0.593421 0.314637 -0.140710
C46   C     C_R   0.840088 0.962596 0.941428 0.175201
C47   C     C_3   0.847240 0.009177 0.051533 -0.512282
C48   C     C_3   0.851087 0.910914 0.056156 -0.518480
C49   C     C_R   0.793791 0.590222 0.100585 -0.156613
C50   C     C_R   0.686083 0.250133 0.776137 -0.115889
C51   C     C_R   0.025455 0.749944 0.934481 -0.109830
C52   C     C_R   0.947725 0.774070 0.948754 0.066381
C53   C     C_R   0.222439 0.406607 0.955563 -0.169606
C54   C     C_R   0.297087 0.806161 0.207736 -0.119050
C55   C     C_R   0.904792 0.195289 0.994934 -0.157364
C56   C     C_R   0.998003 0.195454 0.906059 -0.126161
H1    H     H_    0.871399 0.745051 0.048070 0.110154
H2    H     H_    0.350360 0.313930 0.946271 0.156080
H3    H     H_    0.802607 0.251546 0.624243 0.111969
H4    H     H_    0.391498 0.374171 0.090567 0.163272
H5    H     H_    0.673235 0.600139 0.242631 0.157095
H6    H     H_    0.507095 0.578049 0.215797 0.158820
H7    H     H_    0.607287 0.572684 0.960195 0.165371
H8    H     H_    0.528590 0.424117 0.883568 0.159778
H9    H     H_    0.377283 0.433649 0.859734 0.157572
H10   H     H_    0.458226 0.580802 0.942360 0.205094
H11   H     H_    0.679752 0.675822 0.170225 0.163995
H12   H     H_    0.198772 0.320252 0.917408 0.107705
H13   H     H_    0.530860 0.673953 0.168632 0.189546
H14   H     H_    0.471240 0.178865 0.640737 0.126495
H15   H     H_    0.161212 0.676756 0.831146 0.155788
H16   H     H_    0.305142 0.018570 0.477479 0.126590
H17   H     H_    0.520867 0.909376 0.330296 0.211452
H18   H     H_    0.530356 0.989682 0.256069 0.225553
H19   H     H_    0.682044 0.061156 0.490341 0.202815
H20   H     H_    0.693824 0.142474 0.417227 0.197862
H21   H     H_    0.034893 0.328233 0.362327 0.126871
H22   H     H_    0.042242 0.328017 0.527566 0.124813
H23   H     H_    0.338914 0.839198 0.170480 0.152197
H24   H     H_    0.091256 0.702780 0.677477 0.104480
H25   H     H_    0.073723 0.696346 0.512317 0.182456
H26   H     H_    0.649578 0.320761 0.977665 0.097587
H27   H     H_    0.225703 0.778683 0.577685 0.225992
H28   H     H_    0.962316 0.824479 0.790167 0.130599
H29   H     H_    0.959164 0.984804 0.785625 0.127566
H30   H     H_    0.924393 0.088731 0.116156 0.195034
H31   H     H_    0.771496 0.008678 0.045010 0.208988
H32   H     H_    0.930782 0.935877 0.123564 0.199188
H33   H     H_    0.777950 0.854346 0.053196 0.202638
H34   H     H_    0.840643 0.166293 0.013298 0.109584
H35   H     H_    0.982879 0.325192 0.648107 0.086386
H36   H     H_    0.823469 0.675771 0.156578 0.090205
H37   H     H_    0.622823 0.239478 0.797308 0.095217
H38   H     H_    0.057451 0.761351 0.881479 0.104458
H39   H     H_    0.124781 0.679184 0.375706 0.116337
H40   H     H_    0.021646 0.166977 0.845833 0.084730
H41   H     H_    0.178337 0.834733 0.353502 0.088564
H42   H     H_    0.940544 0.322710 0.202389 0.095062
H43   H     H_    0.558358 0.388156 0.132194 0.164261
H44   H     H_    0.505071 0.312783 0.985909 0.156751
I1    I     I_    0.415361 0.741986 0.046514 -0.527306
I2    I     I_    0.318101 0.847325 0.813042 -0.428627
N1    N     N_R   0.995640 0.706130 0.053910 -0.042596
N2    N     N_R   0.054010 0.556790 0.847890 -0.039571
N3    N     N_R   0.789940 0.443190 0.997130 -0.034549
N4    N     N_R   0.997630 0.443170 0.791110 -0.041214
N5    N     N_R   0.846320 0.556810 0.053910 -0.034589
N6    N     N_R   0.791080 0.293860 0.847890 -0.041245
N7    N     N_R   0.052880 0.706130 0.997130 -0.039717
N8    N     N_R   0.002370 0.556830 0.208890 -0.040760
N9    N     N_R   0.153680 0.443190 0.946090 -0.043430
N10   N     N_R   0.208920 0.706140 0.152110 -0.039886
N11   N     N_R   0.947120 0.293870 0.002870 -0.039988
N12   N     N_R   0.004360 0.293870 0.946090 -0.039429
N13   N     N_R   0.151690 0.706140 0.208890 -0.043060
N14   N     N_R   0.945990 0.443210 0.152110 -0.038798
N15   N     N_R   0.210060 0.556810 0.002870 -0.047047
N16   N     N_R   0.848310 0.293860 0.791110 -0.041935
Ni1   Ni    Ni4+2 0.999010 0.630300 0.130220 0.206338
Ni2   Ni    Ni4+2 0.000990 0.369700 0.869780 0.207551
Ni3   Ni    Ni4+2 0.130280 0.630280 0.000000 0.244371
Ni4   Ni    Ni4+2 0.869720 0.369720 0.000000 0.214956

loop_
_geom_bond_atom_site_label_1
_geom_bond_atom_site_label_2
_ccdc_geom_bond_type
C6    C45   A    
C38   H27   S    
C27   C29   S    
C41   C42   A    
C35   C36   A    
C3    C6    A    
N2    N4    A    
C39   C41   A    
C29   H20   S    
N3    N5    A    
C26   C27   S    
N14   Ni4   S    
C13   C18   S    
C36   C37   S    
N11   N12   A    
C55   H34   S    
C3    N14   A    
C30   C31   A    
C33   H22   S    
N9    N15   A    
C23   C40   A    
C30   C38   S    
C19   H10   S    
C53   H12   S    
N15   Ni3   S    
C17   C19   S    
C32   H21   S    
C16   N2    A    
N11   Ni4   S    
C31   C32   A    
C2    H41   S    
C7    C17   S    
C48   H32   S    
C9    C55   A    
C4    C12   A    
C27   H18   S    
C1    N1    A    
C15   C34   S    
C53   N9    A    
C18   H13   S    
C6    C31   S    
C28   C34   A    
C51   N7    A    
N1    N7    A    
C21   C22   A    
C50   N6    A    
C8    C25   S    
C4    N16   A    
C16   H15   S    
N5    Ni1   S    
C44   C46   A    
C20   C29   S    
C37   H24   S    
C5    I1    S    
C28   H26   S    
C51   C52   A    
C43   H29   S    
C47   H30   S    
N6    N16   A    
C42   H28   S    
C24   C25   A    
C49   N5    A    
C8    C54   A    
C5    C7    A    
C45   N8    A    
C18   H6    S    
N2    Ni3   S    
C55   N11   A    
C25   C26   A    
C12   C21   S    
C5    N15   A    
N9    Ni2   S    
C47   H31   S    
C43   C44   A    
C37   C38   S    
C1    H1    S    
C2    N13   A    
C47   C48   S    
C28   N3    A    
C14   H8    S    
C17   C18   S    
C54   N10   A    
C9    C56   A    
C10   H44   S    
C9    C44   S    
N1    Ni1   S    
C39   C46   A    
C16   C23   A    
C23   C35   S    
C48   H33   S    
C13   C15   S    
C38   H25   S    
C22   C24   A    
C42   C43   A    
C7    C53   A    
C49   H36   S    
C11   H4    S    
C45   H39   S    
N8    N14   A    
C24   H16   S    
C40   N4    A    
C54   H23   S    
C13   H11   S    
C56   H40   S    
C46   C47   S    
C11   C17   S    
C34   C49   A    
C41   C52   S    
N4    Ni2   S    
C14   C19   S    
C2    C8    A    
N6    Ni4   S    
N8    Ni1   S    
C12   C50   A    
C50   H37   S    
C29   H19   S    
N13   Ni1   S    
C30   C36   A    
C10   C15   S    
C32   C33   A    
N10   Ni3   S    
C3    H42   S    
N7    Ni3   S    
C37   I2    S    
C20   C26   A    
C14   H7    S    
C4    H3    S    
C33   C35   A    
C11   H2    S    
N3    Ni4   S    
C19   H9    S    
C40   H35   S    
C10   H43   S    
C1    C52   A    
N16   Ni2   S    
C10   C11   S    
C51   H38   S    
C13   H5    S    
C20   C21   A    
C56   N12   A    
C14   C15   S    
C27   H17   S    
C22   H14   S    
N10   N13   A    
N12   Ni2   S    
C39   C48   S    
