data_mof_unit_16677.cif
_audit_creation_date              2012-12-11T15:30:31-0500
_audit_creation_method            fapswitch 2.2
_symmetry_space_group_name_H-M    P1
_symmetry_Int_Tables_number       1
_space_group_crystal_system       triclinic
_cell_length_a                    6.947296
_cell_length_b                    20.461429
_cell_length_c                    24.453679
_cell_angle_alpha                 89.621122
_cell_angle_beta                  90.86504
_cell_angle_gamma                 89.898456
_cell_volume                      3475.65143234

loop_
_atom_site_label
_atom_site_type_symbol
_atom_type_description
_atom_site_fract_x
_atom_site_fract_y
_atom_site_fract_z
_atom_type_partial_charge
O1    O     O_R   0.507310 0.423620 0.460450 -0.540295
O2    O     O_R   0.170760 0.556060 0.437190 -0.540579
O3    O     O_R   0.004040 0.576380 0.539550 -0.539296
C1    C     C_R   0.338767 0.576213 0.421219 0.717566
O4    O     O_R   0.177350 0.422870 0.454070 -0.541277
O5    O     O_R   0.010680 0.442240 0.556560 -0.535596
C2    C     C_R   0.345409 0.399049 0.443171 0.684023
O6    O     O_R   0.500670 0.557760 0.443440 -0.539324
O7    O     O_3   0.340380 0.506510 0.533610 -0.356986
V1    V     V_3+5 0.064130 0.498790 0.493770 1.435582
O8    O     O_R   0.681170 0.443940 0.562810 -0.527730
C3    C     C_R   0.850929 0.423631 0.578509 0.764369
O9    O     O_R   0.674570 0.577130 0.545930 -0.523823
C4    C     C_R   0.844138 0.600926 0.556619 0.750971
V2    V     V_3+5 0.564560 0.501210 0.506230 1.464934
O10   O     O_3   0.838170 0.493490 0.466390 -0.376642
C5    C     C_R   0.961706 0.837263 0.913004 -0.038421
C6    C     C_R   0.857545 0.660266 0.590570 -0.108399
C7    C     C_R   0.836895 0.727183 0.910833 -0.121372
C8    C     C_R   0.890673 0.782378 0.940015 -0.187369
C9    C     C_R   0.983941 0.835924 0.856005 -0.186105
C10   C     C_R   0.925994 0.780477 0.824759 0.027308
C11   C     C_R   0.848360 0.725973 0.853446 0.057267
C12   C     C_R   0.934400 0.778329 0.766152 0.057688
C13   C     C_R   0.873178 0.720886 0.737732 0.015564
C14   C     C_R   0.778080 0.672115 0.767643 -0.235399
C15   C     C_R   0.773771 0.672115 0.824829 0.382988
C16   C     C_R   0.991638 0.832792 0.734670 -0.163486
C17   C     C_R   0.980919 0.831922 0.677896 -0.196084
C18   C     C_R   0.929232 0.775182 0.649989 0.134116
C19   C     C_R   0.890474 0.716769 0.679293 0.054940
C20   C     C_R   0.918632 0.776555 0.592760 -0.161008
C21   C     C_R   0.877161 0.720154 0.563577 -0.195125
C22   C     C_R   0.872776 0.657288 0.648550 -0.055503
H1    H     H_    0.870386 0.722616 0.519302 0.107755
H2    H     H_    0.016623 0.876068 0.655500 0.115371
H3    H     H_    0.779684 0.686098 0.933489 0.153030
H4    H     H_    0.870733 0.783088 0.983882 0.105476
H5    H     H_    0.038708 0.879800 0.837356 0.091586
H6    H     H_    0.695688 0.635045 0.746800 0.145919
H7    H     H_    0.036968 0.878248 0.752571 0.115271
H8    H     H_    0.943299 0.821589 0.570368 0.111577
C23   C     C_3   0.716961 0.229190 0.782690 -0.328449
C24   C     C_3   0.051253 0.270109 0.802706 -0.330196
C25   C     C_3   0.031666 0.319658 0.754337 -0.323299
H9    H     H_    0.632137 0.324675 0.748827 0.148141
H10   H     H_    0.662292 0.252183 0.820558 0.138210
H11   H     H_    0.205422 0.256574 0.808747 0.138372
H12   H     H_    0.003030 0.293675 0.841044 0.139311
H13   H     H_    0.974519 0.366799 0.769664 0.143793
H14   H     H_    0.176544 0.329694 0.737385 0.140457
C26   C     C_1   0.863987 0.378246 0.624299 -0.190582
C27   C     C_3   0.929863 0.207882 0.791479 0.291979
C28   C     C_3   0.697321 0.278469 0.734175 -0.333263
C29   C     C_3   0.896409 0.292605 0.708752 0.291092
C30   C     C_3   0.981571 0.226767 0.689171 -0.329214
C31   C     C_3   0.000824 0.177192 0.737526 -0.328205
C32   C     C_1   0.877726 0.339939 0.662380 -0.101938
C33   C     C_1   0.947916 0.160396 0.837781 -0.101898
C34   C     C_1   0.960815 0.121804 0.875694 -0.193854
H15   H     H_    0.915487 0.132605 0.728010 0.137069
H16   H     H_    0.153948 0.161838 0.742379 0.135871
H17   H     H_    0.887455 0.205721 0.656564 0.136546
H18   H     H_    0.625724 0.185628 0.774303 0.136750
H19   H     H_    0.597675 0.258187 0.702543 0.136404
H20   H     H_    0.125603 0.235100 0.671082 0.135898
C35   C     C_3   0.592071 0.700837 0.266070 -0.326684
C36   C     C_3   0.237375 0.696017 0.245013 -0.330170
C37   C     C_3   0.264582 0.745405 0.196978 -0.325491
H21   H     H_    0.652876 0.723197 0.180098 0.137836
H22   H     H_    0.612712 0.650199 0.250873 0.137329
H23   H     H_    0.089740 0.701296 0.261507 0.137098
H24   H     H_    0.250603 0.645242 0.229467 0.138084
H25   H     H_    0.290823 0.718101 0.158589 0.138350
H26   H     H_    0.129683 0.774062 0.190588 0.135994
C38   C     C_1   0.475621 0.878260 0.124727 -0.194568
C39   C     C_3   0.388949 0.707679 0.291156 0.290736
C40   C     C_3   0.619235 0.750304 0.218091 -0.331809
C41   C     C_3   0.435358 0.792378 0.208883 0.291212
C42   C     C_3   0.393268 0.828566 0.263002 -0.328005
C43   C     C_3   0.366226 0.779133 0.311022 -0.327782
C44   C     C_1   0.460106 0.839800 0.162690 -0.100772
C45   C     C_1   0.364182 0.660254 0.337348 -0.102033
C46   C     C_1   0.348651 0.621788 0.375307 -0.194152
H27   H     H_    0.474088 0.789364 0.343956 0.136810
H28   H     H_    0.221108 0.785972 0.328804 0.135317
H29   H     H_    0.513916 0.862312 0.273109 0.136660
H30   H     H_    0.704565 0.709455 0.298090 0.135270
H31   H     H_    0.744389 0.782484 0.227351 0.134903
H32   H     H_    0.260952 0.858883 0.257949 0.136419
C47   C     C_R   0.475642 0.161636 0.089239 -0.042881
C48   C     C_R   0.348860 0.338395 0.410789 -0.041097
C49   C     C_R   0.551410 0.276629 0.095751 -0.164607
C50   C     C_R   0.538354 0.219677 0.065167 -0.168203
C51   C     C_R   0.426538 0.160885 0.144911 -0.216609
C52   C     C_R   0.442466 0.218305 0.177558 0.086140
C53   C     C_R   0.505737 0.276425 0.151467 0.141484
C54   C     C_R   0.400992 0.220095 0.235017 0.058688
C55   C     C_R   0.423588 0.279932 0.265014 0.058528
C56   C     C_R   0.486208 0.335964 0.236507 -0.189507
C57   C     C_R   0.525795 0.334074 0.181073 -0.204194
C58   C     C_R   0.338385 0.164062 0.263524 -0.189474
C59   C     C_R   0.298788 0.165953 0.318957 -0.205102
C60   C     C_R   0.318822 0.223603 0.348561 0.142084
C61   C     C_R   0.382097 0.281723 0.322472 0.085940
C62   C     C_R   0.273116 0.223401 0.404274 -0.165760
C63   C     C_R   0.286140 0.280354 0.434858 -0.170213
C64   C     C_R   0.397996 0.339146 0.355119 -0.216895
H33   H     H_    0.574180 0.378467 0.161139 0.120109
H34   H     H_    0.442539 0.385492 0.338497 0.093483
H35   H     H_    0.245646 0.279292 0.477477 0.103053
H36   H     H_    0.250408 0.121559 0.338890 0.119224
H37   H     H_    0.600536 0.320950 0.075893 0.110853
H38   H     H_    0.578807 0.220741 0.022545 0.104653
H39   H     H_    0.381983 0.114540 0.161532 0.093759
H40   H     H_    0.506968 0.382527 0.255919 0.121040
H41   H     H_    0.317644 0.117497 0.244114 0.121011
H42   H     H_    0.223978 0.179081 0.424130 0.109453
O11   O     O_R   0.323590 0.942280 0.056590 -0.534830
O12   O     O_R   0.647030 0.077140 0.045940 -0.538377
O13   O     O_R   0.813570 0.057750 0.943430 -0.534673
C65   C     C_R   0.479006 0.100984 0.056854 0.693247
O14   O     O_R   0.653510 0.943950 0.062820 -0.538171
O15   O     O_R   0.820100 0.923600 0.960440 -0.535222
C66   C     C_R   0.485498 0.923818 0.078804 0.726079
O16   O     O_R   0.317060 0.076430 0.039590 -0.536115
O17   O     O_3   0.483830 0.993520 0.966410 -0.366018
V3    V     V_3+5 0.760140 0.001200 0.006230 1.420637
O18   O     O_R   0.149560 0.922820 0.954030 -0.538948
C67   C     C_R   0.979715 0.898671 0.943786 0.693048
O19   O     O_R   0.143080 0.056020 0.937150 -0.538607
C68   C     C_R   0.973358 0.076182 0.921343 0.727488
V4    V     V_3+5 0.259690 0.998730 0.993720 1.419499
O20   O     O_3   0.986120 0.006480 0.033580 -0.367124
O21   O     O_3   0.671543 0.624660 0.853192 -0.577281
C69   C     C_3   0.727863 0.560311 0.839294 0.051168
H43   H     H_    0.777881 0.535431 0.877467 0.134428
H44   H     H_    0.849941 0.557442 0.810244 0.140441
C70   C     C_3   0.553371 0.523342 0.816393 -0.258425
H45   H     H_    0.436046 0.524106 0.846800 0.200657
H46   H     H_    0.499694 0.547768 0.778423 0.217214
C71   C     C_3   0.603268 0.452509 0.803577 -0.862122
H47   H     H_    0.716849 0.450539 0.772216 0.230526
H48   H     H_    0.473161 0.427221 0.787478 0.233032
H49   H     H_    0.654509 0.426555 0.841104 0.225713
C72   C     C_2   0.902284 0.592217 0.674643 0.694294
O22   O     O_2   0.039244 0.583266 0.705833 -0.561533
O23   O     O_R   0.773060 0.541507 0.663863 -0.668795
H50   H     H_    0.807727 0.499995 0.684588 0.280781

loop_
_geom_bond_atom_site_label_1
_geom_bond_atom_site_label_2
_ccdc_geom_bond_type
C24   H12   S    
C13   C19   A    
C29   C30   S    
C49   C50   A    
H21   C40   S    
C70   H46   S    
C4    C6    S    
O2    C1    A    
C51   C52   A    
C35   C39   S    
C1    O6    A    
C34   C68   S    
C60   C62   A    
C27   C33   S    
O21   C69   S    
C28   H19   S    
C17   H2    S    
C14   C15   A    
O11   V4    S    
C16   C17   A    
C72   O22   D    
C42   H29   S    
O5    C3    A    
C18   C19   A    
C70   C71   S    
O14   C66   A    
C62   C63   A    
C25   H14   S    
C57   H33   S    
V2    O10   S    
C16   H7    S    
C5    C8    A    
C30   C31   S    
C7    H3    S    
O8    V2    S    
C24   C27   S    
C48   C64   A    
C7    C8    A    
O16   V4    S    
C51   H39   S    
C36   C37   S    
C47   C65   S    
C52   C54   A    
O1    V2    S    
C11   C15   A    
O7    V1    S    
C43   H28   S    
O15   V3    S    
C23   C27   S    
C33   C34   T    
O9    C4    A    
C62   H42   S    
C42   H32   S    
C38   C66   S    
C71   H49   S    
C35   C40   S    
C69   C70   S    
C60   C61   A    
C3    C26   S    
O12   C65   A    
C23   H18   S    
C72   O23   S    
C40   H31   S    
C50   H38   S    
C55   C61   A    
C61   C64   A    
C19   C22   A    
O17   V4    S    
C31   H16   S    
C12   C13   A    
O13   V3    S    
C69   H44   S    
C38   C44   T    
O4    C2    A    
C27   C31   S    
C40   C41   S    
C42   C43   S    
C36   H24   S    
C54   C58   A    
C5    C9    A    
C59   H36   S    
C65   O16   A    
C7    C11   A    
C17   C18   A    
V3    O20   S    
C8    H4    S    
C48   C63   A    
C45   C46   T    
C1    C46   S    
C39   C43   S    
C36   H23   S    
C52   C53   A    
H9    C28   S    
C35   H30   S    
C30   H17   S    
O15   C67   A    
C37   H25   S    
C49   H37   S    
O23   H50   S    
C23   C28   S    
C6    C22   A    
C58   H41   S    
C26   C32   T    
O18   V4    S    
O11   C66   A    
O6    V2    S    
O9    V2    S    
V4    O20   S    
C10   C12   A    
C37   C41   S    
O13   C68   A    
O17   V3    S    
O2    V1    S    
C49   C53   A    
C71   H48   S    
C24   C25   S    
O18   C67   A    
C36   C39   S    
C28   C29   S    
C20   H8    S    
C5    C67   S    
O1    C2    A    
C63   H35   S    
C9    H5    S    
C12   C16   A    
C69   H43   S    
O19   V4    S    
O5    V1    S    
C41   C44   S    
C70   H45   S    
O12   V3    S    
C31   H15   S    
O3    C4    A    
C55   C56   A    
C15   O21   S    
C56   H40   S    
C13   C14   A    
O4    V1    S    
O3    V1    S    
V1    O10   S    
C20   C21   A    
C47   C50   A    
C18   C20   A    
C22   C72   S    
C14   H6    S    
O14   V3    S    
C25   H13   S    
C30   H20   S    
C2    C48   S    
C56   C57   A    
C21   H1    S    
C64   H34   S    
C37   H26   S    
C35   H22   S    
O7    V2    S    
C58   C59   A    
C6    C21   A    
C43   H27   S    
C47   C51   A    
C41   C42   S    
C24   H11   S    
C25   C29   S    
C54   C55   A    
C29   C32   S    
C59   C60   A    
C71   H47   S    
C39   C45   S    
C10   C11   A    
C9    C10   A    
C23   H10   S    
C53   C57   A    
O19   C68   A    
O8    C3    A    
