data_mof_unit_64263.cif
_audit_creation_date              2012-12-11T17:37:26-0500
_audit_creation_method            fapswitch 2.2
_symmetry_space_group_name_H-M    P1
_symmetry_Int_Tables_number       1
_space_group_crystal_system       triclinic
_cell_length_a                    23.772638
_cell_length_b                    6.906115
_cell_length_c                    21.997568
_cell_angle_alpha                 90.0
_cell_angle_beta                  101.874925
_cell_angle_gamma                 90.00002
_cell_volume                      3534.19639403

loop_
_atom_site_label
_atom_site_type_symbol
_atom_type_description
_atom_site_fract_x
_atom_site_fract_y
_atom_site_fract_z
_atom_type_partial_charge
O1    O     O_R   0.301920 0.607900 0.199160 -0.512002
O2    O     O_R   0.698080 0.392100 0.800840 -0.512002
O3    O     O_R   0.198080 0.107900 0.300840 -0.512002
O4    O     O_R   0.801920 0.892100 0.699160 -0.512002
O5    O     O_R   0.190790 0.275820 0.184850 -0.522886
O6    O     O_R   0.809210 0.724180 0.815150 -0.522886
O7    O     O_R   0.309210 0.775820 0.315150 -0.522886
O8    O     O_R   0.690790 0.224180 0.684850 -0.522886
C1    C     C_R   0.168716 0.447191 0.166667 0.748937
C2    C     C_R   0.831284 0.552809 0.833333 0.748936
C3    C     C_R   0.331284 0.947191 0.333333 0.748936
C4    C     C_R   0.668716 0.052809 0.666667 0.748936
O9    O     O_R   0.301050 0.278040 0.191980 -0.535376
O10   O     O_R   0.698950 0.721960 0.808020 -0.535377
O11   O     O_R   0.198950 0.778040 0.308020 -0.535376
O12   O     O_R   0.801050 0.221960 0.691980 -0.535376
O13   O     O_R   0.309130 0.110040 0.308020 -0.526543
O14   O     O_R   0.690870 0.889960 0.691980 -0.526543
O15   O     O_R   0.190870 0.610040 0.191980 -0.526543
O16   O     O_R   0.809130 0.389960 0.808020 -0.526542
C5    C     C_R   0.320360 0.447498 0.180007 0.789859
C6    C     C_R   0.679640 0.552502 0.819993 0.789860
C7    C     C_R   0.179640 0.947498 0.319993 0.789860
C8    C     C_R   0.820360 0.052502 0.680007 0.789859
O17   O     O_3   0.252520 0.442130 0.288070 -0.358569
O18   O     O_3   0.747480 0.557870 0.711930 -0.358569
O19   O     O_3   0.247480 0.942130 0.211930 -0.358569
O20   O     O_3   0.752520 0.057870 0.788070 -0.358569
V1    V     V_3+5 0.249530 0.166380 0.242940 1.546042
V2    V     V_3+5 0.750470 0.833620 0.757060 1.546042
V3    V     V_3+5 0.250470 0.666380 0.257060 1.546043
V4    V     V_3+5 0.749530 0.333620 0.742940 1.546043
C9    C     C_R   0.904332 0.174398 0.555031 0.430167
C10   C     C_R   0.095668 0.825602 0.444969 0.430167
C11   C     C_R   0.595668 0.674399 0.944968 0.430167
C12   C     C_R   0.404332 0.325601 0.055031 0.430167
C13   C     C_R   0.865503 0.184551 0.595089 -0.220099
C14   C     C_R   0.134497 0.815449 0.404911 -0.220099
C15   C     C_R   0.634497 0.684551 0.904911 -0.220101
C16   C     C_R   0.365503 0.315449 0.095089 -0.220101
H1    H     H_    0.835817 0.305233 0.590648 0.188604
H2    H     H_    0.164183 0.694767 0.409351 0.188605
H3    H     H_    0.664182 0.805233 0.909351 0.188605
H4    H     H_    0.335818 0.194767 0.090649 0.188605
C17   C     C_R   0.863775 0.039546 0.639553 -0.252505
C18   C     C_R   0.136225 0.960454 0.360446 -0.252505
C19   C     C_R   0.636225 0.539547 0.860446 -0.252505
C20   C     C_R   0.363775 0.460453 0.139554 -0.252505
C21   C     C_R   0.903624 0.883942 0.644379 0.331269
C22   C     C_R   0.096376 0.116058 0.355621 0.331269
C23   C     C_R   0.596376 0.383943 0.855621 0.331270
C24   C     C_R   0.403624 0.616057 0.144379 0.331270
C25   C     C_R   0.942835 0.874149 0.604157 0.369038
C26   C     C_R   0.057165 0.125851 0.395843 0.369038
C27   C     C_R   0.557164 0.374150 0.895843 0.369039
C28   C     C_R   0.442835 0.625850 0.104157 0.369039
C29   C     C_R   0.943075 0.018543 0.559043 -0.160748
C30   C     C_R   0.056925 0.981457 0.440957 -0.160748
C31   C     C_R   0.556924 0.518543 0.940956 -0.160748
C32   C     C_R   0.443076 0.481457 0.059044 -0.160748
C33   C     C_1   0.983205 0.006056 0.517277 0.244480
C34   C     C_1   0.016795 0.993944 0.482723 0.244480
C35   C     C_1   0.516795 0.506056 0.982723 0.244479
C36   C     C_1   0.483205 0.493944 0.017277 0.244479
C37   C     C_1   0.616613 0.040791 0.614576 -0.163621
C38   C     C_1   0.383387 0.959209 0.385424 -0.163620
C39   C     C_1   0.883387 0.540791 0.885424 -0.163621
C40   C     C_1   0.116613 0.459209 0.114576 -0.163621
C41   C     C_1   0.573252 0.026819 0.571811 0.040403
C42   C     C_1   0.426748 0.973181 0.428189 0.040402
C43   C     C_1   0.926748 0.526819 0.928189 0.040402
C44   C     C_1   0.073252 0.473181 0.071811 0.040402
C45   C     C_1   0.521726 0.008108 0.521278 0.037032
C46   C     C_1   0.478274 0.991891 0.478722 0.037032
C47   C     C_1   0.978274 0.508108 0.978722 0.037032
C48   C     C_1   0.021726 0.491891 0.021278 0.037032
Cl1   Cl    Cl    0.902878 0.359385 0.499614 -0.481576
Cl2   Cl    Cl    0.097122 0.640615 0.500386 -0.481576
Cl3   Cl    Cl    0.597122 0.859386 0.000385 -0.481576
Cl4   Cl    Cl    0.402878 0.140614 0.999614 -0.481576
Cl5   Cl    Cl    0.907585 0.703727 0.702356 -0.566968
Cl6   Cl    Cl    0.092415 0.296273 0.297644 -0.566967
Cl7   Cl    Cl    0.592415 0.203730 0.797644 -0.566969
Cl8   Cl    Cl    0.407585 0.796270 0.202356 -0.566969
Cl9   Cl    Cl    0.992389 0.680247 0.610784 -0.424938
Cl10  Cl    Cl    0.007611 0.319753 0.389215 -0.424938
Cl11  Cl    Cl    0.507610 0.180249 0.889214 -0.424938
Cl12  Cl    Cl    0.492390 0.819751 0.110785 -0.424938

loop_
_geom_bond_atom_site_label_1
_geom_bond_atom_site_label_2
_ccdc_geom_bond_type
O17   V3    S    
C30   C34   S    
C27   C31   A    
O19   V1    S    
O13   V1    S    
C45   C46   T    
O3    C7    A    
C44   C48   S    
O15   V3    S    
C2    C39   S    
O1    C5    A    
C22   C26   A    
C8    C17   S    
O2    V4    S    
O9    V1    S    
C14   H2    S    
C26   C30   A    
O4    C8    A    
C21   C25   A    
C28   Cl12  S    
O1    V3    S    
C24   Cl8   S    
C11   C31   A    
C21   Cl5   S    
O3    V1    S    
C42   C46   S    
C12   C16   A    
C1    O15   A    
C2    O16   A    
O2    C6    A    
C41   C45   S    
O14   V2    S    
C16   H4    S    
C39   C43   T    
C3    C38   S    
C40   C44   T    
C5    C20   S    
O11   C7    A    
C6    C19   S    
O12   C8    A    
C7    C18   S    
C27   Cl11  S    
O10   V2    S    
O7    C3    A    
O5    V1    S    
O17   V1    S    
O7    V3    S    
O19   V3    S    
O8    V4    S    
O20   V4    S    
C12   Cl4   S    
C26   Cl10  S    
C25   C29   A    
O18   V4    S    
C15   H3    S    
C9    C13   A    
C28   C32   A    
C11   C15   A    
C47   C48   T    
O5    C1    A    
C17   C21   A    
O8    C4    A    
O9    C5    A    
C29   C33   S    
O6    V2    S    
O18   V2    S    
C13   C17   A    
C23   Cl7   S    
C22   Cl6   S    
C15   C19   A    
O16   V4    S    
C16   C20   A    
C3    O13   A    
C9    C29   A    
C10   C14   A    
C12   C32   A    
O6    C2    A    
C19   C23   A    
O11   V3    S    
O12   V4    S    
C4    C37   S    
C18   C22   A    
C31   C35   S    
C32   C36   S    
O10   C6    A    
O20   V2    S    
C1    C40   S    
C10   Cl2   S    
C43   C47   S    
C9    Cl1   S    
C38   C42   T    
C37   C41   T    
C11   Cl3   S    
C23   C27   A    
C13   H1    S    
C33   C34   T    
C14   C18   A    
C35   C36   T    
C20   C24   A    
C4    O14   A    
C10   C30   A    
C25   Cl9   S    
O4    V2    S    
C24   C28   A    
