data_mof_unit_24167.cif
_audit_creation_date              2013-03-05T15:43:33-0500
_audit_creation_method            fapswitch 2.2
_symmetry_space_group_name_H-M    P1
_symmetry_Int_Tables_number       1
_space_group_crystal_system       triclinic
_cell_length_a                    10.067563
_cell_length_b                    10.737912
_cell_length_c                    13.108052
_cell_angle_alpha                 90.332252
_cell_angle_beta                  69.445104
_cell_angle_gamma                 89.818837
_cell_volume                      1326.78386438

loop_
_atom_site_label
_atom_site_type_symbol
_atom_site_description
_atom_site_fract_x
_atom_site_fract_y
_atom_site_fract_z
_atom_type_partial_charge
O1    O     O_R   0.386950 0.680940 0.500020 -0.598690
O2    O     O_R   0.613110 0.680900 0.499980 -0.573217
C1    C     C_R   0.498228 0.737212 0.503696 0.944966
O3    O     O_R   0.330780 0.500000 0.653640 -0.554488
O4    O     O_R   0.556930 0.499960 0.653610 -0.590423
C2    C     C_R   0.420175 0.496214 0.704794 0.886252
Zn1   Zn    Zn3+2 0.349000 0.500030 0.500020 1.029851
Zn2   Zn    Zn3+2 0.651000 0.499970 0.499980 1.104055
O5    O     O_R   0.386890 0.319100 0.500020 -0.626673
O6    O     O_R   0.613050 0.319060 0.499980 -0.598439
O7    O     O_R   0.443070 0.500040 0.346390 -0.628106
O8    O     O_R   0.669220 0.500000 0.346360 -0.550828
C3    C     C_R   0.500843 0.262776 0.498743 0.910144
C4    C     C_R   0.579352 0.499406 0.295484 0.870341
C5    C     C_R   0.766174 0.366724 0.016952 -0.124633
H1    H     H_    0.823672 0.385523 0.158866 0.218931
H2    H     H_    0.763156 0.277703 0.827092 0.161149
C6    C     C_R   0.627514 0.482421 0.177908 -0.052048
C7    C     C_R   0.233627 0.544993 0.886630 0.193696
C8    C     C_R   0.195460 0.558329 0.000423 0.265222
C9    C     C_R   0.295707 0.528421 0.048192 -0.295369
C10   C     C_R   0.430298 0.478899 0.986115 0.037905
C11   C     C_R   0.456248 0.443799 0.877509 0.056797
C12   C     C_R   0.539469 0.461056 0.029256 0.112896
C13   C     C_R   0.660999 0.388616 0.971570 0.157225
C14   C     C_R   0.673726 0.337019 0.870857 -0.146737
C15   C     C_R   0.572610 0.364052 0.824276 -0.108330
C16   C     C_R   0.531727 0.515236 0.127880 -0.216042
C17   C     C_R   0.747997 0.411486 0.121157 -0.098420
C18   C     C_R   0.366463 0.490754 0.824538 -0.274937
H3    H     H_    0.447495 0.579482 0.170443 0.158040
H4    H     H_    0.585790 0.320622 0.746618 0.149778
C19   C     C_2   0.601521 0.067209 0.518812 -0.109139
C20   C     C_2   0.504795 0.130915 0.491861 -0.307781
C21   C     C_2   0.606482 0.933167 0.511957 -0.107283
C22   C     C_2   0.491046 0.868679 0.517626 -0.319379
H5    H     H_    0.387525 0.911444 0.535604 0.173316
C23   C     C_2   0.076731 0.400197 0.496543 -0.122446
N1    N     N_2   0.148270 0.498670 0.498870 -0.169987
H6    H     H_    0.121776 0.310273 0.503686 0.192714
H7    H     H_    0.114506 0.580802 0.475745 0.209502
C24   C     C_2   0.941260 0.404491 0.471959 0.324542
N2    N     N_2   0.852610 0.498640 0.498840 -0.049710
H8    H     H_    0.428625 0.087505 0.461680 0.160619
H9    H     H_    0.707024 0.887853 0.501638 0.228929
N3    N     N_R   0.914149 0.301253 0.412208 0.201161
O9    O     O_R   0.960202 0.190493 0.422885 -0.415392
O10   O     O_R   0.867557 0.321142 0.333038 -0.368237
N4    N     N_R   0.863740 0.578217 0.579835 0.262301
O11   O     O_R   0.847383 0.697351 0.571424 -0.357358
O12   O     O_R   0.857823 0.533715 0.673550 -0.339157
H10   H     H_    0.858880 0.310633 0.973997 0.165007
N5    N     N_R   0.138188 0.586281 0.834484 0.261056
O13   O     O_R   0.156253 0.694130 0.786910 -0.326178
O14   O     O_R   0.032736 0.516233 0.835000 -0.330161
H11   H     H_    0.264813 0.541681 0.135069 0.195697
N6    N     N_R   0.058513 0.606491 0.068246 0.216762
O15   O     O_R   0.984037 0.677715 0.028542 -0.303595
O16   O     O_R   0.010670 0.585067 0.172516 -0.391205
H12   H     H_    0.680986 0.113665 0.543793 0.205532

loop_
_geom_bond_atom_site_label_1
_geom_bond_atom_site_label_2
_geom_bond_distance
_ccdc_geom_bond_type
O4    Zn2   1.900799 S    
C23   H6    1.083923 S    
C16   H3    1.079777 S    
C23   C24   1.508144 S    
C11   C15   1.416077 A    
C9    H11   1.078411 S    
C4    C6    1.454328 S    
C21   C22   1.334424 D    
Zn2   N2    2.024527 S    
Zn2   O8    1.956810 S    
C13   C14   1.392286 A    
C7    N5    1.431427 S    
C7    C8    1.409873 A    
C19   C20   1.334619 D    
C14   C15   1.389270 A    
C20   H8    1.083975 S    
C3    C20   1.417797 S    
N1    H7    1.028972 S    
C6    C17   1.399573 A    
O1    Zn1   1.980996 S    
C5    H10   1.083693 S    
C8    C9    1.399220 A    
Zn1   O7    1.900798 S    
N6    O15   1.301145 A    
C23   N1    1.287482 D    
C1    C22   1.420735 S    
O3    Zn1   1.956810 S    
H2    C14   1.083897 S    
O3    C2    1.298112 A    
C22   H5    1.084362 S    
C19   C21   1.441225 S    
O8    C4    1.298853 A    
C5    C17   1.395186 A    
C19   H12   1.086595 S    
O2    C1    1.288935 A    
N5    O14   1.301142 A    
O4    C2    1.303578 A    
O7    C4    1.297987 A    
C10   C12   1.414504 A    
N6    O16   1.301950 A    
C5    C13   1.404520 A    
C24   N2    1.308464 D    
C15   H4    1.081914 S    
C21   H9    1.086104 S    
C11   C18   1.412556 A    
C6    C16   1.388793 A    
C12   C13   1.418205 A    
Zn2   O6    1.980996 S    
N4    O11   1.299542 A    
C24   N3    1.434844 S    
N4    O12   1.302504 A    
Zn1   O5    1.978722 S    
O5    C3    1.290048 A    
N3    O9    1.301175 A    
N2    N4    1.394106 S    
Zn1   N1    2.026301 S    
C2    C18   1.471319 S    
H1    C17   1.080369 S    
C9    C10   1.413193 A    
C7    C18   1.419633 A    
C8    N6    1.445039 S    
N3    O10   1.298602 A    
C10   C11   1.403201 A    
O2    Zn2   1.978720 S    
C12   C16   1.391416 A    
N5    O13   1.301215 A    
O1    C1    1.290106 A    
O6    C3    1.287904 A    
