data_mof_unit_43881.cif
_audit_creation_date              2012-12-10T18:29:42-0500
_audit_creation_method            fapswitch 2.2
_symmetry_space_group_name_H-M    P1
_symmetry_Int_Tables_number       1
_space_group_crystal_system       triclinic
_cell_length_a                    11.555612
_cell_length_b                    14.974059
_cell_length_c                    15.362841
_cell_angle_alpha                 80.69194
_cell_angle_beta                  89.815923
_cell_angle_gamma                 104.863751
_cell_volume                      2532.7326885

loop_
_atom_site_label
_atom_site_type_symbol
_atom_type_description
_atom_site_fract_x
_atom_site_fract_y
_atom_site_fract_z
_atom_type_partial_charge
C1    C     C_R   0.478635 0.439966 0.662762 0.880535
C2    C     C_R   0.711472 0.638654 0.983040 -0.226440
C3    C     C_R   0.676338 0.838515 0.640561 0.003041
C4    C     C_R   0.321821 0.160351 0.361552 0.001187
C5    C     C_R   0.649121 0.751542 0.613647 0.032430
C6    C     C_R   0.349472 0.247687 0.387516 0.024977
C7    C     C_R   0.512318 0.795862 0.511702 -0.093436
C8    C     C_R   0.488821 0.204948 0.488097 -0.096921
C9    C     C_R   0.545003 0.888246 0.528739 -0.030263
C10   C     C_R   0.454628 0.112047 0.473204 -0.027993
C11   C     C_R   0.619892 0.906872 0.600051 0.087720
C12   C     C_R   0.523602 0.559988 0.336970 0.874139
C13   C     C_R   0.378773 0.092521 0.402397 0.089292
C14   C     C_R   0.498483 0.960087 0.481662 0.004764
C15   C     C_R   0.501505 0.040692 0.520871 0.003972
C16   C     C_R   0.718027 0.501094 0.500505 0.885154
C17   C     C_R   0.282016 0.499022 0.499201 0.887999
C18   C     C_R   0.553321 0.046923 0.604869 0.156270
C19   C     C_R   0.448420 0.954598 0.397199 0.156468
C20   C     C_R   0.627466 0.988860 0.634377 -0.219149
C21   C     C_R   0.372328 0.010844 0.367987 -0.218932
C22   C     C_1   0.839328 0.503023 0.500808 -0.198297
C23   C     C_R   0.438747 0.339535 0.941372 0.098603
C24   C     C_1   0.160715 0.497116 0.498850 -0.196394
C25   C     C_1   0.941126 0.501613 0.500303 0.001306
C26   C     C_1   0.058918 0.498524 0.499364 0.001265
C27   C     C_R   0.462119 0.399153 0.757455 -0.117390
C28   C     C_R   0.562803 0.597460 0.242904 -0.143621
C29   C     C_R   0.374441 0.278897 0.885045 0.140588
C30   C     C_R   0.706175 0.696389 0.124918 0.154990
C31   C     C_R   0.377909 0.312825 0.792428 0.130125
C32   C     C_R   0.653928 0.681544 0.212327 0.122764
C33   C     C_R   0.532473 0.452097 0.813391 -0.314372
C34   C     C_R   0.665293 0.627229 0.070093 0.093411
C35   C     C_R   0.519920 0.535619 0.185192 -0.295017
C36   C     C_R   0.518879 0.426875 0.904915 0.058751
C37   C     C_R   0.575381 0.544262 0.102647 0.058086
C38   C     C_3   0.521715 0.105143 0.669748 -0.426008
C39   C     C_3   0.477331 0.046741 0.760548 -0.871467
C40   C     C_3   0.488721 0.902164 0.330899 -0.439440
C41   C     C_3   0.533077 0.964623 0.241760 -0.864785
C42   C     C_3   0.693534 0.755399 0.271046 -0.408403
C43   C     C_3   0.794806 0.737105 0.329155 -0.808816
C44   C     C_3   0.285331 0.263135 0.733062 -0.404576
C45   C     C_R   0.576602 0.490370 0.960793 0.100066
C46   C     C_3   0.195022 0.319773 0.704404 -0.819738
C47   C     C_3   0.301890 0.179844 0.924109 -0.432917
C48   C     C_3   0.174296 0.177495 0.953108 -0.856432
C49   C     C_3   0.807835 0.783500 0.091155 -0.421296
C50   C     C_3   0.760524 0.859436 0.035263 -0.886636
C51   C     C_R   0.539600 0.472225 0.050901 0.097489
C52   C     C_R   0.469433 0.381918 0.087063 -0.234403
C53   C     C_R   0.667438 0.572634 0.929486 -0.229413
C54   C     C_R   0.421458 0.316807 0.033714 -0.227000
H1    H     H_    0.364988 0.250871 0.066789 0.160496
H2    H     H_    0.442828 0.773182 0.467295 0.141433
H3    H     H_    0.307376 0.301075 0.357375 0.143498
H4    H     H_    0.690699 0.697852 0.643850 0.141544
H5    H     H_    0.399868 0.986838 0.753929 0.267119
H6    H     H_    0.549287 0.020140 0.794669 0.253823
H7    H     H_    0.448541 0.091444 0.802544 0.239074
H8    H     H_    0.601517 0.162722 0.677628 0.204340
H9    H     H_    0.446991 0.135461 0.647115 0.208949
H10   H     H_    0.458227 0.985222 0.205953 0.251102
H11   H     H_    0.602470 0.028549 0.251448 0.269558
H12   H     H_    0.779742 0.699778 0.953041 0.164167
H13   H     H_    0.573206 0.925550 0.199795 0.238988
H14   H     H_    0.566646 0.877285 0.355214 0.210881
H15   H     H_    0.414217 0.841691 0.320491 0.202514
H16   H     H_    0.810237 0.784437 0.379041 0.247076
H17   H     H_    0.771980 0.663573 0.363651 0.268413
H18   H     H_    0.879126 0.749990 0.288912 0.232123
H19   H     H_    0.721108 0.827280 0.232624 0.203009
H20   H     H_    0.616952 0.759000 0.311680 0.223370
H21   H     H_    0.143568 0.326639 0.763032 0.250254
H22   H     H_    0.239863 0.390885 0.669214 0.247326
H23   H     H_    0.441918 0.478606 0.207239 0.164732
H24   H     H_    0.131300 0.283350 0.659550 0.244548
H25   H     H_    0.329126 0.248006 0.675065 0.223229
H26   H     H_    0.231353 0.193593 0.764962 0.208022
H27   H     H_    0.175096 0.223989 0.002620 0.260756
H28   H     H_    0.124533 0.200394 0.895818 0.263234
H29   H     H_    0.126040 0.104831 0.983202 0.244579
H30   H     H_    0.299286 0.130124 0.877772 0.191444
H31   H     H_    0.347181 0.149367 0.980478 0.193714
H32   H     H_    0.714792 0.833663 0.977255 0.261024
H33   H     H_    0.696040 0.881582 0.075276 0.255237
H34   H     H_    0.592355 0.517480 0.783105 0.166048
H35   H     H_    0.836296 0.921367 0.011274 0.250624
H36   H     H_    0.858987 0.813557 0.144900 0.213510
H37   H     H_    0.878158 0.765657 0.053272 0.193744
H38   H     H_    0.711603 0.864816 0.764506 0.184637
H39   H     H_    0.826828 0.914053 0.688126 0.187931
H40   H     H_    0.171360 0.083631 0.314962 0.190120
H41   H     H_    0.285668 0.133379 0.237923 0.178462
H42   H     H_    0.451477 0.358991 0.157269 0.155941
H43   H     H_    0.709564 0.587304 0.864237 0.146173
H44   H     H_    0.679151 0.001959 0.691670 0.147254
H45   H     H_    0.322177 0.997815 0.309984 0.146996
H46   H     H_    0.560384 0.228817 0.530539 0.143361
N1    N     N_R   0.566020 0.731700 0.552730 -0.114388
N2    N     N_R   0.433980 0.268300 0.447270 -0.116971
N3    N     N_3   0.757687 0.853978 0.710141 -0.482985
N4    N     N_3   0.239814 0.144033 0.292494 -0.481879
O1    O     O_R   0.466720 0.383110 0.605620 -0.616205
O2    O     O_R   0.533280 0.616890 0.394380 -0.613585
O3    O     O_R   0.509090 0.531900 0.639510 -0.610488
O4    O     O_R   0.490910 0.468100 0.360490 -0.609231
O5    O     O_R   0.644370 0.425610 0.483050 -0.601940
O6    O     O_R   0.355630 0.574390 0.516950 -0.603894
O7    O     O_R   0.686740 0.574390 0.516930 -0.619034
O8    O     O_R   0.313260 0.425610 0.483070 -0.609754
Zn1   Zn    Zn3+2 0.471710 0.400660 0.477370 0.931115
Zn2   Zn    Zn3+2 0.528290 0.599340 0.522630 0.929022

loop_
_geom_bond_atom_site_label_1
_geom_bond_atom_site_label_2
_ccdc_geom_bond_type
C15   C18   A    
C30   C32   A    
C43   H18   S    
C34   C37   A    
C49   H36   S    
C17   O6    A    
H39   N3    S    
C46   H22   S    
C41   H13   S    
C27   C33   A    
C5    H4    S    
C29   C47   S    
C47   H31   S    
O1    Zn1   S    
C19   C21   A    
C33   H34   S    
C24   C26   T    
C10   C15   A    
C38   C39   S    
C21   H45   S    
C45   C51   A    
C33   C36   A    
C48   H27   S    
C4    C13   A    
C46   H21   S    
H38   N3    S    
C28   C35   A    
C52   C54   A    
C22   C25   T    
C16   C22   S    
O6    Zn2   S    
O5    Zn1   S    
C2    C34   A    
C45   C53   A    
N1    Zn2   S    
C6    H3    S    
C7    H2    S    
C49   H37   S    
O8    Zn1   S    
C44   C46   S    
C16   O5    A    
C39   H7    S    
C5    N1    A    
C11   C20   A    
C42   H20   S    
C17   C24   S    
C40   H15   S    
C30   C34   A    
C27   C31   A    
C51   C52   A    
C2    C53   A    
C44   H26   S    
C4    C6    A    
C31   C44   S    
C12   O4    A    
C41   H11   S    
C53   H43   S    
C25   C26   S    
C35   H23   S    
O4    Zn1   S    
C9    C14   A    
O3    Zn2   S    
C50   H35   S    
C47   C48   S    
C28   C32   A    
C39   H5    S    
C13   C21   A    
C36   C45   A    
C47   H30   S    
C9    C11   A    
C50   H33   S    
C1    O3    A    
C40   C41   S    
C30   C49   S    
O2    Zn2   S    
C23   C36   A    
C43   H16   S    
C40   H14   S    
C42   C43   S    
C17   O8    A    
C23   C29   A    
H41   N4    S    
C23   C54   A    
C46   H24   S    
C38   H9    S    
C3    N3    S    
C7    C9    A    
C54   H1    S    
C42   H19   S    
C43   H17   S    
C35   C37   A    
C14   C19   A    
C44   H25   S    
C3    C5    A    
C10   C13   A    
C2    H12   S    
C48   H29   S    
C8    H46   S    
C29   C31   A    
N2    Zn1   S    
C12   O2    A    
C37   C51   A    
C39   H6    S    
C4    N4    S    
C48   H28   S    
C52   H42   S    
O7    Zn2   S    
C18   C20   A    
C6    N2    A    
C18   C38   S    
C3    C11   A    
C19   C40   S    
C50   H32   S    
H40   N4    S    
C20   H44   S    
C12   C28   S    
C8    C10   A    
C49   C50   S    
C7    N1    A    
C1    C27   S    
C32   C42   S    
C14   C15   A    
C41   H10   S    
C8    N2    A    
C16   O7    A    
C1    O1    A    
C38   H8    S    
