data_mof_unit_54312.cif
_audit_creation_date              2012-12-10T16:52:14-0500
_audit_creation_method            fapswitch 2.2
_symmetry_space_group_name_H-M    P1
_symmetry_Int_Tables_number       1
_space_group_crystal_system       triclinic
_cell_length_a                    11.003363
_cell_length_b                    10.965583
_cell_length_c                    9.756579
_cell_angle_alpha                 89.229647
_cell_angle_beta                  102.524124
_cell_angle_gamma                 91.0394
_cell_volume                      1148.95648422

loop_
_atom_site_label
_atom_site_type_symbol
_atom_type_description
_atom_site_fract_x
_atom_site_fract_y
_atom_site_fract_z
_atom_type_partial_charge
C1    C     C_R   0.500748 0.266089 0.500515 0.842285
C2    C     C_2   0.466622 0.863210 0.493697 -0.353507
C3    C     C_2   0.439558 0.067225 0.401475 0.148670
C4    C     C_2   0.515031 0.135273 0.501715 0.013055
C5    C     C_2   0.438442 0.421366 0.911392 0.183978
C6    C     C_2   0.414893 0.447178 0.055702 0.618327
C7    C     C_R   0.262659 0.497907 0.443042 0.721252
C8    C     C_R   0.493404 0.733970 0.497705 0.835611
C9    C     C_R   0.737082 0.495713 0.556837 0.867284
C10   C     C_2   0.126545 0.489125 0.411363 0.363455
C11   C     C_2   0.067757 0.462635 0.515769 -0.402933
C12   C     C_2   0.872618 0.487704 0.587233 -0.490262
C13   C     C_2   0.932149 0.447770 0.490110 0.554991
C14   C     C_2   0.466621 0.938781 0.384321 0.208005
Cu1   Cu    Cu3+1 0.500020 0.500020 0.638640 0.926937
Cu2   Cu    Cu3+1 0.499980 0.499980 0.361360 1.023254
H1    H     H_    0.516670 0.583131 0.891187 0.190036
H2    H     H_    0.119386 0.456860 0.624019 0.117868
H3    H     H_    0.924911 0.518196 0.688971 0.118679
H4    H     H_    0.441387 0.898759 0.587121 0.131465
N1    N     N_2   0.498650 0.498660 0.846590 -0.269074
N2    N     N_2   0.498620 0.498630 0.152710 -0.038600
O1    O     O_R   0.500020 0.321960 0.617050 -0.583574
O2    O     O_R   0.499980 0.321920 0.382890 -0.555447
O3    O     O_R   0.320700 0.500020 0.574050 -0.618091
O4    O     O_R   0.320660 0.499980 0.339890 -0.515269
O5    O     O_R   0.500020 0.678080 0.617110 -0.593144
O6    O     O_R   0.499980 0.678040 0.382950 -0.595470
O7    O     O_R   0.679340 0.500020 0.660110 -0.570008
O8    O     O_R   0.679300 0.499980 0.425950 -0.506710
O9    O     O_3   0.866544 0.403735 0.362102 -0.481868
C15   C     C_3   0.879858 0.276177 0.361750 -0.197672
H5    H     H_    0.844178 0.231756 0.448899 0.115934
H6    H     H_    0.978367 0.250951 0.367518 0.144635
H7    H     H_    0.823550 0.240374 0.261674 0.185009
O10   O     O_3   0.306218 0.404077 0.090235 -0.582185
C16   C     C_3   0.203916 0.463841 0.005316 -0.333678
H8    H     H_    0.193233 0.442282 0.892358 0.138442
H9    H     H_    0.211333 0.564309 0.021009 0.148850
H10   H     H_    0.117704 0.431035 0.036130 0.243653
O11   O     O_3   0.613016 0.509812 0.124059 -0.495106
C17   C     C_3   0.650712 0.633055 0.143496 -0.127010
H11   H     H_    0.684215 0.654999 0.255655 0.188545
H12   H     H_    0.575175 0.696288 0.094784 0.083018
H13   H     H_    0.729644 0.649984 0.091388 0.135144
O12   O     O_3   0.060943 0.499667 0.273652 -0.526147
C18   C     C_3   0.046019 0.624642 0.239771 -0.298576
H14   H     H_    0.137412 0.671803 0.245554 0.138158
H15   H     H_    0.992581 0.670302 0.308725 0.152412
H16   H     H_    0.991974 0.633349 0.130128 0.176175
C19   C     C_3   0.496499 0.901187 0.247371 -0.833448
H17   H     H_    0.495073 0.980851 0.175508 0.225694
H18   H     H_    0.591505 0.863147 0.267328 0.213892
H19   H     H_    0.426424 0.833611 0.193705 0.232164
C20   C     C_3   0.326743 0.119093 0.301889 -0.843296
H20   H     H_    0.267750 0.045057 0.243901 0.224255
H21   H     H_    0.268731 0.169888 0.361193 0.212153
H22   H     H_    0.356132 0.180237 0.223191 0.277052
C21   C     C_3   0.628351 0.085182 0.602222 -0.927873
H23   H     H_    0.689326 0.160089 0.655536 0.233848
H24   H     H_    0.599988 0.028548 0.685246 0.238145
H25   H     H_    0.684969 0.030689 0.544759 0.239365
C22   C     C_3   0.389341 0.301802 0.846006 -0.763012
H26   H     H_    0.325343 0.316924 0.742909 0.239169
H27   H     H_    0.468233 0.243291 0.836722 0.243338
H28   H     H_    0.336250 0.250018 0.912811 0.207760

loop_
_geom_bond_atom_site_label_1
_geom_bond_atom_site_label_2
_ccdc_geom_bond_type
C10   O12   S    
C7    C10   S    
C20   H20   S    
C22   H27   S    
C11   H2    S    
Cu2   O6    S    
C16   H8    S    
C3    C14   S    
C2    H4    S    
C16   H10   S    
O11   C17   S    
Cu1   O5    S    
C14   C19   S    
C7    O3    A    
C9    O7    A    
C1    C4    S    
C15   H5    S    
C19   H19   S    
C1    O1    A    
Cu1   O1    S    
C22   H28   S    
C21   H23   S    
Cu2   O2    S    
C11   C13   S    
C5    C22   S    
C7    O4    A    
C17   H12   S    
C9    O8    A    
C2    C14   D    
C4    C21   S    
C18   H15   S    
O10   C16   S    
C6    O10   S    
Cu1   O7    S    
C18   H16   S    
C20   H21   S    
Cu2   O4    S    
C5    C6    S    
C8    O6    A    
C9    C12   S    
H1    N1    S    
C21   H24   S    
N2    O11   S    
Cu1   O3    S    
C10   C11   D    
Cu2   O8    S    
C19   H17   S    
C6    N2    D    
C15   H7    S    
Cu1   N1    S    
C5    N1    D    
C12   C13   D    
C12   H3    S    
C1    O2    A    
C16   H9    S    
C17   H11   S    
C20   H22   S    
C8    O5    A    
O12   C18   S    
C21   H25   S    
Cu2   N2    S    
C19   H18   S    
C3    C20   S    
C13   O9    S    
O9    C15   S    
C2    C8    S    
C3    C4    D    
Cu1   Cu2   S    
C22   H26   S    
C18   H14   S    
C17   H13   S    
C15   H6    S    
