data_mof_unit_46063.cif
_audit_creation_date              2012-12-10T19:11:05-0500
_audit_creation_method            fapswitch 2.2
_symmetry_space_group_name_H-M    P1
_symmetry_Int_Tables_number       1
_space_group_crystal_system       triclinic
_cell_length_a                    10.802329
_cell_length_b                    9.083165
_cell_length_c                    7.777614
_cell_angle_alpha                 89.87994
_cell_angle_beta                  89.795062
_cell_angle_gamma                 90.346381
_cell_volume                      763.113789456

loop_
_atom_site_label
_atom_site_type_symbol
_atom_type_description
_atom_site_fract_x
_atom_site_fract_y
_atom_site_fract_z
_atom_type_partial_charge
C1    C     C_R   0.502361 0.220074 0.500061 0.840052
C2    C     C_1   0.502368 0.934619 0.499792 -0.196705
C3    C     C_3   0.071045 0.607779 0.642242 -0.393144
C4    C     C_3   0.930416 0.626738 0.623022 -0.416723
C5    C     C_3   0.121867 0.503356 0.499642 -0.005443
C6    C     C_3   0.877573 0.508975 0.496983 -0.004525
C7    C     C_3   0.180957 0.130855 0.658599 -0.685520
C8    C     C_3   0.158099 0.813111 0.337095 -0.641312
C9    C     C_3   0.838967 0.169895 0.763603 -0.640365
C10   C     C_3   0.825707 0.791498 0.270592 -0.588568
C11   C     C_R   0.259334 0.500696 0.500168 0.814563
C12   C     C_R   0.740347 0.506443 0.499332 0.813499
C13   C     C_R   0.501044 0.779991 0.499895 0.818170
C14   C     C_1   0.503005 0.065390 0.500014 -0.211189
C15   C     C_3   0.068180 0.344536 0.537114 -0.001490
C16   C     C_3   0.072981 0.549079 0.314960 0.080651
C17   C     C_3   0.923850 0.352767 0.555395 0.054627
C18   C     C_3   0.929700 0.538124 0.310072 0.080537
Cu1   Cu    Cu3+1 0.500000 0.500010 0.669080 0.986588
Cu2   Cu    Cu3+1 0.500000 0.500010 0.330920 0.986515
H1    H     H_    0.087458 0.276082 0.421131 0.099932
H2    H     H_    0.217621 0.087696 0.781881 0.227790
H3    H     H_    0.257622 0.141595 0.564561 0.221469
H4    H     H_    0.111432 0.051692 0.608758 0.213595
H5    H     H_    0.176349 0.669933 0.130095 0.251061
H6    H     H_    0.179474 0.905776 0.248280 0.209149
H7    H     H_    0.242504 0.790347 0.412680 0.212724
H8    H     H_    0.082155 0.849547 0.421367 0.212329
H9    H     H_    0.927093 0.368741 0.829834 0.262915
H10   H     H_    0.797920 0.163709 0.894523 0.217825
H11   H     H_    0.917614 0.092305 0.756245 0.229130
H12   H     H_    0.105034 0.460093 0.226613 0.056515
H13   H     H_    0.766681 0.136999 0.669759 0.214983
H14   H     H_    0.902345 0.657518 0.079667 0.245681
H15   H     H_    0.768262 0.844718 0.170285 0.208165
H16   H     H_    0.765166 0.776497 0.384130 0.198577
H17   H     H_    0.902771 0.867533 0.299259 0.209744
H18   H     H_    0.883419 0.270205 0.465102 0.087281
H19   H     H_    0.908657 0.434641 0.238378 0.062550
H20   H     H_    0.089238 0.561211 0.771643 0.162200
H21   H     H_    0.118894 0.715551 0.646405 0.166802
H22   H     H_    0.885994 0.617241 0.751755 0.177755
H23   H     H_    0.911617 0.740052 0.579073 0.175056
H24   H     H_    0.161097 0.335513 0.783157 0.266313
N1    N     N_1   0.500000 0.499970 0.076820 -0.051930
N2    N     N_1   0.500000 0.499970 0.923180 -0.053957
N3    N     N_2   0.124070 0.272501 0.686076 -0.403094
N4    N     N_2   0.122001 0.685500 0.237917 -0.392428
N5    N     N_2   0.880718 0.318901 0.729754 -0.373397
N6    N     N_2   0.870828 0.652484 0.204940 -0.375582
O1    O     O_R   0.500000 0.288400 0.642760 -0.567188
O2    O     O_R   0.500000 0.288400 0.357240 -0.581571
O3    O     O_R   0.317700 0.499990 0.642790 -0.595097
O4    O     O_R   0.317700 0.499990 0.357210 -0.591890
O5    O     O_R   0.682300 0.499990 0.642790 -0.565913
O6    O     O_R   0.682300 0.499990 0.357210 -0.570916
O7    O     O_R   0.500000 0.711620 0.642810 -0.582171
O8    O     O_R   0.500000 0.711620 0.357190 -0.574623

loop_
_geom_bond_atom_site_label_1
_geom_bond_atom_site_label_2
_ccdc_geom_bond_type
C18   H19   S    
C8    N4    S    
C10   H15   S    
C1    C14   S    
C4    H23   S    
C16   H12   S    
C7    H2    S    
C8    H6    S    
Cu2   N1    S    
C11   O3    A    
H24   N3    S    
C15   N3    S    
Cu2   O6    S    
Cu1   O3    S    
C7    H4    S    
Cu1   N2    S    
C9    N5    S    
Cu2   O2    S    
H9    N5    S    
N1    N2    T    
Cu1   O7    S    
C9    H13   S    
C1    O1    A    
H5    N4    S    
C16   N4    S    
C12   O6    A    
C11   O4    A    
C4    H22   S    
C9    H10   S    
C10   H17   S    
C8    H8    S    
Cu2   O4    S    
C1    O2    A    
C3    H20   S    
C5    C11   S    
C17   H18   S    
C6    C12   S    
C2    C14   T    
C6    C18   S    
C7    H3    S    
H14   N6    S    
C12   O5    A    
C5    C15   S    
C9    H11   S    
C17   N5    S    
C3    C4    S    
C10   N6    S    
Cu1   O1    S    
C15   H1    S    
C2    C13   S    
C13   O7    A    
C18   N6    S    
C16   C18   S    
C4    C6    S    
Cu1   O5    S    
C15   C17   S    
C6    C17   S    
C3    H21   S    
C5    C16   S    
C10   H16   S    
C13   O8    A    
C8    H7    S    
Cu2   O8    S    
Cu1   Cu2   S    
C3    C5    S    
C7    N3    S    
