data_mof_unit_21322.cif
_audit_creation_date              2012-12-11T14:49:50-0500
_audit_creation_method            fapswitch 2.2
_symmetry_space_group_name_H-M    P1
_symmetry_Int_Tables_number       1
_space_group_crystal_system       triclinic
_cell_length_a                    16.83678
_cell_length_b                    7.007364
_cell_length_c                    16.858081
_cell_angle_alpha                 88.500941
_cell_angle_beta                  100.820197
_cell_angle_gamma                 91.538715
_cell_volume                      1952.42341015

loop_
_atom_site_label
_atom_site_type_symbol
_atom_type_description
_atom_site_fract_x
_atom_site_fract_y
_atom_site_fract_z
_atom_type_partial_charge
O1    O     O_R   0.579510 0.506290 0.439030 -0.535604
O2    O     O_R   0.420490 0.006290 0.560970 -0.537600
O3    O     O_R   0.412540 0.170090 0.405290 -0.541494
O4    O     O_R   0.587460 0.670090 0.594710 -0.536442
C1    C     C_R   0.385649 0.346469 0.381246 0.629534
C2    C     C_R   0.615562 0.845465 0.617327 0.628997
O5    O     O_R   0.578390 0.176230 0.429330 -0.537992
O6    O     O_R   0.421610 0.676230 0.570670 -0.537185
O7    O     O_R   0.587530 0.011250 0.585190 -0.544257
O8    O     O_R   0.412470 0.511250 0.414810 -0.547957
C3    C     C_R   0.605024 0.349202 0.413909 0.700365
C4    C     C_R   0.395535 0.841426 0.587312 0.691119
O9    O     O_3   0.502800 0.340940 0.551110 -0.365808
O10   O     O_3   0.497200 0.840940 0.448890 -0.372884
V1    V     V_3+5 0.499480 0.064020 0.490520 1.380484
V2    V     V_3+5 0.500520 0.564020 0.509480 1.401102
C5    C     C_R   0.171067 0.933206 0.864021 -0.148833
C6    C     C_R   0.828436 0.390163 0.133818 -0.137555
C7    C     C_R   0.334852 0.835743 0.641650 -0.062788
C8    C     C_R   0.667383 0.376130 0.362451 -0.064065
C9    C     C_R   0.231338 0.656420 0.698875 -0.164942
C10   C     C_R   0.775889 0.574589 0.322928 -0.176030
C11   C     C_R   0.284754 0.672100 0.644420 -0.165818
C12   C     C_R   0.721959 0.533322 0.375261 -0.160839
C13   C     C_R   0.330108 0.984137 0.695068 -0.219261
C14   C     C_R   0.668463 0.259530 0.296262 -0.210565
C15   C     C_R   0.277600 0.967140 0.751368 0.108390
C16   C     C_R   0.721477 0.303039 0.242300 0.107704
C17   C     C_R   0.227496 0.802709 0.753125 0.164888
C18   C     C_R   0.775681 0.461510 0.255548 0.156695
C19   C     C_R   0.174344 0.787364 0.808720 -0.172770
C20   C     C_R   0.828825 0.503739 0.201592 -0.204681
C21   C     C_R   0.225447 0.093547 0.864962 -0.019333
C22   C     C_R   0.770790 0.236128 0.118943 -0.010265
C23   C     C_R   0.276241 0.110055 0.807407 -0.163133
C24   C     C_R   0.719340 0.193061 0.174068 -0.151708
H1    H     H_    0.134104 0.663651 0.807641 0.129524
H2    H     H_    0.872180 0.621461 0.213703 0.122479
H3    H     H_    0.193772 0.528479 0.699211 0.115013
H4    H     H_    0.816853 0.696844 0.334513 0.112378
H5    H     H_    0.316722 0.233134 0.807565 0.167379
H6    H     H_    0.676017 0.074976 0.162917 0.169536
H7    H     H_    0.287000 0.554921 0.604299 0.120521
H8    H     H_    0.722432 0.626069 0.425778 0.116385
H9    H     H_    0.369191 0.109566 0.694765 0.121878
H10   H     H_    0.625893 0.140068 0.284911 0.127404
C25   C     C_3   0.788304 0.690707 0.795242 -0.285386
C26   C     C_3   0.256025 0.284802 0.163179 -0.294852
H11   H     H_    0.841090 0.613697 0.781846 0.132135
H12   H     H_    0.230200 0.144309 0.140575 0.129153
H13   H     H_    0.771703 0.621806 0.850310 0.159336
H14   H     H_    0.280574 0.357653 0.113240 0.177598
C27   C     C_3   0.716587 0.666164 0.723798 -0.303145
C28   C     C_3   0.326263 0.249263 0.236036 -0.281732
H15   H     H_    0.666988 0.581627 0.744035 0.181755
H16   H     H_    0.385445 0.283694 0.218463 0.177989
H17   H     H_    0.736372 0.582281 0.676076 0.122740
H18   H     H_    0.326983 0.094733 0.253011 0.125176
H19   H     H_    0.886439 0.927762 0.717768 0.127597
H20   H     H_    0.136316 0.167610 0.246783 0.145764
H21   H     H_    0.779321 0.885480 0.612403 0.128634
H22   H     H_    0.240560 0.143849 0.355545 0.138851
C29   C     C_3   0.831915 0.995376 0.732081 -0.334109
C30   C     C_3   0.162289 0.312572 0.262297 -0.324713
C31   C     C_3   0.736074 0.004124 0.829566 -0.317691
C32   C     C_3   0.227234 0.606533 0.212034 -0.324781
C33   C     C_3   0.811859 0.905942 0.811265 0.073674
C34   C     C_3   0.188833 0.408987 0.187075 0.080941
H23   H     H_    0.750058 0.158099 0.841331 0.112869
H24   H     H_    0.182013 0.695661 0.233433 0.116917
H25   H     H_    0.720748 0.939310 0.885727 0.202184
H26   H     H_    0.243096 0.682836 0.158147 0.164825
C35   C     C_3   0.686363 0.863479 0.688477 0.072078
C36   C     C_3   0.314985 0.368007 0.309350 0.068823
C37   C     C_3   0.759557 0.968308 0.660408 -0.341313
C38   C     C_3   0.234953 0.295432 0.334232 -0.358471
C39   C     C_3   0.663274 0.985171 0.757258 -0.108356
C40   C     C_3   0.302420 0.584240 0.280762 -0.076563
H27   H     H_    0.649981 0.132022 0.732202 0.085070
H28   H     H_    0.289905 0.665546 0.332838 0.067628
H29   H     H_    0.846357 0.150382 0.740141 0.140361
H30   H     H_    0.113946 0.396694 0.280809 0.124068
H31   H     H_    0.741297 0.110802 0.633436 0.140961
H32   H     H_    0.222998 0.379757 0.385607 0.128861
O11   O     O_R   0.087500 0.266000 0.085220 -0.545144
O12   O     O_R   0.912500 0.766000 0.914780 -0.540381
O13   O     O_R   0.921600 0.589950 0.070670 -0.525123
O14   O     O_R   0.078400 0.089950 0.929330 -0.550594
C41   C     C_R   0.893242 0.417629 0.084405 0.687357
C42   C     C_R   0.106871 0.925949 0.915150 0.680671
O15   O     O_R   0.087460 0.596020 0.094710 -0.540910
O16   O     O_R   0.912540 0.096020 0.905290 -0.544406
O17   O     O_R   0.079520 0.760970 0.939020 -0.524186
O18   O     O_R   0.920480 0.260970 0.060980 -0.545105
C43   C     C_R   0.116776 0.426332 0.117238 0.661529
C44   C     C_R   0.883645 0.925572 0.881878 0.665819
O19   O     O_3   0.997180 0.425140 0.948910 -0.371872
O20   O     O_3   0.002820 0.925140 0.051090 -0.367851
V3    V     V_3+5 0.000520 0.702080 0.009480 1.422865
V4    V     V_3+5 0.999480 0.202080 0.990520 1.390279
C45   C     C_2   0.586880 0.912460 0.784170 0.375650
H33   H     H_    0.530368 0.984237 0.762327 0.038922
O21   O     O_2   0.586978 0.771231 0.828188 -0.512768
C46   C     C_2   0.376686 0.678848 0.256626 0.341737
H34   H     H_    0.411195 0.784858 0.295408 0.073301
O22   O     O_2   0.398732 0.638182 0.194294 -0.523664
C47   C     C_2   0.233655 0.241046 0.927976 0.400284
H35   H     H_    0.212692 0.211612 0.984054 0.032788
O23   O     O_2   0.265397 0.396730 0.918605 -0.528614
C48   C     C_2   0.760772 0.122133 0.044630 0.398819
H36   H     H_    0.782695 0.177658 0.991972 0.024725
O24   O     O_2   0.727041 0.965230 0.041145 -0.530972

loop_
_geom_bond_atom_site_label_1
_geom_bond_atom_site_label_2
_ccdc_geom_bond_type
C32   C34   S    
C45   H33   S    
C15   C17   A    
C47   O23   D    
C27   H15   S    
C24   H6    S    
O1    C3    A    
O2    C4    A    
C38   H32   S    
C2    O7    A    
C46   O22   D    
C25   H11   S    
H21   C37   S    
O5    C3    A    
C36   C38   S    
C29   H29   S    
C30   C34   S    
C40   H28   S    
O16   C44   A    
C11   H7    S    
C1    C36   S    
C48   H36   S    
C28   C36   S    
C39   C45   S    
C32   H26   S    
C8    C12   A    
C31   C33   S    
C21   C47   S    
C47   H35   S    
C20   H2    S    
O17   V3    S    
C42   O17   A    
C25   C27   S    
C26   H12   S    
C45   O21   D    
C35   C37   S    
H22   C38   S    
C5    C21   A    
C7    C13   A    
C25   C33   S    
C46   H34   S    
O19   V3    S    
O13   V3    S    
C39   H27   S    
C32   C40   S    
C29   C33   S    
C3    C8    S    
C34   C43   S    
C31   C39   S    
C40   C46   S    
O4    C2    A    
C26   C28   S    
C27   H17   S    
C25   H13   S    
C15   C23   A    
C31   H25   S    
C9    C17   A    
C19   H1    S    
O4    V2    S    
C7    C11   A    
O12   V3    S    
C9    H3    S    
O18   V4    S    
O6    C4    A    
C10   H4    S    
C30   C38   S    
O1    V2    S    
C26   C34   S    
O2    V1    S    
C6    C22   A    
C30   H30   S    
O14   V4    S    
O12   C44   A    
O14   C42   A    
O20   V4    S    
C9    C11   A    
C33   C44   S    
C5    C19   A    
C10   C12   A    
C6    C20   A    
C29   C37   S    
C13   H9    S    
O19   V4    S    
O3    V1    S    
O16   V4    S    
C2    C35   S    
C28   H18   S    
C31   H23   S    
C10   C18   A    
C6    C41   S    
C14   C16   A    
C27   C35   S    
C5    C42   S    
O3    C1    A    
C41   O18   A    
C28   H16   S    
C13   C15   A    
H19   C29   S    
H20   C30   S    
C16   C18   A    
O7    V1    S    
C1    O8    A    
C17   C19   A    
O11   V4    S    
O8    V2    S    
C18   C20   A    
O11   C43   A    
C37   H31   S    
C32   H24   S    
C8    C14   A    
C12   H8    S    
C4    C7    S    
O5    V1    S    
C21   C23   A    
C22   C24   A    
C23   H5    S    
C48   O24   D    
C14   H10   S    
O15   C43   A    
C26   H14   S    
C16   C24   A    
O6    V2    S    
O20   V3    S    
C36   C40   S    
O9    V2    S    
O13   C41   A    
C35   C39   S    
O10   V1    S    
C22   C48   S    
O15   V3    S    
