data_mof_unit_43036.cif
_audit_creation_date              2012-12-10T18:57:39-0500
_audit_creation_method            fapswitch 2.2
_symmetry_space_group_name_H-M    P1
_symmetry_Int_Tables_number       1
_space_group_crystal_system       triclinic
_cell_length_a                    10.929968
_cell_length_b                    10.886885
_cell_length_c                    9.55855
_cell_angle_alpha                 90.494862
_cell_angle_beta                  89.53657
_cell_angle_gamma                 90.011456
_cell_volume                      1137.32381545

loop_
_atom_site_label
_atom_site_type_symbol
_atom_type_description
_atom_site_fract_x
_atom_site_fract_y
_atom_site_fract_z
_atom_type_partial_charge
C1    C     C_R   0.498750 0.262577 0.498752 0.799690
C2    C     C_R   0.497659 0.129400 0.494062 -0.141133
C3    C     C_R   0.488251 0.060318 0.366791 -0.036703
C4    C     C_R   0.489300 0.931580 0.370687 -0.262036
C5    C     C_R   0.500478 0.869210 0.498391 -0.126297
C6    C     C_R   0.511228 0.939540 0.619049 0.069262
C7    C     C_3   0.520854 0.934123 0.774929 -0.201160
C8    C     C_3   0.516355 0.075977 0.771985 -0.444916
C9    C     C_R   0.596706 0.547804 0.073149 0.261549
C10   C     C_R   0.400995 0.460999 0.074710 -0.049668
C11   C     C_R   0.400974 0.461046 0.926241 -0.079985
C12   C     C_R   0.265359 0.497761 0.500590 0.848076
C13   C     C_R   0.596969 0.547020 0.925568 0.283009
C14   C     C_3   0.724478 0.498692 0.918808 -0.486283
C15   C     C_3   0.724851 0.501228 0.076769 -0.510534
C16   C     C_R   0.500306 0.737036 0.500306 0.806065
C17   C     C_R   0.734655 0.501184 0.499775 0.844819
C18   C     C_2   0.934012 0.479763 0.388262 -0.165952
C19   C     C_2   0.866649 0.508417 0.501421 -0.321652
C20   C     C_2   0.067659 0.487776 0.386635 -0.156300
C21   C     C_2   0.133348 0.489991 0.504227 -0.321460
C22   C     C_R   0.507528 0.063237 0.617000 0.074404
Cu1   Cu    Cu3+1 0.499990 0.499980 0.640670 0.941469
Cu2   Cu    Cu3+1 0.500010 0.500020 0.359330 0.947976
H1    H     H_    0.890569 0.450598 0.292205 0.158648
H2    H     H_    0.602347 0.122786 0.803942 0.206423
H3    H     H_    0.322052 0.425647 0.129960 0.140278
H4    H     H_    0.321970 0.425989 0.871592 0.141181
H5    H     H_    0.729401 0.404056 0.874288 0.212641
H6    H     H_    0.789539 0.564778 0.871335 0.206417
H7    H     H_    0.731366 0.408059 0.122926 0.215958
H8    H     H_    0.788755 0.570832 0.120355 0.194658
H9    H     H_    0.907153 0.539809 0.598378 0.139563
H10   H     H_    0.112649 0.488781 0.284884 0.157478
H11   H     H_    0.091361 0.481867 0.606745 0.143824
H12   H     H_    0.480238 0.880439 0.273521 0.161828
H13   H     H_    0.438322 0.891493 0.823093 0.152216
H14   H     H_    0.431356 0.114863 0.819104 0.202054
N1    N     N_R   0.500780 0.500930 0.147930 -0.189150
N2    N     N_R   0.500780 0.500890 0.852020 -0.193957
O1    O     O_R   0.500000 0.319640 0.618810 -0.575716
O2    O     O_R   0.500010 0.319680 0.381230 -0.570601
O3    O     O_R   0.321940 0.499980 0.618760 -0.595949
O4    O     O_R   0.321950 0.500020 0.381180 -0.589174
O5    O     O_R   0.499990 0.680320 0.618770 -0.580636
O6    O     O_R   0.500000 0.680360 0.381190 -0.587811
O7    O     O_R   0.678050 0.499980 0.618820 -0.587751
O8    O     O_R   0.678060 0.500020 0.381240 -0.581773
C23   C     C_1   0.475832 0.115753 0.230722 0.264068
N3    N     N_1   0.465984 0.159659 0.121551 -0.316016
C24   C     C_R   0.640330 0.886133 0.832751 0.173475
C25   C     C_R   0.739228 0.848652 0.746794 -0.100858
C26   C     C_R   0.848708 0.809451 0.806511 -0.176786
C27   C     C_R   0.860591 0.806431 0.951863 -0.133082
C28   C     C_R   0.762825 0.842198 0.037877 -0.142373
C29   C     C_R   0.653444 0.881977 0.978670 -0.157536
H15   H     H_    0.733218 0.850632 0.633992 0.115316
H16   H     H_    0.924326 0.780996 0.739973 0.129359
H17   H     H_    0.945225 0.775486 0.997808 0.127653
H18   H     H_    0.771729 0.839155 0.150502 0.134355
H19   H     H_    0.578766 0.910232 0.046542 0.129537

loop_
_geom_bond_atom_site_label_1
_geom_bond_atom_site_label_2
_ccdc_geom_bond_type
C16   O5    A    
C2    C22   A    
C8    C22   S    
C28   C29   A    
C4    H12   S    
C15   H7    S    
C6    C7    S    
Cu1   O5    S    
C8    H2    S    
Cu1   O1    S    
C10   H3    S    
C26   H16   S    
C17   O8    A    
C20   H10   S    
C14   C15   S    
C2    C3    A    
C7    H13   S    
C7    C24   S    
C7    C8    S    
C12   O4    A    
C13   C14   S    
C20   C21   D    
C28   H18   S    
C24   C25   A    
C11   N2    A    
C18   H1    S    
C8    H14   S    
C11   H4    S    
C14   H6    S    
C15   H8    S    
C21   H11   S    
C4    C5    A    
C24   C29   A    
C1    O1    A    
C17   C19   S    
C18   C19   D    
C12   O3    A    
C18   C20   S    
C27   H17   S    
C3    C23   S    
C5    C6    A    
Cu2   O4    S    
Cu1   O7    S    
C10   C11   A    
C14   H5    S    
C3    C4    A    
Cu2   O8    S    
C1    O2    A    
C9    N1    A    
Cu2   N1    S    
Cu2   O2    S    
C25   C26   A    
C1    C2    S    
C25   H15   S    
C16   O6    A    
C23   N3    T    
Cu1   N2    S    
C9    C13   A    
C29   H19   S    
C10   N1    A    
C5    C16   S    
Cu1   Cu2   S    
C27   C28   A    
Cu1   O3    S    
C12   C21   S    
C17   O7    A    
C26   C27   A    
C19   H9    S    
Cu2   O6    S    
C13   N2    A    
C9    C15   S    
C6    C22   A    
