data_mof_unit_60292.cif
_audit_creation_date              2012-12-10T17:07:31-0500
_audit_creation_method            fapswitch 2.2
_symmetry_space_group_name_H-M    P1
_symmetry_Int_Tables_number       1
_space_group_crystal_system       triclinic
_cell_length_a                    30.634891
_cell_length_b                    30.661703
_cell_length_c                    21.337127
_cell_angle_alpha                 90.013086
_cell_angle_beta                  43.016536
_cell_angle_gamma                 90.004283
_cell_volume                      13673.0764426

loop_
_atom_site_label
_atom_site_type_symbol
_atom_type_description
_atom_site_fract_x
_atom_site_fract_y
_atom_site_fract_z
_atom_type_partial_charge
C1    C     C_R   0.311207 0.809771 0.497303 0.862599
C2    C     C_R   0.665586 0.086523 0.434783 0.081011
C3    C     C_R   0.234087 0.120204 0.638770 -0.193869
C4    C     C_R   0.734079 0.379838 0.640132 -0.193209
C5    C     C_R   0.265923 0.620170 0.359853 -0.192750
C6    C     C_R   0.188814 0.304357 0.362374 -0.192659
C7    C     C_R   0.811226 0.695658 0.637585 -0.192353
C8    C     C_R   0.218660 0.860090 0.756208 -0.162170
C9    C     C_R   0.799554 0.083276 0.307128 -0.172986
C10   C     C_R   0.781330 0.860001 0.243771 -0.161584
C11   C     C_R   0.200446 0.083296 0.692807 -0.172867
C12   C     C_R   0.700543 0.416293 0.696459 -0.175313
C13   C     C_R   0.663561 0.895626 0.408683 0.087744
C14   C     C_R   0.299461 0.583718 0.303515 -0.175149
C15   C     C_R   0.179289 0.298954 0.308166 -0.171629
C16   C     C_R   0.820779 0.701070 0.691758 -0.171107
C17   C     C_R   0.243259 0.896996 0.759497 0.069683
C18   C     C_R   0.766867 0.047145 0.318269 0.072010
C19   C     C_R   0.756725 0.896894 0.240470 0.069489
C20   C     C_R   0.233133 0.047166 0.681667 0.071993
C21   C     C_R   0.733529 0.451965 0.686192 0.065969
C22   C     C_R   0.266478 0.548046 0.313779 0.065909
C23   C     C_R   0.138026 0.326714 0.319232 0.072095
C24   C     C_R   0.334408 0.086537 0.565222 0.081035
C25   C     C_R   0.862046 0.673309 0.680679 0.071781
C26   C     C_R   0.300319 0.915533 0.678042 -0.218183
C27   C     C_R   0.700344 0.048747 0.380804 -0.229973
C28   C     C_R   0.699664 0.915451 0.321919 -0.218307
C29   C     C_R   0.299652 0.048766 0.619171 -0.229943
C30   C     C_R   0.800129 0.450496 0.621516 -0.225715
C31   C     C_R   0.199877 0.549511 0.378462 -0.225636
C32   C     C_R   0.108089 0.360965 0.382353 -0.227368
C33   C     C_R   0.891957 0.639047 0.617587 -0.227265
C34   C     C_1   0.209468 0.916297 0.846904 0.164187
C35   C     C_R   0.834729 0.413105 0.565942 0.080402
C36   C     C_1   0.802129 0.008324 0.265751 0.144529
C37   C     C_1   0.790508 0.916157 0.153054 0.164637
C38   C     C_1   0.197872 0.008347 0.734140 0.144602
C39   C     C_1   0.698994 0.490129 0.742558 0.152993
C40   C     C_1   0.301015 0.509886 0.257399 0.153096
C41   C     C_1   0.126574 0.320273 0.265344 0.133822
C42   C     C_1   0.873533 0.679761 0.734524 0.134735
C43   C     C_R   0.165274 0.586898 0.434048 0.080355
C44   C     C_R   0.118908 0.367771 0.435774 0.085246
C45   C     C_R   0.881113 0.632234 0.564199 0.085288
C46   C     C_R   0.308988 0.859775 0.588945 0.098900
C47   C     C_R   0.698373 0.121481 0.428549 0.103904
C48   C     C_R   0.691011 0.859742 0.411035 0.098848
C49   C     C_R   0.691813 0.190036 0.496484 0.864427
C50   C     C_R   0.301623 0.121492 0.571446 0.103915
C51   C     C_R   0.801699 0.378444 0.572001 0.103275
C52   C     C_R   0.198302 0.621560 0.427991 0.103222
C53   C     C_R   0.156852 0.337800 0.429258 0.103169
C54   C     C_R   0.843166 0.662207 0.570722 0.103206
C55   C     C_R   0.340660 0.842447 0.503268 -0.072339
C56   C     C_R   0.662444 0.156911 0.489831 -0.101059
C57   C     C_R   0.659348 0.842446 0.496715 -0.072371
C58   C     C_R   0.337550 0.156915 0.510182 -0.101063
C59   C     C_R   0.837545 0.343167 0.510027 -0.105348
C60   C     C_R   0.688796 0.809773 0.502689 0.862647
C61   C     C_R   0.162455 0.656833 0.489974 -0.104912
C62   C     C_R   0.162071 0.342593 0.489535 -0.100943
C63   C     C_R   0.837925 0.657407 0.510472 -0.100451
C64   C     C_R   0.399063 0.858227 0.421258 -0.215789
C65   C     C_R   0.596406 0.159374 0.551154 -0.203810
C66   C     C_R   0.600948 0.858249 0.578721 -0.215788
C67   C     C_R   0.403584 0.159376 0.448899 -0.203767
C68   C     C_R   0.903716 0.340814 0.447737 -0.191989
C69   C     C_R   0.096283 0.659181 0.552274 -0.191840
C70   C     C_R   0.134188 0.377630 0.550188 -0.196869
C71   C     C_R   0.308188 0.190036 0.503517 0.864575
C72   C     C_R   0.865786 0.622360 0.449845 -0.196776
C73   C     C_R   0.428261 0.891416 0.422746 -0.192342
C74   C     C_R   0.564662 0.126223 0.554361 -0.201064
C75   C     C_R   0.571748 0.891429 0.577228 -0.192313
C76   C     C_R   0.435325 0.126229 0.445704 -0.200954
C77   C     C_R   0.935684 0.373820 0.444370 -0.202680
C78   C     C_R   0.064316 0.626175 0.555640 -0.202489
C79   C     C_R   0.099439 0.407934 0.553723 -0.208832
C80   C     C_R   0.900535 0.592055 0.446307 -0.208689
C81   C     C_R   0.398592 0.909894 0.506342 -0.133496
C82   C     C_R   0.807995 0.309978 0.503840 0.865174
C83   C     C_R   0.598637 0.090191 0.496757 -0.109735
C84   C     C_R   0.601408 0.909876 0.493630 -0.133508
C85   C     C_R   0.401353 0.090201 0.503280 -0.109690
C86   C     C_R   0.901750 0.409521 0.503029 -0.110451
C87   C     C_R   0.098252 0.590478 0.496971 -0.110478
C88   C     C_R   0.091963 0.403304 0.497032 -0.107953
C89   C     C_R   0.908035 0.596693 0.502968 -0.107898
C90   C     C_R   0.940908 0.562485 0.500637 0.894042
C91   C     C_R   0.059090 0.437513 0.499363 0.893972
C92   C     C_R   0.062879 0.558771 0.499252 0.892256
C93   C     C_R   0.192005 0.690022 0.496160 0.864000
C94   C     C_R   0.937122 0.441228 0.500748 0.892179
C95   C     C_R   0.436639 0.058269 0.500825 0.898188
C96   C     C_R   0.564087 0.941581 0.498284 0.902124
C97   C     C_R   0.563357 0.058265 0.499187 0.898255
C98   C     C_R   0.435910 0.941593 0.501704 0.902106
C99   C     C_R   0.335921 0.749791 0.328495 0.860484
C100  C     C_R   0.664076 0.250206 0.671503 0.870538
C101  C     C_R   0.664092 0.749797 0.671506 0.860788
C102  C     C_R   0.335910 0.250200 0.328496 0.870831
C103  C     C_R   0.835922 0.249793 0.328498 0.871430
C104  C     C_R   0.192125 0.309925 0.495812 0.865090
C105  C     C_R   0.163920 0.750052 0.671508 0.869315
C106  C     C_R   0.164084 0.249797 0.671504 0.871227
C107  C     C_R   0.836075 0.750048 0.328489 0.869067
C108  C     C_1   0.386940 0.749267 0.226864 -0.201657
C109  C     C_1   0.613063 0.250738 0.773135 -0.202878
C110  C     C_1   0.613124 0.749283 0.773135 -0.200406
C111  C     C_1   0.386873 0.250722 0.226865 -0.201618
C112  C     C_1   0.886924 0.249249 0.226866 -0.201608
C113  C     C_1   0.112985 0.750666 0.773142 -0.202450
C114  C     C_1   0.113100 0.249257 0.773135 -0.202941
C115  C     C_R   0.807872 0.690075 0.504193 0.864018
C116  C     C_1   0.886991 0.750658 0.226857 -0.203831
C117  C     C_1   0.429211 0.749027 0.142237 0.003293
C118  C     C_1   0.570793 0.250984 0.857762 0.004317
C119  C     C_1   0.570893 0.749045 0.857761 0.004208
C120  C     C_1   0.429104 0.250966 0.142240 0.005252
C121  C     C_1   0.929181 0.248993 0.142239 0.005770
C122  C     C_1   0.070781 0.750992 0.857764 0.004718
C123  C     C_1   0.070854 0.248999 0.857761 0.004722
C124  C     C_1   0.929184 0.750985 0.142236 0.003632
C125  C     C_1   0.479000 0.748910 0.042310 0.008673
C126  C     C_R   0.336432 0.895670 0.591288 0.087655
C127  C     C_1   0.521002 0.251104 0.957690 0.008989
C128  C     C_1   0.521129 0.748917 0.957686 0.009044
C129  C     C_1   0.478870 0.251097 0.042314 0.009365
C130  C     C_1   0.978958 0.248861 0.042312 0.009800
C131  C     C_1   0.021035 0.751171 0.957688 0.009333
C132  C     C_1   0.021083 0.248863 0.957688 0.009405
C133  C     C_1   0.978924 0.751169 0.042312 0.008922
C134  C     C_R   0.250427 0.842087 0.671846 -0.188239
C135  C     C_R   0.765911 0.120189 0.361196 -0.194170
C136  C     C_R   0.749570 0.842033 0.328138 -0.188131
H1    H     H_    0.422264 0.844543 0.355897 0.141527
H2    H     H_    0.793496 0.147582 0.349173 0.156661
H3    H     H_    0.770937 0.813870 0.327764 0.135116
H4    H     H_    0.206501 0.147595 0.650793 0.156787
H5    H     H_    0.706374 0.352762 0.651431 0.156443
H6    H     H_    0.293626 0.647246 0.348558 0.156972
H7    H     H_    0.221933 0.282411 0.350391 0.157214
H8    H     H_    0.778103 0.717604 0.649579 0.157612
H9    H     H_    0.174249 0.845630 0.818823 0.148242
H10   H     H_    0.851210 0.082733 0.257331 0.148078
H11   H     H_    0.825741 0.845526 0.181160 0.148573
H12   H     H_    0.569192 0.186678 0.597967 0.160381
H13   H     H_    0.148793 0.082754 0.742577 0.148073
H14   H     H_    0.648797 0.416758 0.747615 0.147874
H15   H     H_    0.351207 0.583257 0.252352 0.148083
H16   H     H_    0.203787 0.272830 0.258059 0.146733
H17   H     H_    0.796300 0.727202 0.741845 0.147053
H18   H     H_    0.313372 0.946097 0.685498 0.164655
H19   H     H_    0.676266 0.020107 0.388123 0.135083
H20   H     H_    0.686605 0.946000 0.314443 0.164701
H21   H     H_    0.323730 0.020129 0.611855 0.135027
H22   H     H_    0.824271 0.479000 0.614462 0.156656
H23   H     H_    0.577751 0.844590 0.644087 0.141591
H24   H     H_    0.175737 0.521006 0.385514 0.156651
H25   H     H_    0.075785 0.381579 0.389972 0.147938
H26   H     H_    0.924264 0.618431 0.609961 0.147899
H27   H     H_    0.474802 0.902294 0.357861 0.171552
H28   H     H_    0.513375 0.128835 0.601502 0.162266
H29   H     H_    0.525212 0.902326 0.642115 0.171604
H30   H     H_    0.486608 0.128840 0.398586 0.162202
H31   H     H_    0.987065 0.371298 0.396436 0.158949
H32   H     H_    0.012933 0.628694 0.603583 0.158955
H33   H     H_    0.078782 0.435382 0.600267 0.160069
H34   H     H_    0.430799 0.186674 0.402102 0.160372
H35   H     H_    0.921174 0.564600 0.399784 0.160073
H36   H     H_    0.930849 0.313684 0.400359 0.165533
H37   H     H_    0.069148 0.686309 0.599660 0.165714
H38   H     H_    0.138355 0.381076 0.596224 0.160966
H39   H     H_    0.861600 0.618908 0.403830 0.160976
H40   H     H_    0.229065 0.813914 0.672228 0.134929
N1    N     N_1   0.182339 0.931817 0.917080 -0.191066
N2    N     N_1   0.831140 0.977291 0.223356 -0.189159
N3    N     N_1   0.817630 0.931647 0.082872 -0.190929
N4    N     N_1   0.168860 0.977317 0.776498 -0.189101
N5    N     N_1   0.671290 0.520818 0.787798 -0.190754
N6    N     N_1   0.328722 0.479200 0.212148 -0.191000
N7    N     N_1   0.117291 0.315120 0.222134 -0.203035
N8    N     N_1   0.882844 0.684923 0.777698 -0.201940
O1    O     O_R   0.321660 0.769950 0.500020 -0.611746
O2    O     O_R   0.730050 0.178330 0.500000 -0.615868
O3    O     O_R   0.730050 0.821670 0.500000 -0.607129
O4    O     O_R   0.269950 0.178330 0.500000 -0.615286
O5    O     O_R   0.769950 0.321670 0.500000 -0.615966
O6    O     O_R   0.230050 0.678330 0.500000 -0.616093
O7    O     O_R   0.230050 0.321670 0.500000 -0.611583
O8    O     O_R   0.769950 0.678330 0.500000 -0.611548
O9    O     O_R   0.339000 0.724150 0.373720 -0.608279
O10   O     O_R   0.661000 0.275850 0.626280 -0.608554
O11   O     O_R   0.661000 0.724150 0.626280 -0.595093
O12   O     O_R   0.678340 0.230050 0.499980 -0.612415
O13   O     O_R   0.339000 0.275850 0.373720 -0.595486
O14   O     O_R   0.839000 0.224150 0.373720 -0.607295
O15   O     O_R   0.161000 0.775850 0.626280 -0.595014
O16   O     O_R   0.161000 0.224150 0.626280 -0.603975
O17   O     O_R   0.839000 0.775850 0.373720 -0.591610
O18   O     O_R   0.287290 0.775870 0.373700 -0.595371
O19   O     O_R   0.712710 0.224130 0.626300 -0.591518
O20   O     O_R   0.712710 0.775870 0.626300 -0.608399
O21   O     O_R   0.287290 0.224130 0.373700 -0.604414
O22   O     O_R   0.787290 0.275870 0.373700 -0.592023
O23   O     O_R   0.678340 0.769950 0.499980 -0.612276
O24   O     O_R   0.212710 0.724130 0.626300 -0.594911
O25   O     O_R   0.212710 0.275870 0.626300 -0.595650
O26   O     O_R   0.787290 0.724130 0.373700 -0.598590
O27   O     O_R   0.989830 0.545820 0.428700 -0.617315
O28   O     O_R   0.010170 0.454180 0.571300 -0.617426
O29   O     O_R   0.010170 0.545820 0.571300 -0.627241
O30   O     O_R   0.989830 0.454180 0.428700 -0.627209
O31   O     O_R   0.489830 0.045820 0.428700 -0.619186
O32   O     O_R   0.510170 0.954180 0.571300 -0.617381
O33   O     O_R   0.510170 0.045820 0.571300 -0.619156
O34   O     O_R   0.321660 0.230050 0.500020 -0.612920
O35   O     O_R   0.489830 0.954180 0.428700 -0.617384
O36   O     O_R   0.918540 0.545810 0.571290 -0.631963
O37   O     O_R   0.081460 0.454190 0.428710 -0.631943
O38   O     O_R   0.081460 0.545810 0.428710 -0.621936
O39   O     O_R   0.918540 0.454190 0.571290 -0.622052
O40   O     O_R   0.418540 0.045810 0.571290 -0.625429
O41   O     O_R   0.581460 0.954190 0.428710 -0.640175
O42   O     O_R   0.581460 0.045810 0.428710 -0.625486
O43   O     O_R   0.418540 0.954190 0.571290 -0.640146
O44   O     O_R   0.821660 0.269950 0.500020 -0.610875
O45   O     O_R   0.178340 0.730050 0.499980 -0.611353
O46   O     O_R   0.178340 0.269950 0.499980 -0.616206
O47   O     O_R   0.821660 0.730050 0.500020 -0.616840
O48   O     O_R   0.269950 0.821670 0.500000 -0.607777
Zn1   Zn    Zn3+2 0.284530 0.715470 0.500010 0.969874
Zn2   Zn    Zn3+2 0.952400 0.500000 0.595210 0.966040
Zn3   Zn    Zn3+2 0.547600 0.000000 0.404790 0.958395
Zn4   Zn    Zn3+2 0.452400 0.000000 0.595210 0.958502
Zn5   Zn    Zn3+2 0.715470 0.284530 0.499990 0.967158
Zn6   Zn    Zn3+2 0.715470 0.715470 0.499990 0.974811
Zn7   Zn    Zn3+2 0.284530 0.284530 0.500010 0.971994
Zn8   Zn    Zn3+2 0.784530 0.215470 0.500010 0.970603
Zn9   Zn    Zn3+2 0.215470 0.784530 0.499990 0.979723
Zn10  Zn    Zn3+2 0.215470 0.215470 0.499990 0.965236
Zn11  Zn    Zn3+2 0.784530 0.784530 0.500010 0.974283
Zn12  Zn    Zn3+2 0.047600 0.500000 0.404790 0.966246

loop_
_geom_bond_atom_site_label_1
_geom_bond_atom_site_label_2
_ccdc_geom_bond_type
C78   C87   A    
C134  H40   S    
C135  H2    S    
O1    Zn1   S    
C79   C88   A    
C123  C132  S    
C95   O31   A    
O11   Zn6   S    
O4    Zn10  S    
C8    H9    S    
C103  O22   A    
O12   Zn5   S    
C121  C130  S    
O5    Zn5   S    
C2    C83   A    
C48   C57   A    
C107  O26   A    
C93   O6    A    
C73   H27   S    
O43   Zn4   S    
C13   C84   A    
C71   O34   A    
C31   C43   A    
C124  C133  S    
C106  C114  S    
O46   Zn10  S    
C17   C26   A    
O26   Zn6   S    
C105  C113  S    
C86   C94   S    
C107  O17   A    
C104  O7    A    
C52   C61   A    
C84   C96   S    
C90   O27   A    
C81   C126  A    
C35   C86   A    
C61   C93   S    
C43   C52   A    
C81   C98   S    
C93   O45   A    
C56   C65   A    
C9    H10   S    
C16   C25   A    
C33   C45   A    
C62   C70   A    
O30   Zn12  S    
C26   C126  A    
C72   H39   S    
C73   C81   A    
C80   C89   A    
C24   C29   A    
C7    H8    S    
C19   C37   S    
O23   Zn6   S    
C6    C15   A    
O8    Zn6   S    
C44   C53   A    
C11   H13   S    
C113  C122  T    
C68   H36   S    
C46   C55   A    
C125  C128  T    
C64   C73   A    
C59   C82   S    
C5    C52   A    
C76   H30   S    
C2    C27   A    
C4    C12   A    
C45   C89   A    
C24   C85   A    
C71   O4    A    
C115  O47   A    
C31   H24   S    
C10   H11   S    
O13   Zn7   S    
C63   C115  S    
C119  C128  S    
C15   C23   A    
C97   O42   A    
C100  C109  S    
C98   O35   A    
C55   C64   A    
C24   C50   A    
C83   C97   S    
C69   C78   A    
C25   C42   S    
C69   H37   S    
O34   Zn7   S    
C136  H3    S    
O27   Zn12  S    
O33   Zn4   S    
O9    Zn1   S    
C66   H23   S    
C3    C50   A    
C48   C136  A    
C109  C118  T    
C40   N6    T    
C64   H1    S    
C67   H34   S    
C27   H19   S    
C37   N3    T    
C11   C20   A    
C94   O30   A    
O7    Zn7   S    
C38   N4    T    
C22   C31   A    
C49   O2    A    
C4    C51   A    
C8    C134  A    
O48   Zn9   S    
O41   Zn3   S    
C74   C83   A    
C12   H14   S    
C36   N2    T    
O3    Zn11  S    
C102  O13   A    
C4    H5    S    
O38   Zn12  S    
C57   C60   S    
C29   H21   S    
C42   N8    T    
C101  C110  S    
O18   Zn9   S    
C82   O44   A    
C12   C21   A    
C62   C104  S    
O42   Zn3   S    
C120  C129  S    
C103  C112  S    
C103  O14   A    
C50   C58   A    
C118  C127  S    
C14   H15   S    
O47   Zn11  S    
C127  C129  T    
C99   C108  S    
O39   Zn2   S    
O35   Zn3   S    
C59   C68   A    
C46   C134  A    
O45   Zn9   S    
C53   C62   A    
C9    C18   A    
C104  O46   A    
C21   C39   S    
C88   C91   S    
C10   C19   A    
C22   C40   S    
C32   H25   S    
C13   C28   A    
O19   Zn8   S    
C32   C44   A    
O31   Zn3   S    
C92   O29   A    
C75   H29   S    
O6    Zn1   S    
C85   C95   S    
C65   H12   S    
C102  C111  S    
C19   C28   A    
C70   H38   S    
C5    C14   A    
C39   N5    T    
O22   Zn5   S    
O14   Zn8   S    
O2    Zn8   S    
C114  C123  T    
C9    C135  A    
C7    C16   A    
C77   C86   A    
C60   O3    A    
C1    O1    A    
C82   O5    A    
C35   C51   A    
C94   O39   A    
O32   Zn4   S    
C97   O33   A    
C26   H18   S    
C51   C59   A    
C17   C34   S    
C115  O8    A    
C6    C53   A    
O21   Zn10  S    
C89   C90   S    
O16   Zn10  S    
C122  C131  S    
O20   Zn11  S    
C87   C92   S    
O15   Zn9   S    
C105  O24   A    
C106  O16   A    
C98   O43   A    
O36   Zn2   S    
C61   C69   A    
C68   C77   A    
C30   H22   S    
C116  C124  T    
C47   C135  A    
C70   C79   A    
C90   O36   A    
C108  C117  T    
C46   C126  A    
C41   N7    T    
C18   C27   A    
O25   Zn7   S    
C10   C136  A    
C91   O28   A    
C131  C133  T    
C101  O20   A    
O17   Zn11  S    
C110  C119  T    
C45   C54   A    
C13   C48   A    
O28   Zn2   S    
C60   O23   A    
O44   Zn8   S    
C96   O32   A    
C67   C76   A    
C49   O12   A    
C100  O10   A    
C2    C47   A    
C77   H31   S    
C49   C56   S    
C30   C35   A    
C21   C30   A    
C99   O9    A    
C78   H32   S    
C95   O40   A    
C23   C41   S    
C91   O37   A    
C130  C132  T    
C43   C87   A    
C23   C32   A    
C79   H33   S    
C92   O38   A    
C33   H26   S    
O40   Zn4   S    
C112  C121  T    
C99   O18   A    
C57   C66   A    
C96   O41   A    
C8    C17   A    
C74   H28   S    
C106  O25   A    
C1    O48   A    
C14   C22   A    
C5    H6    S    
C15   H16   S    
C66   C75   A    
O24   Zn1   S    
C100  O19   A    
C20   C38   S    
O10   Zn5   S    
C1    C55   S    
C75   C84   A    
C102  O21   A    
C107  C116  S    
C80   H35   S    
C3    C11   A    
C58   C71   S    
C65   C74   A    
C101  O11   A    
C58   C67   A    
C105  O15   A    
C63   C72   A    
C20   C29   A    
C72   C80   A    
C54   C63   A    
C16   H17   S    
C28   H20   S    
C111  C120  T    
C34   N1    T    
C3    H4    S    
C7    C54   A    
C6    H7    S    
C44   C88   A    
C117  C125  S    
C18   C36   S    
C76   C85   A    
O29   Zn2   S    
C25   C33   A    
C47   C56   A    
O37   Zn12  S    
