data_mof_unit_23184.cif
_audit_creation_date              2012-12-10T17:37:46-0500
_audit_creation_method            fapswitch 2.2
_symmetry_space_group_name_H-M    P1
_symmetry_Int_Tables_number       1
_space_group_crystal_system       triclinic
_cell_length_a                    12.314427
_cell_length_b                    13.194922
_cell_length_c                    17.286762
_cell_angle_alpha                 104.744491
_cell_angle_beta                  75.033244
_cell_angle_gamma                 116.604701
_cell_volume                      2394.72480064

loop_
_atom_site_label
_atom_site_type_symbol
_atom_type_description
_atom_site_fract_x
_atom_site_fract_y
_atom_site_fract_z
_atom_type_partial_charge
C1    C     C_R   0.144515 0.713546 0.507182 0.776624
C2    C     C_R   0.889400 0.518094 0.796820 -0.204449
C3    C     C_R   0.929696 0.512231 0.158305 -0.151950
C4    C     C_R   0.929394 0.517621 0.239467 -0.206263
C5    C     C_R   0.095782 0.454110 0.201689 -0.200537
C6    C     C_R   0.095551 0.448185 0.120152 -0.172108
C7    C     C_R   0.014215 0.479340 0.098308 0.192943
C8    C     C_2   0.999450 0.555216 0.988234 -0.245214
C9    C     C_2   0.018936 0.477178 0.012557 -0.232886
C10   C     C_R   0.013136 0.489670 0.261871 -0.027000
C11   C     C_R   0.733448 0.976522 0.391362 -0.191883
C12   C     C_R   0.989670 0.506147 0.652262 0.799026
C13   C     C_R   0.774428 0.164949 0.471184 -0.048947
C14   C     C_R   0.179532 0.915842 0.560658 -0.188962
C15   C     C_R   0.256994 0.031046 0.576694 -0.145273
C16   C     C_R   0.382715 0.068224 0.547996 -0.182305
C17   C     C_R   0.433479 0.990537 0.499467 0.079048
C18   C     C_R   0.351940 0.875651 0.475340 0.081914
C19   C     C_R   0.562311 0.023349 0.473312 0.073327
C20   C     C_R   0.606535 0.945054 0.417662 0.167355
C21   C     C_R   0.523648 0.837316 0.387298 -0.241836
C22   C     C_R   0.398245 0.803687 0.414649 -0.197978
C23   C     C_R   0.855917 0.286371 0.488002 0.802231
C24   C     C_R   0.648914 0.131557 0.501329 -0.252890
C25   C     C_R   0.817138 0.086415 0.417570 -0.195283
C26   C     C_R   0.225953 0.836599 0.511917 -0.102414
C27   C     C_R   0.642238 0.674172 0.629498 -0.295926
C28   C     C_R   0.249739 0.352156 0.389960 0.071657
C29   C     C_R   0.348289 0.319930 0.366366 -0.256875
C30   C     C_R   0.448301 0.375677 0.407685 -0.193989
C31   C     C_R   0.450936 0.464955 0.473596 -0.006325
C32   C     C_R   0.347517 0.494831 0.495638 0.292389
C33   C     C_R   0.551494 0.525327 0.518584 -0.038393
C34   C     C_R   0.011330 0.495430 0.347741 0.782161
C35   C     C_R   0.546141 0.613737 0.584241 0.179189
C36   C     C_R   0.444827 0.641346 0.604660 -0.277673
C37   C     C_R   0.347887 0.583149 0.561537 -0.193878
C38   C     C_R   0.657910 0.502302 0.501737 0.014775
C39   C     C_R   0.743815 0.647142 0.609909 0.067854
C40   C     C_R   0.992704 0.519952 0.738293 -0.081737
C41   C     C_R   0.102020 0.540409 0.762481 -0.185554
C42   C     C_R   0.108172 0.556406 0.844103 0.186324
C43   C     C_R   0.001933 0.549114 0.902453 0.135790
C44   C     C_R   0.894150 0.532586 0.878582 -0.193535
Cu1   Cu    Cu3+1 0.900140 0.524980 0.518800 0.934378
Cu2   Cu    Cu3+1 0.099860 0.475020 0.481200 0.923957
H1    H     H_    0.183810 0.545816 0.718157 0.164332
H2    H     H_    0.160382 0.421534 0.074183 0.122541
H3    H     H_    0.914300 0.111337 0.393448 0.147007
H4    H     H_    0.555846 0.778598 0.342081 0.143687
H5    H     H_    0.767653 0.917188 0.348737 0.131864
H6    H     H_    0.621399 0.192742 0.546215 0.147828
H7    H     H_    0.083312 0.888372 0.588173 0.151750
H8    H     H_    0.436900 0.158797 0.563404 0.130297
H9    H     H_    0.219900 0.091572 0.613791 0.143453
H10   H     H_    0.338443 0.721621 0.385680 0.176469
H11   H     H_    0.818447 0.693523 0.644492 0.121955
H12   H     H_    0.863442 0.543784 0.284547 0.154318
H13   H     H_    0.439974 0.708661 0.654975 0.157056
H14   H     H_    0.638729 0.741880 0.679751 0.138574
H15   H     H_    0.670031 0.436931 0.452855 0.123736
H16   H     H_    0.172453 0.308279 0.357626 0.121192
H17   H     H_    0.521916 0.347102 0.386871 0.136119
H18   H     H_    0.347115 0.251416 0.315900 0.143523
H19   H     H_    0.274507 0.610249 0.582681 0.204032
H20   H     H_    0.160278 0.430839 0.217501 0.148064
H21   H     H_    0.042137 0.411926 0.968253 0.149802
H22   H     H_    0.812813 0.528323 0.923234 0.139178
H23   H     H_    0.863050 0.532808 0.142660 0.124196
H24   H     H_    0.804695 0.503934 0.779366 0.158527
H25   H     H_    0.974464 0.620139 0.031485 0.151476
N1    N     N_R   0.749710 0.562810 0.547300 -0.180781
N2    N     N_R   0.249640 0.437820 0.453210 -0.206314
O1    O     O_R   0.025490 0.682370 0.523640 -0.579577
O2    O     O_R   0.194150 0.640180 0.491890 -0.604641
O3    O     O_R   0.905900 0.523560 0.631310 -0.583609
O4    O     O_R   0.074570 0.481370 0.599560 -0.600992
O5    O     O_R   0.805850 0.359820 0.508110 -0.586976
O6    O     O_R   0.974510 0.317630 0.476360 -0.584998
O7    O     O_R   0.925430 0.518630 0.400440 -0.587904
O8    O     O_R   0.094100 0.476440 0.368690 -0.598140
N3    N     N_3   0.224279 0.584806 0.866037 -0.608500
H26   H     H_    0.218056 0.517687 0.890779 0.216390
H27   H     H_    0.244676 0.658953 0.909762 0.226188

loop_
_geom_bond_atom_site_label_1
_geom_bond_atom_site_label_2
_ccdc_geom_bond_type
C24   H6    S    
C41   C42   A    
C19   C20   A    
C42   N3    S    
C8    C43   S    
C36   H13   S    
Cu1   Cu2   S    
C6    H2    S    
Cu1   O3    S    
C1    O1    A    
C36   C37   A    
C3    H23   S    
C3    C7    A    
C27   H14   S    
C5    C6    A    
C11   C25   A    
C15   C16   A    
C39   H11   S    
C13   C23   S    
C21   H4    S    
C17   C19   A    
C18   C26   A    
C35   C36   A    
C27   C39   A    
C8    C9    D    
C37   H19   S    
C39   N1    A    
C31   C33   A    
Cu1   O5    S    
C34   O8    A    
C38   H15   S    
C34   O7    A    
C29   H18   S    
C21   C22   A    
Cu1   N1    S    
C13   C25   A    
C28   N2    A    
Cu2   O2    S    
C16   H8    S    
C38   N1    A    
C11   C20   A    
C1    O2    A    
C2    C44   A    
C32   N2    A    
C16   C17   A    
C22   H10   S    
C27   C35   A    
C13   C24   A    
Cu1   O1    S    
C15   H9    S    
C12   C40   S    
C43   C44   A    
C9    H21   S    
C29   C30   A    
Cu2   O8    S    
C31   C32   A    
C30   C31   A    
C12   O4    A    
C17   C18   A    
C41   H1    S    
C10   C34   S    
C32   C37   A    
C14   C26   A    
C40   C41   A    
N3    H27   S    
C12   O3    A    
C1    C26   S    
C44   H22   S    
C42   C43   A    
C4    C10   A    
C3    C4    A    
C7    C9    S    
C28   C29   A    
C8    H25   S    
C18   C22   A    
C5    H20   S    
Cu2   O4    S    
C6    C7    A    
C33   C38   A    
C19   C24   A    
C5    C10   A    
Cu2   O6    S    
C30   H17   S    
C33   C35   A    
Cu1   O7    S    
C23   O5    A    
C25   H3    S    
C11   H5    S    
C2    C40   A    
C14   H7    S    
C20   C21   A    
N3    H26   S    
C4    H12   S    
C14   C15   A    
C23   O6    A    
C2    H24   S    
Cu2   N2    S    
C28   H16   S    
