data_mof_unit_56424.cif
_audit_creation_date              2013-03-05T15:54:53-0500
_audit_creation_method            fapswitch 2.2
_symmetry_space_group_name_H-M    P1
_symmetry_Int_Tables_number       1
_space_group_crystal_system       triclinic
_cell_length_a                    17.30592
_cell_length_b                    17.223173
_cell_length_c                    17.53484
_cell_angle_alpha                 90.595086
_cell_angle_beta                  90.074172
_cell_angle_gamma                 89.658805
_cell_volume                      5226.10592356

loop_
_atom_site_label
_atom_site_type_symbol
_atom_site_description
_atom_site_fract_x
_atom_site_fract_y
_atom_site_fract_z
_atom_type_partial_charge
C1    C     C_R   0.419012 0.328821 0.857031 0.325985
C2    C     C_R   0.694012 0.395630 0.888493 0.368908
C3    C     C_R   0.587329 0.677783 0.863898 0.348997
C4    C     C_R   0.304108 0.606194 0.894322 0.368372
C5    C     C_R   0.401319 0.686708 0.127305 0.237299
C6    C     C_R   0.696586 0.611777 0.100529 0.316762
C7    C     C_R   0.596915 0.316889 0.130701 0.256579
C8    C     C_R   0.303502 0.388913 0.101069 0.322827
C9    C     C_R   0.900401 0.809648 0.378533 0.252419
C10   C     C_R   0.197516 0.889559 0.399767 0.312885
C11   C     C_R   0.099820 0.189076 0.378229 0.246594
C12   C     C_R   0.803550 0.110913 0.397405 0.327085
C13   C     C_R   0.925248 0.168515 0.644602 0.340926
C14   C     C_R   0.197883 0.104504 0.600912 0.252284
C15   C     C_R   0.081874 0.826296 0.639964 0.320812
C16   C     C_R   0.801214 0.892168 0.593927 0.242448
N1    N     N_R   0.425360 0.368540 0.922560 -0.102905
N2    N     N_R   0.631460 0.425360 0.922560 -0.101168
N3    N     N_R   0.574640 0.631460 0.922560 -0.099262
N4    N     N_R   0.368540 0.574640 0.922560 -0.099562
N5    N     N_R   0.425360 0.631460 0.077440 -0.099877
N6    N     N_R   0.631460 0.574640 0.077440 -0.111158
N7    N     N_R   0.574640 0.368540 0.077440 -0.096525
N8    N     N_R   0.368540 0.425360 0.077440 -0.109182
N9    N     N_R   0.925360 0.868540 0.422560 -0.103705
N10   N     N_R   0.131460 0.925360 0.422560 -0.112419
N11   N     N_R   0.074640 0.131460 0.422560 -0.101880
N12   N     N_R   0.868540 0.074640 0.422560 -0.107975
N13   N     N_R   0.925360 0.131460 0.577440 -0.083790
N14   N     N_R   0.131460 0.074640 0.577440 -0.118880
N15   N     N_R   0.074640 0.868540 0.577440 -0.083917
N16   N     N_R   0.868540 0.925360 0.577440 -0.118100
C17   C     C_3   0.868796 0.151845 0.885094 -0.076148
C18   C     C_3   0.774505 0.864863 0.773411 -0.116650
C19   C     C_3   0.138281 0.857882 0.869367 -0.078727
C20   C     C_3   0.215104 0.157853 0.787472 -0.128525
C21   C     C_3   0.909806 0.802291 0.184482 -0.164649
C22   C     C_3   0.619877 0.268777 0.407098 -0.308866
C23   C     C_3   0.087544 0.202536 0.184198 -0.161362
C24   C     C_3   0.384431 0.729309 0.401852 -0.286118
C25   C     C_3   0.415391 0.691718 0.328239 -0.177344
C26   C     C_3   0.122070 0.230812 0.108784 -0.161544
C27   C     C_3   0.585004 0.310536 0.338140 -0.197456
C28   C     C_3   0.876141 0.774017 0.108124 -0.157384
C29   C     C_3   0.240195 0.223881 0.842393 -0.190015
C30   C     C_3   0.194990 0.817348 0.925059 -0.169062
C31   C     C_3   0.748511 0.809896 0.837122 -0.188602
C32   C     C_3   0.807500 0.199170 0.932456 -0.170228
C33   C     C_R   0.393576 0.696804 0.897161 -0.038586
C34   C     C_R   0.328841 0.421734 0.857330 -0.089214
C35   C     C_R   0.604224 0.304447 0.890948 -0.057094
C36   C     C_R   0.678175 0.585040 0.863071 -0.030538
C37   C     C_R   0.397459 0.301840 0.101093 -0.152990
C38   C     C_R   0.318437 0.587639 0.133254 -0.078819
C39   C     C_R   0.600866 0.696894 0.107505 -0.141094
C40   C     C_R   0.679265 0.416789 0.135234 -0.101899
C41   C     C_R   0.896542 0.197614 0.396612 -0.125929
C42   C     C_R   0.814258 0.906549 0.372399 -0.075983
C43   C     C_R   0.104536 0.802268 0.395482 -0.120244
C44   C     C_R   0.184220 0.090248 0.370585 -0.061410
C45   C     C_R   0.891929 0.801972 0.598346 -0.102872
C46   C     C_R   0.842797 0.070934 0.649142 -0.081281
C47   C     C_R   0.109224 0.197558 0.599769 -0.095340
C48   C     C_R   0.169490 0.921761 0.643285 -0.074062
H1    H     H_    0.416685 0.754093 0.901234 0.220602
H2    H     H_    0.278095 0.455082 0.843352 0.189154
H3    H     H_    0.582738 0.246534 0.896091 0.210044
H4    H     H_    0.730106 0.552813 0.850390 0.195295
H5    H     H_    0.427196 0.248202 0.091757 0.229968
H6    H     H_    0.273679 0.547948 0.148873 0.197955
H7    H     H_    0.567697 0.749157 0.110034 0.228804
H8    H     H_    0.721545 0.459475 0.149211 0.203720
H9    H     H_    0.928029 0.250546 0.399056 0.215978
H10   H     H_    0.765852 0.942605 0.357662 0.203642
H11   H     H_    0.074552 0.748039 0.395906 0.213905
H12   H     H_    0.230517 0.051330 0.355410 0.193977
H13   H     H_    0.918708 0.745551 0.599513 0.222158
H14   H     H_    0.801760 0.030625 0.670077 0.158894
H15   H     H_    0.084295 0.254884 0.598610 0.227964
H16   H     H_    0.219679 0.955393 0.658242 0.168867
N17   N     N_R   0.425340 0.631500 0.922560 -0.077602
N18   N     N_R   0.368500 0.425340 0.922560 -0.074403
N19   N     N_R   0.574660 0.368500 0.922560 -0.078959
N20   N     N_R   0.631500 0.574660 0.922560 -0.077197
N21   N     N_R   0.425340 0.368500 0.077440 -0.086513
N22   N     N_R   0.368500 0.574660 0.077440 -0.086172
N23   N     N_R   0.574660 0.631500 0.077440 -0.085960
N24   N     N_R   0.631500 0.425340 0.077440 -0.085486
N25   N     N_R   0.925340 0.131500 0.422560 -0.089198
N26   N     N_R   0.868500 0.925340 0.422560 -0.086749
N27   N     N_R   0.074660 0.868500 0.422560 -0.085685
N28   N     N_R   0.131500 0.074660 0.422560 -0.083881
N29   N     N_R   0.925340 0.868500 0.577440 -0.095015
N30   N     N_R   0.868500 0.074660 0.577440 -0.044581
N31   N     N_R   0.074660 0.131500 0.577440 -0.098093
N32   N     N_R   0.131500 0.925340 0.577440 -0.056322
Ni1   Ni    Ni4+2 0.500000 0.369720 0.000000 0.288771
Ni2   Ni    Ni4+2 0.630280 0.500000 0.000000 0.310396
Ni3   Ni    Ni4+2 0.500000 0.630280 0.000000 0.300301
Ni4   Ni    Ni4+2 0.369720 0.500000 0.000000 0.311583
Ni5   Ni    Ni4+2 0.000000 0.869720 0.500000 0.302896
Ni6   Ni    Ni4+2 0.130280 1.000000 0.500000 0.310657
Ni7   Ni    Ni4+2 0.000000 0.130280 0.500000 0.303982
Ni8   Ni    Ni4+2 0.869720 1.000000 0.500000 0.320298
C49   C     C_R   0.360098 0.362428 0.814640 0.037247
C50   C     C_R   0.676507 0.321223 0.867355 -0.062340
C51   C     C_R   0.650929 0.648970 0.825009 -0.039091
C52   C     C_R   0.319064 0.682194 0.879381 -0.111595
C53   C     C_R   0.336272 0.658259 0.166564 0.001007
C54   C     C_R   0.678558 0.689292 0.119448 -0.037584
C55   C     C_R   0.660384 0.348954 0.171761 -0.026655
C56   C     C_R   0.320430 0.310600 0.115858 -0.047795
C57   C     C_R   0.832347 0.833792 0.343382 0.027570
C58   C     C_R   0.182817 0.811219 0.384319 -0.018208
C59   C     C_R   0.166746 0.162613 0.341379 0.028271
C60   C     C_R   0.818598 0.189262 0.383851 -0.014057
C61   C     C_R   0.872963 0.131669 0.691240 -0.110204
C62   C     C_R   0.185768 0.181449 0.613199 0.025947
C63   C     C_R   0.140128 0.859729 0.682978 -0.082288
C64   C     C_R   0.814587 0.815810 0.607350 0.055414
C65   C     C_R   0.778818 0.225874 0.856901 0.037073
C66   C     C_R   0.704491 0.766327 0.775968 0.122916
C67   C     C_R   0.243242 0.798634 0.856045 0.049798
C68   C     C_R   0.290411 0.250298 0.778029 0.064485
C69   C     C_R   0.807914 0.740023 0.150864 0.130065
C70   C     C_R   0.652098 0.278668 0.293359 0.151475
C71   C     C_R   0.191521 0.261652 0.152945 0.142798
C72   C     C_R   0.346659 0.727092 0.289864 0.112803
C73   C     C_R   0.315466 0.760179 0.357160 0.126732
C74   C     C_R   0.159371 0.233793 0.220786 0.099061
C75   C     C_R   0.686153 0.241597 0.356559 0.133252
C76   C     C_R   0.840303 0.766100 0.219969 0.095027
C77   C     C_R   0.259356 0.200241 0.726696 0.118655
C78   C     C_R   0.196408 0.839911 0.807802 0.015267
C79   C     C_R   0.736175 0.808751 0.718931 0.062220
C80   C     C_R   0.829015 0.182904 0.815408 0.079612
C81   C     C_R   0.722277 0.270504 0.823060 -0.092205
C82   C     C_R   0.691114 0.687658 0.765618 -0.123393
C83   C     C_R   0.277033 0.729958 0.829566 -0.088003
C84   C     C_R   0.317522 0.322210 0.757026 -0.123246
C85   C     C_R   0.729310 0.756032 0.137488 -0.102721
C86   C     C_R   0.697064 0.322222 0.243238 -0.124760
C87   C     C_R   0.269682 0.245421 0.137804 -0.128304
C88   C     C_R   0.299476 0.688808 0.236658 -0.086861
C89   C     C_R   0.237580 0.745116 0.373453 -0.039901
C90   C     C_R   0.205136 0.196782 0.275813 -0.069379
C91   C     C_R   0.764556 0.255269 0.371252 -0.078327
C92   C     C_R   0.794067 0.798415 0.277884 -0.053983
C93   C     C_R   0.238292 0.228077 0.655504 -0.120908
C94   C     C_R   0.189023 0.817063 0.731915 -0.076493
C95   C     C_R   0.763444 0.771682 0.653043 -0.109318
C96   C     C_R   0.820917 0.176469 0.736923 -0.081756
C97   C     C_R   0.206043 0.677992 0.339391 0.094576
C98   C     C_R   0.280875 0.173594 0.255629 0.170699
C99   C     C_R   0.796104 0.324269 0.342636 0.120606
C100  C     C_R   0.717700 0.820455 0.259721 0.171294
C101  C     C_R   0.265298 0.300525 0.629978 0.219314
C102  C     C_R   0.235777 0.756887 0.701453 0.263183
C103  C     C_R   0.747196 0.692786 0.638408 0.206918
C104  C     C_R   0.759741 0.217405 0.700387 0.250258
C105  C     C_R   0.710513 0.265396 0.743675 0.254144
C106  C     C_R   0.709253 0.650404 0.695686 0.226525
C107  C     C_R   0.279942 0.712722 0.751172 0.251492
C108  C     C_R   0.309751 0.347326 0.680661 0.231671
C109  C     C_R   0.694534 0.814973 0.183099 0.142212
C110  C     C_R   0.768196 0.351836 0.272590 0.184234
C111  C     C_R   0.306281 0.186560 0.181017 0.158316
C112  C     C_R   0.226652 0.661730 0.262915 0.176261
N33   N     N_R   0.451002 0.253174 0.843198 0.210452
O1    O     O_R   0.466296 0.230295 0.773877 -0.318012
O2    O     O_R   0.456276 0.203695 0.898507 -0.386138
N34   N     N_R   0.770727 0.424313 0.898232 0.213002
O3    O     O_R   0.824450 0.406509 0.849149 -0.315361
O4    O     O_R   0.789048 0.461497 0.960355 -0.345967
N35   N     N_R   0.551871 0.751957 0.853916 0.203810
O5    O     O_R   0.534924 0.776660 0.786021 -0.350354
O6    O     O_R   0.540775 0.797138 0.912764 -0.376745
N36   N     N_R   0.228371 0.575381 0.903655 0.216914
O7    O     O_R   0.173698 0.592661 0.855634 -0.329115
O8    O     O_R   0.211411 0.538278 0.965345 -0.333437
N37   N     N_R   0.419600 0.767355 0.118838 0.229372
O9    O     O_R   0.446821 0.791102 0.054110 -0.348361
O10   O     O_R   0.394551 0.818982 0.167582 -0.330537
N38   N     N_R   0.771170 0.588545 0.074484 0.237252
O11   O     O_R   0.822546 0.564654 0.123134 -0.305128
O12   O     O_R   0.793271 0.609862 0.007123 -0.389505
N39   N     N_R   0.579964 0.235597 0.123662 0.237066
O13   O     O_R   0.555524 0.208764 0.058406 -0.364239
O14   O     O_R   0.605280 0.186302 0.173564 -0.308847
N40   N     N_R   0.228366 0.414596 0.079860 0.236122
O15   O     O_R   0.180298 0.438285 0.132200 -0.329639
O16   O     O_R   0.202077 0.394445 0.013172 -0.392813
N41   N     N_R   0.922618 0.730160 0.389687 0.244165
O17   O     O_R   0.954684 0.710278 0.453652 -0.314961
O18   O     O_R   0.896699 0.675650 0.344803 -0.284354
N42   N     N_R   0.272162 0.918689 0.418454 0.228313
O19   O     O_R   0.322684 0.929069 0.364786 -0.337350
O20   O     O_R   0.293942 0.921983 0.489339 -0.313826
N43   N     N_R   0.080222 0.269258 0.391308 0.247966
O21   O     O_R   0.047627 0.289682 0.455230 -0.313599
O22   O     O_R   0.109355 0.323233 0.348964 -0.279316
N44   N     N_R   0.728426 0.077286 0.397704 0.210791
O23   O     O_R   0.686756 0.077664 0.335914 -0.339698
O24   O     O_R   0.706067 0.036507 0.455192 -0.302307
N45   N     N_R   0.948387 0.247832 0.653629 0.232232
O25   O     O_R   0.948272 0.293512 0.595011 -0.256522
O26   O     O_R   0.959985 0.277137 0.721330 -0.358202
N46   N     N_R   0.271576 0.073341 0.579937 0.252387
O27   O     O_R   0.294500 0.079808 0.509784 -0.268566
O28   O     O_R   0.322718 0.059743 0.632589 -0.351415
N47   N     N_R   0.057830 0.747067 0.644392 0.227120
O29   O     O_R   0.053957 0.712615 0.709862 -0.354615
O30   O     O_R   0.052469 0.705624 0.582247 -0.256815
N48   N     N_R   0.726800 0.921021 0.570849 0.260635
O31   O     O_R   0.678117 0.873969 0.538167 -0.270447
O32   O     O_R   0.701092 0.987398 0.596058 -0.323519
C113  C     C_1   0.864711 0.066818 0.889932 0.067602
N49   N     N_1   0.861986 0.999979 0.894064 -0.078791
C114  C     C_1   0.858491 0.875638 0.764621 0.063300
N50   N     N_1   0.924002 0.886030 0.757156 -0.086642
C115  C     C_1   0.124805 0.941502 0.881126 0.067720
N51   N     N_1   0.112851 0.007010 0.890531 -0.080051
C116  C     C_1   0.131661 0.148871 0.773552 0.077435
N52   N     N_1   0.066492 0.140135 0.761924 -0.069760
C117  C     C_1   0.913428 0.887638 0.195239 0.070145
N53   N     N_1   0.916010 0.954301 0.203738 -0.065525
C118  C     C_1   0.575687 0.202072 0.435592 0.390178
N54   N     N_1   0.541013 0.149769 0.457959 0.082596
C119  C     C_1   0.079013 0.117399 0.191363 0.063466
N55   N     N_1   0.072586 0.050866 0.197059 -0.071898
C120  C     C_1   0.431189 0.793476 0.433353 0.377563
N56   N     N_1   0.467967 0.843725 0.458059 0.078413
C121  C     C_1   0.415467 0.605636 0.325566 0.089000
N57   N     N_1   0.415207 0.538454 0.323290 -0.043680
C122  C     C_1   0.077814 0.293173 0.071231 0.271244
N58   N     N_1   0.042553 0.341833 0.041978 0.036603
C123  C     C_1   0.583926 0.396548 0.342666 0.104418
N59   N     N_1   0.583405 0.463694 0.346087 -0.034699
C124  C     C_1   0.922082 0.713328 0.068741 0.276341
N60   N     N_1   0.958507 0.665849 0.038127 0.037486
C125  C     C_1   0.282817 0.201043 0.911010 0.206932
N61   N     N_1   0.315497 0.183237 0.965640 0.017152
C126  C     C_1   0.164226 0.748901 0.964340 0.186835
N62   N     N_1   0.138621 0.695677 0.994667 0.050369
C127  C     C_1   0.702096 0.848715 0.896322 0.234060
N63   N     N_1   0.667464 0.882580 0.942144 0.060883
C128  C     C_1   0.836539 0.263224 0.980744 0.185156
N64   N     N_1   0.859511 0.313129 0.018991 0.024972
C129  C     C_1   0.948554 0.179660 0.894381 0.171962
N65   N     N_1   0.010724 0.202116 0.903625 -0.074983
C130  C     C_1   0.733624 0.940640 0.772121 0.153421
N66   N     N_1   0.700904 0.999479 0.772326 -0.018274
C131  C     C_1   0.064609 0.816564 0.858582 0.167041
N67   N     N_1   0.007398 0.782915 0.851814 -0.027457
C132  C     C_1   0.251847 0.081548 0.800956 0.199637
N68   N     N_1   0.281064 0.021959 0.811374 -0.028674
C133  C     C_1   0.981856 0.765233 0.210372 0.184179
N69   N     N_1   0.038586 0.736751 0.231187 -0.015210
C134  C     C_1   0.643542 0.320135 0.471114 0.319320
N70   N     N_1   0.661596 0.361032 0.520714 0.081980
C135  C     C_1   0.017682 0.243308 0.211699 0.183239
N71   N     N_1   0.962635 0.274926 0.233221 -0.004738
C136  C     C_1   0.364186 0.674175 0.462670 0.293862
N72   N     N_1   0.349124 0.630219 0.509731 0.094883
C137  C     C_1   0.487847 0.721473 0.297130 0.224114
N73   N     N_1   0.544995 0.743511 0.271636 -0.032813
C138  C     C_1   0.142067 0.168839 0.053215 0.104074
N74   N     N_1   0.157270 0.119687 0.010301 -0.061086
C139  C     C_1   0.510663 0.282038 0.309034 0.240209
N75   N     N_1   0.451733 0.261125 0.285946 -0.009842
C140  C     C_1   0.853756 0.835922 0.054646 0.103354
N76   N     N_1   0.836426 0.885025 0.013467 -0.066993
C141  C     C_1   0.179766 0.282228 0.860389 0.170865
N77   N     N_1   0.132493 0.328180 0.873689 0.027974
C142  C     C_1   0.237109 0.868715 0.978378 0.178853
N78   N     N_1   0.270190 0.908980 0.020206 0.029965
C143  C     C_1   0.809334 0.760495 0.870781 0.138556
N79   N     N_1   0.856622 0.720999 0.896610 -0.013858
C144  C     C_1   0.748775 0.153103 0.972413 0.145830
N80   N     N_1   0.702794 0.116800 0.003700 0.041823
N81   N     N_R   0.166535 0.621939 0.385535 0.281194
O33   O     O_R   0.172223 0.548402 0.368518 -0.230570
O34   O     O_R   0.144803 0.640687 0.454301 -0.240117
N82   N     N_R   0.331486 0.137588 0.310045 0.248196
O35   O     O_R   0.364203 0.070973 0.295099 -0.246644
O36   O     O_R   0.340927 0.169234 0.377079 -0.300937
N83   N     N_R   0.854283 0.365787 0.385042 0.265252
O37   O     O_R   0.913944 0.395524 0.351255 -0.232747
O38   O     O_R   0.850443 0.368959 0.459108 -0.237959
N84   N     N_R   0.665043 0.847730 0.318040 0.244592
O39   O     O_R   0.607673 0.893997 0.302180 -0.260800
O40   O     O_R   0.667699 0.816801 0.385385 -0.310713
N85   N     N_R   0.247521 0.325231 0.554151 0.267738
O41   O     O_R   0.195699 0.379168 0.543973 -0.230297
O42   O     O_R   0.269344 0.282789 0.496197 -0.299909
N86   N     N_R   0.232962 0.735567 0.622166 0.250407
O43   O     O_R   0.250782 0.785470 0.570062 -0.384052
O44   O     O_R   0.216690 0.664571 0.602238 -0.235769
N87   N     N_R   0.768312 0.657130 0.566658 0.263699
O45   O     O_R   0.794215 0.586128 0.563676 -0.235851
O46   O     O_R   0.763231 0.696276 0.503740 -0.296980
N88   N     N_R   0.749162 0.212358 0.619410 0.238837
O47   O     O_R   0.700652 0.162792 0.590381 -0.325130
O48   O     O_R   0.785890 0.259290 0.574870 -0.338701
N89   N     N_R   0.648494 0.307097 0.707324 0.262067
O49   O     O_R   0.638125 0.380851 0.720590 -0.298152
O50   O     O_R   0.600512 0.270803 0.662518 -0.302695
N90   N     N_R   0.688448 0.571010 0.683031 0.264029
O51   O     O_R   0.616069 0.552732 0.674915 -0.285705
O52   O     O_R   0.739521 0.516432 0.693524 -0.274184
N91   N     N_R   0.327508 0.650734 0.722112 0.259357
O53   O     O_R   0.305011 0.579168 0.728056 -0.310750
O54   O     O_R   0.388001 0.666443 0.681273 -0.314610
N92   N     N_R   0.347234 0.417134 0.655369 0.273577
O55   O     O_R   0.413528 0.437571 0.684110 -0.290364
O56   O     O_R   0.317784 0.458863 0.601090 -0.253677
N93   N     N_R   0.652907 0.878527 0.149034 0.275876
O57   O     O_R   0.664309 0.948960 0.174072 -0.265450
O58   O     O_R   0.617456 0.869804 0.084333 -0.328458
N94   N     N_R   0.811329 0.410181 0.234441 0.257670
O59   O     O_R   0.814394 0.480238 0.262813 -0.267368
O60   O     O_R   0.852150 0.392137 0.174543 -0.336580
N95   N     N_R   0.366729 0.139271 0.148653 0.261016
O61   O     O_R   0.350838 0.092403 0.092251 -0.320030
O62   O     O_R   0.434946 0.136228 0.179770 -0.263853
N96   N     N_R   0.171308 0.627188 0.211461 0.250463
O63   O     O_R   0.116574 0.582587 0.236123 -0.240032
O64   O     O_R   0.165842 0.653125 0.142352 -0.390664

loop_
_geom_bond_atom_site_label_1
_geom_bond_atom_site_label_2
_geom_bond_distance
_ccdc_geom_bond_type
C14   N46   1.427857 S    
C74   C90   1.403353 A    
C98   N82   1.437291 S    
C116  N52   1.156278 T    
C37   H5    1.066075 S    
C20   C77   1.510000 S    
N35   O6    1.299718 A    
C112  N96   1.441771 S    
C68   C77   1.352945 A    
N15   Ni5   1.873110 S    
N82   O35   1.300789 A    
C21   C133  1.470799 S    
C23   C119  1.481264 S    
N32   Ni6   1.879813 S    
C19   C115  1.470047 S    
C9    N41   1.435075 S    
C140  N76   1.155714 T    
C36   N20   1.334281 A    
C55   C86   1.480618 S    
C25   C137  1.465514 S    
C142  N78   1.157455 T    
C8    N40   1.421296 S    
C40   H8    1.066853 S    
C42   C57   1.381900 A    
N16   Ni8   1.879775 S    
C3    N3    1.327613 A    
N96   O63   1.300375 A    
C11   C59   1.398662 A    
N8    N21   1.383411 A    
C73   C89   1.404421 A    
N28   Ni6   1.880024 S    
N45   O26   1.300928 A    
N30   Ni8   1.860457 S    
N43   O21   1.299751 A    
C127  N63   1.154270 T    
C30   C126  1.474076 S    
C19   C78   1.505070 S    
C80   C96   1.386503 A    
C41   C60   1.375185 A    
N37   O10   1.299883 A    
C20   C132  1.477665 S    
N44   O23   1.300797 A    
C67   C78   1.371788 A    
N95   O61   1.300280 A    
C130  N66   1.157890 T    
C23   C135  1.473705 S    
N29   Ni5   1.875955 S    
C47   C62   1.372344 A    
N3    Ni3   1.875699 S    
C18   C114  1.474817 S    
N17   Ni3   1.873359 S    
N92   O55   1.301442 A    
C44   H12   1.073533 S    
C6    N38   1.423464 S    
C62   C93   1.419880 S    
C119  N55   1.157323 T    
N12   Ni8   1.879570 S    
N36   O8    1.296952 A    
C118  N54   1.157470 T    
C38   H6    1.073790 S    
C11   N11   1.341972 A    
N14   Ni6   1.860346 S    
C82   C106  1.412855 A    
C43   N27   1.332815 A    
N6    N23   1.383411 A    
C72   C88   1.401272 A    
N26   Ni8   1.860593 S    
N44   O24   1.295418 A    
N86   O43   1.299525 A    
C97   C112  1.412862 A    
C98   C111  1.401283 A    
C35   N19   1.329428 A    
C31   C127  1.466665 S    
N5    N22   1.391680 A    
N8    Ni4   1.879775 S    
N42   O19   1.299815 A    
C60   C91   1.485925 S    
C17   C113  1.469906 S    
N38   O12   1.299280 A    
N11   Ni7   1.875699 S    
C51   C82   1.426171 S    
C22   C27   1.534463 S    
N10   Ni6   1.860218 S    
C49   C84   1.425805 S    
C81   C105  1.408482 A    
C25   C121  1.482857 S    
C21   C28   1.535279 S    
C53   C88   1.475666 S    
C27   C139  1.468741 S    
N21   Ni1   1.875955 S    
C4    N4    1.334476 A    
C5    N5    1.349827 A    
N41   O17   1.298981 A    
C37   N21   1.319073 A    
C39   H7    1.065268 S    
C31   C143  1.475947 S    
C95   C103  1.410142 A    
C24   C73   1.523135 S    
N40   O15   1.300351 A    
N6    Ni2   1.860346 S    
C72   C73   1.411602 A    
N36   O7    1.301002 A    
C59   C90   1.459510 S    
C129  N65   1.156122 T    
C115  N51   1.156031 T    
C18   C79   1.507784 S    
C57   C92   1.455150 S    
C7    N39   1.436238 S    
C16   C64   1.356908 A    
C135  N71   1.156269 T    
N5    Ni3   1.875228 S    
N48   O32   1.297780 A    
C40   N24   1.315843 A    
C101  N85   1.432736 S    
N15   N32   1.391682 A    
C67   C83   1.392000 A    
N38   O11   1.299437 A    
C125  N61   1.155068 T    
C65   C81   1.378196 A    
C46   C61   1.378801 A    
C27   C123  1.482709 S    
C45   H13   1.074497 S    
N89   O50   1.300711 A    
C34   C49   1.369272 A    
C75   C91   1.401600 A    
N12   N25   1.391675 A    
C12   N44   1.426447 S    
C121  N57   1.157401 T    
N16   N29   1.383411 A    
C123  N59   1.157380 T    
N25   Ni7   1.873359 S    
C45   C64   1.367188 A    
N33   O2    1.300444 A    
C103  N87   1.440847 S    
N27   Ni5   1.875465 S    
N90   O52   1.300761 A    
C117  N53   1.157373 T    
C33   C52   1.350750 A    
C44   N28   1.321085 A    
N88   O48   1.299170 A    
C28   C69   1.522573 S    
C20   C29   1.546373 S    
C48   N32   1.329713 A    
C32   C65   1.490410 S    
C38   N22   1.324305 A    
N81   O34   1.300513 A    
C50   C81   1.404630 S    
C113  N49   1.155450 T    
C2    C50   1.365996 A    
N95   O62   1.300919 A    
N94   O60   1.300505 A    
C54   C85   1.482065 S    
N85   O41   1.300865 A    
C10   N42   1.425159 S    
C86   C110  1.428557 A    
C34   H2    1.075907 S    
C26   C122  1.475607 S    
C122  N58   1.157531 T    
N83   O38   1.301091 A    
C100  N84   1.443679 S    
C35   H3    1.071288 S    
C16   N48   1.436790 S    
C101  C108  1.422001 A    
C87   C111  1.417799 A    
C102  C107  1.388523 A    
N7    N24   1.391680 A    
N91   O54   1.300503 A    
C133  N69   1.155325 T    
C91   C99   1.408176 A    
C42   H10   1.072722 S    
C64   C95   1.423179 S    
N7    Ni1   1.873110 S    
C46   H14   1.064395 S    
C58   C89   1.487875 S    
C4    N36   1.427233 S    
C52   C83   1.405357 S    
C138  N74   1.156190 T    
C15   N15   1.327454 A    
C16   N16   1.334231 A    
C1    N1    1.335885 A    
C30   C142  1.475407 S    
C9    C57   1.391942 A    
C83   C107  1.404200 A    
C7    N7    1.350725 A    
N86   O44   1.300601 A    
N34   O4    1.297816 A    
C15   C63   1.383014 A    
C39   N23   1.321097 A    
C1    C49   1.388157 A    
C19   C131  1.474813 S    
N96   O64   1.299007 A    
C26   C138  1.477603 S    
N1    Ni1   1.872972 S    
N24   Ni2   1.879813 S    
C134  N70   1.157319 T    
C2    N34   1.428722 S    
C22   C118  1.475729 S    
C12   C60   1.398645 A    
C43   H11   1.071251 S    
C124  N60   1.157527 T    
C9    N9    1.341436 A    
C136  N72   1.156679 T    
N37   O9    1.300288 A    
N34   O3    1.300911 A    
C4    C52   1.363941 A    
C41   N25   1.324927 A    
C12   N12   1.358640 A    
C56   C87   1.483637 S    
C13   N13   1.333651 A    
C8    C56   1.405229 A    
C24   C136  1.479087 S    
C45   N29   1.341184 A    
N92   O56   1.300290 A    
C126  N62   1.155421 T    
C6    N6    1.358431 A    
C47   N31   1.343054 A    
N84   O39   1.300969 A    
C33   N17   1.329648 A    
N93   O58   1.296868 A    
C36   C51   1.374204 A    
N46   O27   1.299085 A    
C144  N80   1.157282 T    
C18   C130  1.481206 S    
N22   Ni4   1.860457 S    
C40   C55   1.379358 A    
C10   C58   1.398191 A    
C63   C94   1.412855 S    
C21   C117  1.481746 S    
C139  N75   1.154974 T    
C48   H16   1.077475 S    
C5    N37   1.435636 S    
C23   C26   1.536784 S    
C108  N92   1.443649 S    
C105  N89   1.439674 S    
C66   C82   1.385963 A    
N42   O20   1.299152 A    
C114  N50   1.156628 T    
N10   N27   1.391673 A    
C70   C86   1.401089 A    
N87   O45   1.300497 A    
N14   N31   1.383412 A    
N47   O29   1.299750 A    
N4    Ni4   1.879570 S    
N2    N19   1.391673 A    
N9    N26   1.383418 A    
C103  C106  1.412573 A    
C24   C120  1.475836 S    
C17   C129  1.472030 S    
C42   N26   1.324816 A    
C20   C116  1.473010 S    
C26   C71   1.524129 S    
C28   C140  1.476855 S    
C3    N35   1.426258 S    
C46   N30   1.336495 A    
C13   N45   1.432994 S    
C30   C67   1.502323 S    
C84   C108  1.417441 A    
C107  N91   1.434035 S    
C34   N18   1.334234 A    
C32   C144  1.475216 S    
N40   O16   1.298826 A    
C94   C102  1.412012 A    
C85   C109  1.417565 A    
C68   C84   1.380806 A    
C13   C61   1.381934 A    
C102  N86   1.435098 S    
N39   O13   1.300723 A    
N94   O59   1.301693 A    
C17   C80   1.503418 S    
N9    Ni5   1.872972 S    
C131  N67   1.155567 T    
C5    C53   1.413075 A    
C100  C109  1.403989 A    
C43   C58   1.378820 A    
C79   C95   1.395565 A    
N82   O36   1.301021 A    
C7    C55   1.423640 A    
C65   C80   1.347045 A    
C11   N43   1.436249 S    
C66   C79   1.362413 A    
N89   O49   1.300449 A    
N19   Ni1   1.875465 S    
N43   O22   1.300220 A    
C17   C32   1.567571 S    
C18   C31   1.541115 S    
C92   C100  1.409815 A    
C19   C30   1.551694 S    
C93   C101  1.412378 A    
C109  N93   1.441172 S    
N91   O53   1.300078 A    
C96   C104  1.423767 A    
C2    N2    1.334014 A    
N33   O1    1.300961 A    
C106  N90   1.431112 S    
C22   C134  1.480770 S    
C47   H15   1.075483 S    
N45   O25   1.300869 A    
C48   C63   1.380918 A    
C33   H1    1.068532 S    
C88   C112  1.425056 A    
N1    N18   1.383418 A    
C32   C128  1.473992 S    
C29   C141  1.478127 S    
C99   C110  1.405395 A    
C41   H9    1.065331 S    
C78   C94   1.389664 A    
C132  N68   1.157500 T    
N13   Ni7   1.875228 S    
C15   N47   1.431885 S    
C8    N8    1.359260 A    
N35   O5    1.300975 A    
N41   O18   1.300307 A    
C90   C98   1.412384 A    
C137  N73   1.153761 T    
C36   H4    1.075743 S    
C89   C97   1.408370 A    
C10   N10   1.354411 A    
N4    N17   1.391675 A    
C6    C54   1.405662 A    
C25   C72   1.495539 S    
C14   N14   1.325418 A    
C27   C70   1.500622 S    
N23   Ni3   1.873214 S    
C29   C68   1.501308 S    
N31   Ni7   1.873214 S    
C97   N81   1.442103 S    
C76   C92   1.402281 A    
C77   C93   1.389345 A    
C69   C85   1.406250 A    
N48   O31   1.300840 A    
C31   C66   1.510399 S    
C71   C87   1.404703 A    
C3    C51   1.382434 A    
N81   O33   1.301386 A    
C38   C53   1.380231 A    
C141  N77   1.157144 T    
N11   N28   1.383419 A    
N87   O46   1.301531 A    
C37   C56   1.365474 A    
C24   C25   1.533849 S    
N47   O30   1.299959 A    
C110  N94   1.427816 S    
C39   C54   1.366200 A    
N13   N30   1.391680 A    
C99   N83   1.439983 S    
N3    N20   1.383419 A    
C28   C124  1.475828 S    
C29   C125  1.466475 S    
N90   O51   1.300627 A    
C14   C62   1.355542 A    
N88   O47   1.300422 A    
N18   Ni4   1.860593 S    
C128  N64   1.156735 T    
C23   C74   1.498429 S    
C21   C76   1.497141 S    
N20   Ni2   1.880024 S    
C22   C75   1.519101 S    
C71   C74   1.404146 A    
N85   O42   1.300740 A    
C69   C76   1.405057 A    
C104  N88   1.433238 S    
C70   C75   1.411250 A    
C35   C50   1.351879 A    
C1    N33   1.431088 S    
C61   C96   1.424472 S    
N84   O40   1.301151 A    
N93   O57   1.301865 A    
C104  C105  1.401926 A    
N39   O14   1.299404 A    
N83   O37   1.301339 A    
N46   O28   1.300173 A    
C120  N56   1.157508 T    
C44   C59   1.384017 A    
N2    Ni2   1.860218 S    
C143  N79   1.156013 T    
C111  N95   1.435790 S    
