data_mof_unit_17792.cif
_audit_creation_date              2013-03-05T15:54:53-0500
_audit_creation_method            fapswitch 2.2
_symmetry_space_group_name_H-M    P1
_symmetry_Int_Tables_number       1
_space_group_crystal_system       triclinic
_cell_length_a                    16.982386
_cell_length_b                    17.229655
_cell_length_c                    17.291708
_cell_angle_alpha                 89.999705
_cell_angle_beta                  90.003341
_cell_angle_gamma                 89.99988
_cell_volume                      5059.56502384

loop_
_atom_site_label
_atom_site_type_symbol
_atom_site_description
_atom_site_fract_x
_atom_site_fract_y
_atom_site_fract_z
_atom_type_partial_charge
C1    C     C_R   0.392901 0.301872 0.901372 0.013553
C2    C     C_R   0.667592 0.425831 0.854477 -0.043879
C3    C     C_R   0.607098 0.698132 0.901385 0.013354
C4    C     C_R   0.332410 0.574161 0.854472 -0.043958
C5    C     C_R   0.392882 0.698131 0.098598 0.014032
C6    C     C_R   0.667683 0.574253 0.145481 -0.043971
C7    C     C_R   0.607123 0.301865 0.098586 0.013448
C8    C     C_R   0.332416 0.425850 0.145526 -0.043919
C9    C     C_R   0.892957 0.801871 0.401355 0.016748
C10   C     C_R   0.167591 0.925821 0.354476 -0.043674
C11   C     C_R   0.107104 0.198123 0.401380 0.013317
C12   C     C_R   0.832415 0.074151 0.354467 -0.043712
C13   C     C_R   0.892894 0.198132 0.598610 0.013256
C14   C     C_R   0.167585 0.074151 0.645529 -0.043917
C15   C     C_R   0.107105 0.801868 0.598610 0.012051
C16   C     C_R   0.832412 0.925831 0.645526 -0.044183
H1    H     H_    0.420626 0.246677 0.912106 0.124971
H2    H     H_    0.710201 0.468222 0.836564 0.154813
H3    H     H_    0.579373 0.753326 0.912121 0.124970
H4    H     H_    0.289801 0.531769 0.836557 0.154782
H5    H     H_    0.420598 0.753328 0.087852 0.124981
H6    H     H_    0.710311 0.531876 0.163379 0.155277
H7    H     H_    0.579408 0.246670 0.087823 0.125168
H8    H     H_    0.289789 0.468229 0.163428 0.154618
H9    H     H_    0.921005 0.746787 0.411710 0.131232
H10   H     H_    0.210192 0.968215 0.336552 0.154588
H11   H     H_    0.079396 0.253314 0.412137 0.125128
H12   H     H_    0.789816 0.031742 0.336558 0.154844
H13   H     H_    0.920615 0.253327 0.587870 0.124849
H14   H     H_    0.210197 0.031760 0.663440 0.154784
H15   H     H_    0.079381 0.746675 0.587865 0.125216
H16   H     H_    0.789801 0.968220 0.663439 0.154898
N1    N     N_R   0.425360 0.368540 0.922560 -0.069289
N2    N     N_R   0.631460 0.425360 0.922560 -0.059666
N3    N     N_R   0.574640 0.631460 0.922560 -0.069260
N4    N     N_R   0.368540 0.574640 0.922560 -0.059650
N5    N     N_R   0.425360 0.631460 0.077440 -0.069233
N6    N     N_R   0.631460 0.574640 0.077440 -0.059902
N7    N     N_R   0.574640 0.368540 0.077440 -0.069339
N8    N     N_R   0.368540 0.425360 0.077440 -0.059606
N9    N     N_R   0.925360 0.868540 0.422560 -0.070085
N10   N     N_R   0.131460 0.925360 0.422560 -0.059488
N11   N     N_R   0.074640 0.131460 0.422560 -0.069208
N12   N     N_R   0.868540 0.074640 0.422560 -0.059634
N13   N     N_R   0.925360 0.131460 0.577440 -0.069294
N14   N     N_R   0.131460 0.074640 0.577440 -0.059686
N15   N     N_R   0.074640 0.868540 0.577440 -0.069433
N16   N     N_R   0.868540 0.925360 0.577440 -0.059667
C17   C     C_3   0.865760 0.344384 0.698665 0.701753
C18   C     C_3   0.681916 0.892542 0.744556 0.723297
C19   C     C_3   0.134234 0.655611 0.698651 0.701393
C20   C     C_3   0.318088 0.107452 0.744552 0.723479
C21   C     C_3   0.865658 0.655036 0.301993 0.690528
C22   C     C_3   0.681972 0.107379 0.255302 0.723581
C23   C     C_3   0.134194 0.344223 0.301164 0.703652
C24   C     C_3   0.318040 0.892579 0.255354 0.723337
C25   C     C_3   0.365719 0.844421 0.198582 0.701746
C26   C     C_3   0.181873 0.392479 0.244474 0.723909
C27   C     C_3   0.634299 0.155528 0.198511 0.702021
C28   C     C_3   0.817990 0.607247 0.244967 0.723433
C29   C     C_3   0.365783 0.155641 0.801290 0.701898
C30   C     C_3   0.181924 0.607438 0.755409 0.723615
C31   C     C_3   0.634220 0.844361 0.801296 0.701991
C32   C     C_3   0.818074 0.392554 0.755422 0.723679
C33   C     C_R   0.420119 0.670432 0.855408 -0.015863
C34   C     C_R   0.301307 0.392647 0.897600 -0.061648
C35   C     C_R   0.579882 0.329561 0.855413 -0.015918
C36   C     C_R   0.698692 0.607357 0.897606 -0.061393
C37   C     C_R   0.420152 0.329603 0.144616 -0.016289
C38   C     C_R   0.301301 0.607348 0.102377 -0.062258
C39   C     C_R   0.579922 0.670490 0.144548 -0.017257
C40   C     C_R   0.698700 0.392650 0.102395 -0.061853
C41   C     C_R   0.920125 0.170422 0.355402 -0.016557
C42   C     C_R   0.801292 0.892567 0.397712 -0.063587
C43   C     C_R   0.079906 0.829523 0.355440 -0.022256
C44   C     C_R   0.198693 0.107345 0.397605 -0.061502
C45   C     C_R   0.920127 0.829565 0.644593 -0.011131
C46   C     C_R   0.801306 0.107354 0.602394 -0.061594
C47   C     C_R   0.079870 0.170416 0.644601 -0.016060
C48   C     C_R   0.198696 0.892643 0.602393 -0.061463
H17   H     H_    0.456122 0.719555 0.839386 0.178065
H18   H     H_    0.245355 0.421938 0.899534 0.185498
H19   H     H_    0.543879 0.280436 0.839392 0.178072
H20   H     H_    0.754645 0.578065 0.899526 0.185472
H21   H     H_    0.456173 0.280497 0.160655 0.178091
H22   H     H_    0.245356 0.578047 0.100432 0.185573
H23   H     H_    0.543903 0.719606 0.160559 0.178226
H24   H     H_    0.754647 0.421954 0.100479 0.185426
H25   H     H_    0.956137 0.219536 0.339375 0.178252
H26   H     H_    0.745338 0.921848 0.399690 0.185774
H27   H     H_    0.043958 0.780337 0.339462 0.170220
H28   H     H_    0.254642 0.078053 0.399556 0.185551
H29   H     H_    0.956134 0.780443 0.660614 0.178030
H30   H     H_    0.745354 0.078058 0.600473 0.185473
H31   H     H_    0.043861 0.219533 0.660630 0.178079
H32   H     H_    0.254650 0.921935 0.600470 0.185441
N17   N     N_R   0.425340 0.631500 0.922560 -0.075249
N18   N     N_R   0.368500 0.425340 0.922560 -0.069726
N19   N     N_R   0.574660 0.368500 0.922560 -0.075240
N20   N     N_R   0.631500 0.574660 0.922560 -0.069744
N21   N     N_R   0.425340 0.368500 0.077440 -0.075174
N22   N     N_R   0.368500 0.574660 0.077440 -0.069649
N23   N     N_R   0.574660 0.631500 0.077440 -0.075211
N24   N     N_R   0.631500 0.425340 0.077440 -0.069710
N25   N     N_R   0.925340 0.131500 0.422560 -0.075213
N26   N     N_R   0.868500 0.925340 0.422560 -0.069630
N27   N     N_R   0.074660 0.868500 0.422560 -0.074843
N28   N     N_R   0.131500 0.074660 0.422560 -0.069720
N29   N     N_R   0.925340 0.868500 0.577440 -0.074949
N30   N     N_R   0.868500 0.074660 0.577440 -0.069772
N31   N     N_R   0.074660 0.131500 0.577440 -0.075223
N32   N     N_R   0.131500 0.925340 0.577440 -0.069771
Ni1   Ni    Ni4+2 0.500000 0.369720 0.000000 0.262537
Ni2   Ni    Ni4+2 0.630280 0.500000 0.000000 0.297448
Ni3   Ni    Ni4+2 0.500000 0.630280 0.000000 0.262498
Ni4   Ni    Ni4+2 0.369720 0.500000 0.000000 0.297656
Ni5   Ni    Ni4+2 0.000000 0.869720 0.500000 0.262890
Ni6   Ni    Ni4+2 0.130280 0.000000 0.500000 0.297505
Ni7   Ni    Ni4+2 0.000000 0.130280 0.500000 0.262398
Ni8   Ni    Ni4+2 0.869720 0.000000 0.500000 0.297865
C49   C     C_R   0.314791 0.314263 0.884021 0.135260
C50   C     C_R   0.637785 0.365773 0.810865 0.110680
C51   C     C_R   0.685208 0.685744 0.884047 0.135388
C52   C     C_R   0.362217 0.634215 0.810858 0.110655
C53   C     C_R   0.314767 0.685736 0.115935 0.134699
C54   C     C_R   0.637868 0.634326 0.189081 0.112307
C55   C     C_R   0.685238 0.314253 0.115936 0.135173
C56   C     C_R   0.362232 0.365810 0.189148 0.110447
C57   C     C_R   0.814778 0.814150 0.384172 0.136827
C58   C     C_R   0.137793 0.865743 0.310882 0.113672
C59   C     C_R   0.185208 0.185723 0.384025 0.135223
C60   C     C_R   0.862228 0.134202 0.310846 0.110652
C61   C     C_R   0.814783 0.185743 0.615954 0.135364
C62   C     C_R   0.137775 0.134197 0.689145 0.110609
C63   C     C_R   0.185218 0.814254 0.615954 0.135422
C64   C     C_R   0.862220 0.865771 0.689139 0.109075
C65   C     C_R   0.745697 0.363061 0.714469 -0.153117
C66   C     C_R   0.711344 0.818721 0.836246 -0.170864
C67   C     C_R   0.254299 0.636924 0.714456 -0.153330
C68   C     C_R   0.288661 0.181275 0.836241 -0.170632
C69   C     C_R   0.745598 0.636897 0.285692 -0.170712
C70   C     C_R   0.711427 0.181221 0.163623 -0.170577
C71   C     C_R   0.254254 0.363046 0.285478 -0.154243
C72   C     C_R   0.288587 0.818730 0.163684 -0.170198
C73   C     C_R   0.245657 0.863052 0.214436 -0.153403
C74   C     C_R   0.211311 0.318673 0.336175 -0.171668
C75   C     C_R   0.754354 0.136893 0.214385 -0.153678
C76   C     C_R   0.788432 0.680940 0.336726 -0.139311
C77   C     C_R   0.245717 0.136925 0.785521 -0.153500
C78   C     C_R   0.211360 0.681258 0.663717 -0.171289
C79   C     C_R   0.754289 0.863048 0.785516 -0.153394
C80   C     C_R   0.788634 0.318735 0.663726 -0.171533
C81   C     C_R   0.669023 0.342178 0.735453 -0.035095
C82   C     C_R   0.741092 0.747566 0.862312 -0.033663
C83   C     C_R   0.330977 0.657802 0.735442 -0.035140
C84   C     C_R   0.258908 0.252443 0.862267 -0.033689
C85   C     C_R   0.669018 0.657901 0.264535 -0.033189
C86   C     C_R   0.741148 0.252427 0.137656 -0.033711
C87   C     C_R   0.330944 0.342184 0.264524 -0.034692
C88   C     C_R   0.258860 0.747541 0.137681 -0.033498
C89   C     C_R   0.169009 0.842135 0.235471 -0.035399
C90   C     C_R   0.241081 0.247530 0.362243 -0.033401
C91   C     C_R   0.831014 0.157786 0.235413 -0.035190
C92   C     C_R   0.758826 0.752271 0.362568 -0.033981
C93   C     C_R   0.169032 0.157792 0.764547 -0.035101
C94   C     C_R   0.241107 0.752429 0.637690 -0.033988
C95   C     C_R   0.830965 0.842160 0.764542 -0.034651
C96   C     C_R   0.758891 0.247564 0.637694 -0.033772
C97   C     C_R   0.129049 0.788909 0.186783 0.207200
C98   C     C_R   0.324348 0.237330 0.359148 0.218119
C99   C     C_R   0.870970 0.210983 0.186691 0.209939
C100  C     C_R   0.675577 0.762640 0.359264 0.214928
C101  C     C_R   0.129084 0.210982 0.813274 0.210003
C102  C     C_R   0.324379 0.762634 0.640799 0.217921
C103  C     C_R   0.870918 0.788987 0.813302 0.210042
C104  C     C_R   0.675620 0.237354 0.640798 0.217868
C105  C     C_R   0.629066 0.289006 0.686700 0.210029
C106  C     C_R   0.824364 0.737366 0.859246 0.218303
C107  C     C_R   0.370934 0.710973 0.686694 0.209975
C108  C     C_R   0.175637 0.262649 0.859156 0.217987
C109  C     C_R   0.629036 0.711076 0.313252 0.209845
C110  C     C_R   0.824415 0.262662 0.140816 0.217641
C111  C     C_R   0.370886 0.288970 0.313230 0.209840
C112  C     C_R   0.175595 0.737285 0.140847 0.217371
F1    F     F_    0.907946 0.284944 0.733289 -0.641443
F2    F     F_    0.671904 0.972058 0.752865 -0.614690
F3    F     F_    0.092052 0.715050 0.733278 -0.641435
F4    F     F_    0.328124 0.027938 0.752851 -0.614665
F5    F     F_    0.908402 0.714368 0.267989 -0.649575
F6    F     F_    0.671995 0.027857 0.247013 -0.614775
F7    F     F_    0.092149 0.284721 0.266474 -0.641251
F8    F     F_    0.328013 0.972099 0.247047 -0.614617
F9    F     F_    0.407955 0.785013 0.233203 -0.641600
F10   F     F_    0.171768 0.471981 0.252798 -0.615155
F11   F     F_    0.592069 0.214948 0.233102 -0.641680
F12   F     F_    0.827536 0.527676 0.253364 -0.619325
F13   F     F_    0.407948 0.215084 0.766645 -0.641464
F14   F     F_    0.171908 0.527921 0.747116 -0.614736
F15   F     F_    0.592045 0.784921 0.766654 -0.641422
F16   F     F_    0.828080 0.472071 0.747126 -0.614031
N33   N     N_R   0.913907 0.391323 0.646050 0.247648
O1    O     O_R   0.990317 0.387355 0.649651 -0.256817
O2    O     O_R   0.881290 0.438105 0.596323 -0.255389
N34   N     N_R   0.672875 0.866428 0.664381 0.238880
O3    O     O_R   0.641864 0.912976 0.613596 -0.215271
O4    O     O_R   0.692476 0.796322 0.643797 -0.305163
N35   N     N_R   0.086082 0.608679 0.646031 0.247778
O5    O     O_R   0.009673 0.612678 0.649598 -0.252326
O6    O     O_R   0.118695 0.561894 0.596307 -0.258391
N36   N     N_R   0.327102 0.133580 0.664378 0.238888
O7    O     O_R   0.358090 0.087041 0.613575 -0.215278
O8    O     O_R   0.307490 0.203689 0.643811 -0.306684
N37   N     N_R   0.913869 0.607205 0.353666 0.247075
O9    O     O_R   0.979349 0.577524 0.328205 -0.197947
O10   O     O_R   0.892850 0.594585 0.424981 -0.306290
N38   N     N_R   0.672874 0.133524 0.335462 0.238944
O11   O     O_R   0.641814 0.087004 0.386241 -0.214991
O12   O     O_R   0.692453 0.203641 0.356032 -0.307249
N39   N     N_R   0.085914 0.391041 0.353763 0.248646
O13   O     O_R   0.009527 0.386275 0.350692 -0.259408
O14   O     O_R   0.118386 0.438152 0.403272 -0.259122
N40   N     N_R   0.327141 0.866455 0.335521 0.238865
O15   O     O_R   0.358195 0.912993 0.386291 -0.214908
O16   O     O_R   0.307574 0.796340 0.356107 -0.307884
N41   N     N_R   0.413816 0.891371 0.145934 0.247731
O17   O     O_R   0.490230 0.887457 0.149512 -0.256836
O18   O     O_R   0.381150 0.938103 0.096190 -0.257267
N42   N     N_R   0.172914 0.366384 0.164284 0.238905
O19   O     O_R   0.141898 0.412924 0.113495 -0.214676
O20   O     O_R   0.192593 0.296303 0.143688 -0.306775
N43   N     N_R   0.586206 0.108575 0.145857 0.247738
O21   O     O_R   0.509792 0.112526 0.149387 -0.256736
O22   O     O_R   0.618876 0.061811 0.096149 -0.257313
N44   N     N_R   0.827476 0.633443 0.164876 0.240591
O23   O     O_R   0.858560 0.586882 0.114150 -0.213488
O24   O     O_R   0.808301 0.703681 0.144354 -0.306017
N45   N     N_R   0.413958 0.108718 0.853899 0.247682
O25   O     O_R   0.490366 0.112659 0.850244 -0.256886
O26   O     O_R   0.381367 0.061978 0.903679 -0.257253
N46   N     N_R   0.172881 0.633571 0.835578 0.238889
O27   O     O_R   0.141867 0.587038 0.886371 -0.215151
O28   O     O_R   0.192482 0.703682 0.856148 -0.306632
N47   N     N_R   0.586057 0.891290 0.853904 0.247672
O29   O     O_R   0.509648 0.887357 0.850248 -0.256857
O30   O     O_R   0.618659 0.938025 0.903684 -0.257330
N48   N     N_R   0.827130 0.366423 0.835591 0.238808
O31   O     O_R   0.858167 0.412954 0.886376 -0.215113
O32   O     O_R   0.807531 0.296314 0.856167 -0.306722
N49   N     N_R   0.043970 0.791435 0.180997 0.274645
O33   O     O_R   0.006172 0.852939 0.204133 -0.315675
O34   O     O_R   0.005351 0.741082 0.139782 -0.176444
N50   N     N_R   0.360808 0.175221 0.400594 0.252832
O35   O     O_R   0.396193 0.119540 0.363409 -0.224780
O36   O     O_R   0.354152 0.171589 0.475366 -0.254172
N51   N     N_R   0.956035 0.208342 0.180749 0.275754
O37   O     O_R   0.993832 0.146961 0.204211 -0.315848
O38   O     O_R   0.994556 0.258263 0.138928 -0.175831
N52   N     N_R   0.639139 0.824882 0.400526 0.253222
O39   O     O_R   0.603492 0.880303 0.363202 -0.224640
O40   O     O_R   0.645760 0.828716 0.475290 -0.253163
N53   N     N_R   0.044020 0.208360 0.819179 0.275482
O41   O     O_R   0.006247 0.146859 0.795988 -0.315910
O42   O     O_R   0.005428 0.258592 0.860574 -0.175754
N54   N     N_R   0.360827 0.824835 0.599479 0.252836
O43   O     O_R   0.396621 0.880198 0.636750 -0.224445
O44   O     O_R   0.354034 0.828717 0.524730 -0.254653
N55   N     N_R   0.955983 0.791608 0.819201 0.275397
O45   O     O_R   0.993755 0.853095 0.795970 -0.316169
O46   O     O_R   0.994580 0.741404 0.860635 -0.175808
N56   N     N_R   0.639172 0.175162 0.599460 0.252841
O47   O     O_R   0.603384 0.119787 0.636717 -0.224455
O48   O     O_R   0.645980 0.171286 0.524712 -0.254689
N57   N     N_R   0.544000 0.291646 0.680763 0.275620
O49   O     O_R   0.506210 0.353047 0.704179 -0.316031
O50   O     O_R   0.505456 0.241665 0.639031 -0.175985
N58   N     N_R   0.860808 0.675238 0.900694 0.252932
O51   O     O_R   0.896524 0.619761 0.863519 -0.224330
O52   O     O_R   0.853842 0.671389 0.975431 -0.255226
N59   N     N_R   0.455999 0.708329 0.680760 0.275645
O53   O     O_R   0.493789 0.646930 0.704184 -0.315860
O54   O     O_R   0.494541 0.758303 0.639021 -0.175831
N60   N     N_R   0.139185 0.324837 0.900483 0.252817
O55   O     O_R   0.103525 0.380288 0.863214 -0.224565
O56   O     O_R   0.145863 0.328628 0.975245 -0.254100
N61   N     N_R   0.543964 0.708496 0.319076 0.275734
O57   O     O_R   0.506179 0.647052 0.295751 -0.316289
O58   O     O_R   0.505385 0.758613 0.360625 -0.175638
N62   N     N_R   0.860861 0.324920 0.099581 0.252799
O59   O     O_R   0.896656 0.380233 0.136925 -0.223892
O60   O     O_R   0.854142 0.328858 0.024829 -0.254283
N63   N     N_R   0.455949 0.291543 0.319048 0.275011
O61   O     O_R   0.493679 0.353268 0.296361 -0.316024
O62   O     O_R   0.494672 0.240730 0.359667 -0.175586
N64   N     N_R   0.139144 0.675095 0.099510 0.252901
O63   O     O_R   0.103588 0.619582 0.136777 -0.225281
O64   O     O_R   0.145798 0.671326 0.024745 -0.253794

loop_
_geom_bond_atom_site_label_1
_geom_bond_atom_site_label_2
_geom_bond_distance
_ccdc_geom_bond_type
C4    N4    1.327643 A    
C43   N27   1.343874 A    
C5    N5    1.325770 A    
N21   Ni1   1.844270 S    
N63   O61   1.302129 A    
N51   O38   1.300286 A    
N16   Ni8   1.856703 S    
C7    C55   1.376715 A    
C22   N38   1.465646 S    
N60   O55   1.301842 A    
C20   C29   1.519185 S    
N5    N22   1.374834 A    
N6    Ni2   1.856710 S    
C44   C59   1.389700 A    
C24   C25   1.519177 S    
C97   N49   1.448956 S    
C26   C71   1.506888 S    
C27   C70   1.508510 S    
C20   C77   1.506785 S    
N3    Ni3   1.844027 S    
N4    N17   1.374856 A    
C30   C67   1.506782 S    
C72   C88   1.400528 A    
C18   F2    1.387990 S    
C66   C82   1.400483 A    
C20   N36   1.465616 S    
N44   O24   1.302483 A    
C70   C86   1.400564 A    
N42   O19   1.300645 A    
C3    C51   1.376608 A    
C17   N33   1.466422 S    
N37   O10   1.302081 A    
C94   C102  1.426060 A    
N29   Ni5   1.844270 S    
C29   F13   1.385860 S    
C27   F11   1.385746 S    
C57   C92   1.476169 S    
C23   F7    1.385865 S    
C28   C69   1.506107 S    
C34   H18   1.076434 S    
C11   H11   1.077167 S    
C48   N32   1.343774 A    
N2    N19   1.374855 A    
C62   C93   1.465237 S    
C65   C81   1.398807 A    
C68   C84   1.400525 A    
C69   C85   1.398609 A    
C32   F16   1.387989 S    
N56   O48   1.299400 A    
C12   C60   1.376893 A    
C13   C61   1.376660 A    
C72   C73   1.372917 A    
C37   N21   1.343955 A    
C66   C79   1.372873 A    
C67   C78   1.372919 A    
C9    N9    1.325415 A    
C42   H26   1.076407 S    
C60   C91   1.465397 S    
C111  N63   1.448739 S    
N61   O58   1.300415 A    
C13   N13   1.325750 A    
C84   C108  1.426042 A    
C73   C89   1.398781 A    
C46   H30   1.076458 S    
C79   C95   1.398802 A    
C63   C94   1.475397 S    
N11   N28   1.374832 A    
N59   O54   1.300277 A    
C4    H4    1.073792 S    
C32   N48   1.465617 S    
C12   N12   1.327679 A    
C7    N7    1.325786 A    
C8    N8    1.327623 A    
N50   O35   1.301896 A    
C51   C82   1.475319 S    
C35   H19   1.080258 S    
C49   C84   1.475341 S    
C27   N43   1.466425 S    
C53   C88   1.475405 S    
N7    N24   1.374834 A    
N12   N25   1.374856 A    
N49   O33   1.301934 A    
C48   C63   1.389789 A    
N63   O62   1.300837 A    
N38   O12   1.302513 A    
N53   O41   1.301972 A    
C19   N35   1.466436 S    
C42   N26   1.343914 A    
C78   C94   1.400522 A    
C4    C52   1.376814 A    
N31   Ni7   1.844161 S    
C33   C52   1.396298 A    
C24   C73   1.506769 S    
N8    N21   1.374852 A    
C100  C109  1.430718 A    
C8    C56   1.376742 A    
C19   C78   1.508568 S    
N54   O43   1.301820 A    
N7    Ni1   1.843920 S    
C6    N6    1.327640 A    
C39   C54   1.396238 A    
C67   C83   1.398814 A    
C43   H27   1.080367 S    
C89   C97   1.417842 A    
C41   C60   1.396317 A    
C17   C32   1.519192 S    
N45   O25   1.300911 A    
C18   C31   1.519198 S    
N33   O2    1.302245 A    
C19   C30   1.519193 S    
C36   C51   1.389779 A    
C21   C28   1.518404 S    
N41   O17   1.300912 A    
C22   C27   1.519188 S    
N41   O18   1.302245 A    
C81   C105  1.417884 A    
C40   C55   1.389819 A    
C76   C92   1.401055 A    
N20   Ni2   1.856948 S    
C61   C96   1.475415 S    
C23   N39   1.466386 S    
C59   C90   1.475215 S    
C21   C76   1.509947 S    
N62   O60   1.299378 A    
C45   N29   1.343950 A    
C36   N20   1.343749 A    
C97   C112  1.430724 A    
N6    N23   1.374852 A    
C41   N25   1.343921 A    
C3    N3    1.325717 A    
C98   N50   1.429030 S    
N40   O16   1.302514 A    
N36   O8    1.302513 A    
C50   C81   1.465332 S    
C92   C100  1.426160 A    
N17   Ni3   1.844162 S    
C108  N60   1.429006 S    
N3    N20   1.374832 A    
C16   C64   1.376860 A    
C37   H21   1.080254 S    
C95   C103  1.417928 A    
C54   C85   1.465293 S    
C96   C104  1.426061 A    
C47   C62   1.396298 A    
C39   N23   1.343824 A    
N48   O31   1.300647 A    
C21   N37   1.465527 S    
C22   F6    1.387981 S    
C25   C72   1.508579 S    
C70   C75   1.373002 A    
N34   O4    1.302512 A    
N55   O45   1.301988 A    
C29   C68   1.508578 S    
C15   H15   1.077268 S    
C64   C95   1.465368 S    
C16   H16   1.073794 S    
N1    Ni1   1.843921 S    
C34   N18   1.343742 A    
N52   O39   1.301840 A    
C37   C56   1.396319 A    
C75   C91   1.398794 A    
C2    N2    1.327647 A    
C7    H7    1.077278 S    
N46   O27   1.300648 A    
C8    H8    1.073811 S    
C1    C49   1.376635 A    
C17   F1    1.385822 S    
N34   O3    1.300646 A    
C52   C83   1.465305 S    
C5    C53   1.376708 A    
N35   O6    1.302242 A    
C20   F4    1.387988 S    
N9    Ni5   1.843921 S    
C21   F5    1.384820 S    
C68   C77   1.372908 A    
C56   C87   1.465233 S    
N11   Ni7   1.844027 S    
N4    Ni4   1.856700 S    
C71   C74   1.372917 A    
C24   F8    1.387986 S    
C10   N10   1.327653 A    
N42   O20   1.302512 A    
C9    H9    1.076886 S    
C14   N14   1.327618 A    
N37   O9    1.300766 A    
C74   C90   1.400455 A    
C12   H12   1.073851 S    
C13   H13   1.077274 S    
C77   C93   1.398806 A    
N64   O63   1.301831 A    
N12   Ni8   1.856700 S    
N47   O29   1.300912 A    
C6    H6    1.073745 S    
C30   N46   1.465625 S    
N14   Ni6   1.856710 S    
N59   O53   1.301931 A    
C65   C80   1.372923 A    
C45   C64   1.396300 A    
C91   C99   1.417872 A    
N10   N27   1.374855 A    
C109  N61   1.448920 S    
C43   C58   1.396266 A    
C35   N19   1.343927 A    
N13   Ni7   1.844029 S    
C44   N28   1.343681 A    
N14   N31   1.374853 A    
C85   C109  1.417797 A    
C80   C96   1.400518 A    
C83   C107  1.417866 A    
C103  C106  1.430830 A    
C32   C65   1.506770 S    
C2    C50   1.376836 A    
N9    N26   1.374831 A    
C104  N56   1.429069 S    
N35   O5    1.300915 A    
C36   H20   1.076445 S    
C28   N44   1.465485 S    
C6    C54   1.376996 A    
C112  N64   1.429045 S    
N39   O13   1.300913 A    
N13   N30   1.374834 A    
N10   Ni6   1.856713 S    
C23   C74   1.508422 S    
C40   N24   1.343787 A    
C101  C108  1.430679 A    
C26   F10   1.387982 S    
C5    H5    1.077271 S    
N23   Ni3   1.844161 S    
C10   C58   1.376870 A    
C47   H31   1.080256 S    
N61   O57   1.301982 A    
C33   H17   1.080257 S    
C90   C98   1.425953 A    
C34   C49   1.389781 A    
N43   O22   1.302248 A    
C55   C86   1.475558 S    
N60   O56   1.299360 A    
C39   H23   1.080257 S    
C38   C53   1.389730 A    
C18   N34   1.465601 S    
C82   C106  1.426028 A    
N44   O23   1.300646 A    
C100  N52   1.429018 S    
N50   O36   1.299383 A    
C106  N58   1.429148 S    
C17   C80   1.508553 S    
C1    H1    1.077268 S    
N19   Ni1   1.844269 S    
C38   N22   1.343708 A    
C71   C87   1.398828 A    
N5    Ni3   1.844029 S    
C41   H25   1.080241 S    
C24   N40   1.465638 S    
N55   O46   1.300431 A    
C103  N55   1.448910 S    
C45   H29   1.080258 S    
C46   C61   1.389790 A    
C19   F3    1.385833 S    
C110  N62   1.429038 S    
C33   N17   1.343920 A    
N54   O44   1.299390 A    
C23   C26   1.519188 S    
C99   N51   1.448976 S    
N56   O47   1.301821 A    
N25   Ni7   1.844162 S    
N27   Ni5   1.844269 S    
N32   Ni6   1.856947 S    
C98   C111  1.430639 A    
C2    H2    1.073793 S    
N33   O1    1.300912 A    
C99   C110  1.430771 A    
C15   N15   1.325727 A    
C16   N16   1.327660 A    
C1    N1    1.325714 A    
C15   C63   1.376643 A    
C93   C101  1.417784 A    
N15   N32   1.374835 A    
N1    N18   1.374831 A    
C69   C76   1.372463 A    
N57   O50   1.300279 A    
N47   O30   1.302245 A    
C11   N11   1.325647 A    
C48   H32   1.076458 S    
C101  N53   1.448904 S    
C10   H10   1.073794 S    
N16   N29   1.374852 A    
C107  N59   1.448978 S    
C14   H14   1.073792 S    
C18   C79   1.506785 S    
C40   H24   1.076454 S    
C105  N57   1.448978 S    
N48   O32   1.302512 A    
N49   O34   1.300260 A    
N28   Ni6   1.856948 S    
N38   O11   1.300651 A    
C30   F14   1.387986 S    
N30   Ni8   1.856958 S    
N53   O42   1.300378 A    
C14   C62   1.376764 A    
C25   F9    1.385825 S    
N52   O40   1.299351 A    
N39   O14   1.302243 A    
N18   Ni4   1.856957 S    
C31   N47   1.466419 S    
C3    H3    1.077275 S    
N46   O28   1.302511 A    
N57   O49   1.301930 A    
C46   N30   1.343769 A    
N58   O51   1.301847 A    
C86   C110  1.426076 A    
C44   H28   1.076401 S    
N24   Ni2   1.856947 S    
C58   C89   1.465249 S    
C104  C105  1.430780 A    
N58   O52   1.299443 A    
N45   O26   1.302243 A    
C31   C66   1.508560 S    
C42   C57   1.390220 A    
N51   O37   1.301932 A    
C38   H22   1.076414 S    
C35   C50   1.396306 A    
C26   N42   1.465595 S    
C28   F12   1.388146 S    
N26   Ni8   1.856957 S    
C11   C59   1.376612 A    
C9    C57   1.376841 A    
N2    Ni2   1.856713 S    
C47   N31   1.343917 A    
C29   N45   1.466426 S    
N62   O59   1.301821 A    
C25   N41   1.466424 S    
N64   O64   1.299376 A    
N8    Ni4   1.856703 S    
C31   F15   1.385862 S    
N40   O15   1.300649 A    
N22   Ni4   1.856958 S    
C102  N54   1.429058 S    
N15   Ni5   1.843920 S    
N36   O7    1.300650 A    
N43   O21   1.300916 A    
C87   C111  1.417752 A    
C102  C107  1.430756 A    
C88   C112  1.426101 A    
C22   C75   1.506733 S    
