data_mof_unit_58394.cif
_audit_creation_date              2012-12-10T18:17:25-0500
_audit_creation_method            fapswitch 2.2
_symmetry_space_group_name_H-M    P1
_symmetry_Int_Tables_number       1
_space_group_crystal_system       triclinic
_cell_length_a                    21.259738
_cell_length_b                    21.122075
_cell_length_c                    14.001608
_cell_angle_alpha                 89.917843
_cell_angle_beta                  89.938867
_cell_angle_gamma                 90.043711
_cell_volume                      6287.40711957

loop_
_atom_site_label
_atom_site_type_symbol
_atom_type_description
_atom_site_fract_x
_atom_site_fract_y
_atom_site_fract_z
_atom_type_partial_charge
C1    C     C_R   0.086973 0.413496 0.500046 0.900483
C2    C     C_R   0.054431 0.489131 0.202526 -0.058857
C3    C     C_R   0.251211 0.204650 0.667921 -0.223146
C4    C     C_3   0.176559 0.477220 0.894186 -0.429246
C5    C     C_3   0.188228 0.410436 0.854485 -0.355703
C6    C     C_3   0.246999 0.408977 0.791886 -0.870535
C7    C     C_3   0.826694 0.540326 0.106385 -0.430682
C8    C     C_3   0.793026 0.481593 0.146589 -0.354490
C9    C     C_3   0.739888 0.500300 0.214194 -0.888712
C10   C     C_3   0.823289 0.521931 0.894639 -0.427210
C11   C     C_3   0.811272 0.589016 0.856115 -0.357159
C12   C     C_3   0.752428 0.590866 0.793894 -0.867262
C13   C     C_R   0.054835 0.491363 0.797343 -0.064663
C14   C     C_3   0.172673 0.457030 0.105604 -0.438877
C15   C     C_3   0.208033 0.514727 0.145404 -0.345957
C16   C     C_3   0.262390 0.494246 0.209437 -0.877038
C17   C     C_3   0.670819 0.051616 0.893238 -0.433877
C18   C     C_3   0.707926 0.994814 0.854190 -0.352640
C19   C     C_3   0.761923 0.016427 0.790089 -0.887173
C20   C     C_3   0.346390 0.909975 0.099055 -0.441683
C21   C     C_3   0.351310 0.842542 0.057862 -0.330647
C22   C     C_3   0.307763 0.796436 0.109632 -0.898050
C23   C     C_3   0.327307 0.957940 0.896889 -0.437173
C24   C     C_R   0.945509 0.510544 0.202695 -0.061839
C25   C     C_3   0.301750 0.022707 0.865008 -0.351612
C26   C     C_3   0.244082 0.015260 0.801196 -0.881797
C27   C     C_3   0.674999 0.035216 0.105330 -0.426615
C28   C     C_3   0.683608 0.103472 0.140763 -0.358539
C29   C     C_3   0.743964 0.110042 0.198808 -0.865931
C30   C     C_R   0.446564 0.985306 0.797868 -0.069209
C31   C     C_R   0.553946 0.013947 0.202608 -0.068227
C32   C     C_R   0.553807 0.014281 0.797111 -0.059982
C33   C     C_R   0.447276 0.982641 0.202226 -0.049360
C34   C     C_R   0.057040 0.490719 0.898536 -0.024432
C35   C     C_R   0.943272 0.511070 0.101507 -0.024166
C36   C     C_R   0.942855 0.508885 0.898688 -0.025279
C37   C     C_R   0.913019 0.586496 0.500030 0.899725
C38   C     C_R   0.056590 0.488327 0.101345 -0.025088
C39   C     C_R   0.556394 0.014411 0.898337 -0.024816
C40   C     C_R   0.446826 0.977636 0.101310 -0.029211
C41   C     C_R   0.445110 0.983230 0.898975 -0.023961
C42   C     C_R   0.556793 0.013047 0.101370 -0.026193
C43   C     C_R   0.999941 0.499775 0.949471 0.013817
C44   C     C_R   0.999939 0.499758 0.050547 0.012209
C45   C     C_R   0.501169 0.997667 0.949449 0.012056
C46   C     C_R   0.501432 0.996791 0.050522 0.014519
C47   C     C_R   0.114445 0.480907 0.948998 0.071206
C48   C     C_R   0.912993 0.413540 0.500091 0.900689
C49   C     C_R   0.886096 0.522221 0.051148 0.073944
C50   C     C_R   0.885371 0.518267 0.949320 0.069389
C51   C     C_R   0.113641 0.476657 0.050804 0.074176
C52   C     C_R   0.612554 0.030106 0.948667 0.074359
C53   C     C_R   0.393785 0.954169 0.050278 0.070388
C54   C     C_R   0.389919 0.965018 0.949810 0.078967
C55   C     C_R   0.613337 0.027131 0.050690 0.069341
C56   C     C_R   0.140077 0.675006 0.420866 -0.262537
C57   C     C_R   0.827932 0.357606 0.418477 -0.258983
C58   C     C_R   0.830257 0.644993 0.416882 -0.266704
C59   C     C_R   0.086708 0.586756 0.499964 0.899015
C60   C     C_R   0.169721 0.355029 0.416815 -0.264639
C61   C     C_R   0.669735 0.144828 0.582476 -0.265511
C62   C     C_R   0.356014 0.828905 0.581664 -0.268342
C63   C     C_R   0.331519 0.146377 0.583794 -0.258464
C64   C     C_R   0.668689 0.853798 0.583609 -0.259543
C65   C     C_R   0.133884 0.635325 0.500235 -0.070548
C66   C     C_R   0.864324 0.366470 0.500437 -0.073138
C67   C     C_R   0.864581 0.633804 0.500271 -0.071462
C68   C     C_R   0.135419 0.366197 0.500297 -0.071312
C69   C     C_R   0.634198 0.135005 0.499943 -0.069790
C70   C     C_R   0.586823 0.913320 0.500009 0.900709
C71   C     C_R   0.363659 0.867225 0.501054 -0.068184
C72   C     C_R   0.365433 0.134749 0.500061 -0.074708
C73   C     C_R   0.634658 0.865347 0.500032 -0.075021
C74   C     C_R   0.171931 0.642615 0.580770 -0.260097
C75   C     C_R   0.854196 0.330589 0.582951 -0.263899
C76   C     C_R   0.852763 0.667785 0.583979 -0.257803
C77   C     C_R   0.147284 0.332221 0.584096 -0.259725
C78   C     C_R   0.643507 0.171591 0.417902 -0.261113
C79   C     C_R   0.323936 0.861781 0.422096 -0.263571
C80   C     C_R   0.353991 0.169149 0.416515 -0.262341
C81   C     C_R   0.413198 0.086704 0.500001 0.899494
C82   C     C_R   0.646076 0.830967 0.416567 -0.261580
C83   C     C_R   0.217235 0.689631 0.582263 0.120514
C84   C     C_R   0.807893 0.284597 0.583753 0.118878
C85   C     C_R   0.806810 0.714065 0.584625 0.122503
C86   C     C_R   0.193302 0.286007 0.584770 0.123351
C87   C     C_R   0.688715 0.218726 0.417863 0.126234
C88   C     C_R   0.276557 0.816778 0.422520 0.123829
C89   C     C_R   0.308421 0.215856 0.416113 0.118475
C90   C     C_R   0.691662 0.784279 0.416147 0.118037
C91   C     C_R   0.223793 0.729824 0.502255 0.059120
C92   C     C_R   0.412875 0.913682 0.500167 0.899525
C93   C     C_R   0.771322 0.275093 0.500944 0.060172
C94   C     C_R   0.772214 0.725744 0.500492 0.061107
C95   C     C_R   0.227881 0.274356 0.500549 0.061475
C96   C     C_R   0.725135 0.228433 0.500778 0.060890
C97   C     C_R   0.269801 0.776715 0.502648 0.061267
C98   C     C_R   0.274015 0.227695 0.500442 0.060286
C99   C     C_R   0.726126 0.772452 0.500364 0.060286
C100  C     C_R   0.184692 0.722778 0.421544 0.120205
C101  C     C_R   0.781169 0.312030 0.418161 0.124048
C102  C     C_R   0.783877 0.690879 0.416386 0.121946
C103  C     C_R   0.586718 0.086745 0.499931 0.900933
C104  C     C_R   0.216143 0.309191 0.416330 0.121160
C105  C     C_R   0.715504 0.191331 0.583442 0.121634
C106  C     C_R   0.309378 0.783231 0.582884 0.120111
C107  C     C_R   0.285635 0.192761 0.584595 0.122818
C108  C     C_R   0.714609 0.807445 0.584383 0.122163
C109  C     C_R   0.256128 0.696907 0.662107 -0.218996
C110  C     C_R   0.797895 0.247802 0.665620 -0.217985
C111  C     C_R   0.795229 0.749026 0.667655 -0.234298
C112  C     C_R   0.205007 0.251122 0.667942 -0.235041
C113  C     C_R   0.698066 0.256190 0.336516 -0.234936
C114  C     C_R   0.945142 0.508585 0.797477 -0.064036
C115  C     C_R   0.236236 0.810881 0.344104 -0.235119
C116  C     C_R   0.296778 0.250833 0.332978 -0.218120
C117  C     C_R   0.703245 0.749290 0.333118 -0.218649
C118  C     C_R   0.744352 0.302678 0.336559 -0.225739
C119  C     C_R   0.190715 0.763619 0.343223 -0.213870
C120  C     C_R   0.250725 0.297482 0.333099 -0.222953
C121  C     C_R   0.749268 0.702610 0.333249 -0.222613
C122  C     C_R   0.302146 0.743653 0.662418 -0.221652
C123  C     C_R   0.751750 0.201207 0.665471 -0.224539
C124  C     C_R   0.749150 0.795630 0.667565 -0.222299
H1    H     H_    0.109654 0.669234 0.359319 0.158786
H2    H     H_    0.882877 0.337854 0.646046 0.160209
H3    H     H_    0.879843 0.658840 0.648209 0.158499
H4    H     H_    0.120205 0.341135 0.648382 0.157432
H5    H     H_    0.615151 0.163869 0.354610 0.155452
H6    H     H_    0.329758 0.892672 0.360742 0.145781
H7    H     H_    0.380876 0.159991 0.352108 0.161369
H8    H     H_    0.619139 0.840103 0.352248 0.162556
H9    H     H_    0.251168 0.666280 0.723841 0.142963
H10   H     H_    0.825833 0.254951 0.729410 0.144819
H11   H     H_    0.821721 0.740262 0.732435 0.147608
H12   H     H_    0.835753 0.386358 0.355278 0.157470
H13   H     H_    0.178563 0.259893 0.732813 0.147494
H14   H     H_    0.669986 0.249157 0.272834 0.147704
H15   H     H_    0.240208 0.842532 0.283459 0.151417
H16   H     H_    0.323161 0.242021 0.268075 0.144845
H17   H     H_    0.676827 0.758105 0.268295 0.145151
H18   H     H_    0.751546 0.331072 0.272921 0.146210
H19   H     H_    0.160375 0.758927 0.281480 0.146453
H20   H     H_    0.242008 0.324215 0.268301 0.144769
H21   H     H_    0.757930 0.675860 0.268538 0.144429
H22   H     H_    0.332276 0.748612 0.724360 0.143160
H23   H     H_    0.839437 0.617895 0.352589 0.150295
H24   H     H_    0.744486 0.172875 0.729163 0.146478
H25   H     H_    0.740556 0.822418 0.732248 0.145050
H26   H     H_    0.260009 0.178050 0.732785 0.145227
H27   H     H_    0.903863 0.515834 0.754272 0.151407
H28   H     H_    0.095731 0.481865 0.245675 0.148123
H29   H     H_    0.096161 0.484344 0.754047 0.149004
H30   H     H_    0.904224 0.517688 0.246034 0.147448
H31   H     H_    0.405836 0.974287 0.755263 0.152381
H32   H     H_    0.593999 0.026552 0.245636 0.151810
H33   H     H_    0.594364 0.024678 0.753676 0.147280
H34   H     H_    0.160489 0.382107 0.352435 0.150803
H35   H     H_    0.405541 0.975086 0.244423 0.128045
H36   H     H_    0.240619 0.440006 0.728498 0.263249
H37   H     H_    0.288655 0.425103 0.833062 0.259545
H38   H     H_    0.255690 0.359926 0.766944 0.258832
H39   H     H_    0.194267 0.376402 0.914294 0.215654
H40   H     H_    0.147479 0.394223 0.811439 0.217007
H41   H     H_    0.177415 0.513018 0.836067 0.186420
H42   H     H_    0.217046 0.491666 0.938786 0.203121
H43   H     H_    0.758918 0.526973 0.276120 0.259939
H44   H     H_    0.704840 0.530083 0.176242 0.263646
H45   H     H_    0.662138 0.115968 0.645601 0.149137
H46   H     H_    0.716017 0.457041 0.241194 0.251095
H47   H     H_    0.773206 0.453212 0.087060 0.217087
H48   H     H_    0.826467 0.450814 0.185993 0.216448
H49   H     H_    0.838565 0.574163 0.164253 0.184616
H50   H     H_    0.793390 0.568038 0.062321 0.202061
H51   H     H_    0.758765 0.560318 0.730083 0.265447
H52   H     H_    0.710843 0.574393 0.835127 0.259556
H53   H     H_    0.743682 0.640101 0.769602 0.257394
H54   H     H_    0.805198 0.622467 0.916540 0.215715
H55   H     H_    0.851920 0.605733 0.813059 0.217560
H56   H     H_    0.387081 0.833859 0.642644 0.156025
H57   H     H_    0.822715 0.486700 0.835908 0.191748
H58   H     H_    0.782880 0.506653 0.938989 0.202822
H59   H     H_    0.244404 0.466841 0.271534 0.258605
H60   H     H_    0.296149 0.464602 0.168660 0.259442
H61   H     H_    0.287480 0.536735 0.236384 0.255234
H62   H     H_    0.226947 0.543698 0.085668 0.216122
H63   H     H_    0.175922 0.545383 0.187448 0.223314
H64   H     H_    0.160129 0.423499 0.163743 0.185616
H65   H     H_    0.205052 0.428526 0.061099 0.203758
H66   H     H_    0.743400 0.042502 0.727199 0.258269
H67   H     H_    0.340457 0.119063 0.648054 0.161134
H68   H     H_    0.794550 0.047608 0.830353 0.261815
H69   H     H_    0.788431 0.974497 0.764339 0.253444
H70   H     H_    0.727426 0.966794 0.914446 0.217498
H71   H     H_    0.676805 0.962992 0.812406 0.216449
H72   H     H_    0.657172 0.084373 0.834773 0.184873
H73   H     H_    0.702409 0.081425 0.937007 0.204458
H74   H     H_    0.322497 0.791323 0.185293 0.269911
H75   H     H_    0.258350 0.813338 0.106358 0.258626
H76   H     H_    0.310450 0.749218 0.075111 0.250801
H77   H     H_    0.339345 0.841879 0.980805 0.216802
H78   H     H_    0.659784 0.881126 0.647774 0.157203
H79   H     H_    0.400510 0.825383 0.065310 0.226971
H80   H     H_    0.354650 0.904779 0.176401 0.195719
H81   H     H_    0.297910 0.928951 0.093205 0.190837
H82   H     H_    0.256696 0.989024 0.735183 0.266085
H83   H     H_    0.206271 0.989331 0.839669 0.263682
H84   H     H_    0.226099 0.062693 0.780652 0.246678
H85   H     H_    0.288529 0.050652 0.929190 0.222395
H86   H     H_    0.337818 0.050135 0.825209 0.219293
H87   H     H_    0.332892 0.925270 0.835414 0.189381
H88   H     H_    0.290074 0.935970 0.940835 0.210935
H89   H     H_    0.166732 0.611260 0.641745 0.152599
H90   H     H_    0.741074 0.080763 0.264649 0.266512
H91   H     H_    0.785211 0.094899 0.155790 0.258994
H92   H     H_    0.750812 0.160220 0.219567 0.257414
H93   H     H_    0.685771 0.136460 0.079023 0.216444
H94   H     H_    0.643165 0.117912 0.185967 0.216006
H95   H     H_    0.677399 0.001292 0.165827 0.191944
H96   H     H_    0.716083 0.021157 0.061564 0.203852
N1    N     N_R   0.000000 0.500000 0.750030 -0.109614
N2    N     N_R   0.000000 0.500000 0.249970 -0.109221
N3    N     N_R   0.500000 0.000000 0.750030 -0.108528
N4    N     N_R   0.500000 0.000000 0.249970 -0.107979
O1    O     O_R   0.066090 0.433930 0.580280 -0.635082
O2    O     O_R   0.433910 0.066070 0.419720 -0.627687
O3    O     O_R   0.433910 0.066070 0.580280 -0.623119
O4    O     O_R   0.566090 0.933930 0.419720 -0.623917
O5    O     O_R   0.433910 0.933930 0.419720 -0.630580
O6    O     O_R   0.566090 0.066070 0.580280 -0.631718
O7    O     O_R   0.566090 0.066070 0.419720 -0.635915
O8    O     O_R   0.433910 0.933930 0.580280 -0.634448
O9    O     O_R   0.933910 0.566070 0.419720 -0.633261
O10   O     O_R   0.933910 0.566070 0.580280 -0.631977
O11   O     O_R   0.066090 0.433930 0.419720 -0.629573
O12   O     O_R   0.933910 0.433930 0.419720 -0.624506
O13   O     O_R   0.066090 0.566070 0.580280 -0.624986
O14   O     O_R   0.066090 0.566070 0.419720 -0.626087
O15   O     O_R   0.933910 0.433930 0.580280 -0.627908
O16   O     O_R   0.566090 0.933930 0.580280 -0.626489
Zn1   Zn    Zn3+2 0.000000 0.500000 0.607200 0.936097
Zn2   Zn    Zn3+2 1.000000 0.500000 0.392800 0.939672
Zn3   Zn    Zn3+2 0.500000 0.000000 0.607200 0.938934
Zn4   Zn    Zn3+2 0.500000 0.000000 0.392800 0.938164

loop_
_geom_bond_atom_site_label_1
_geom_bond_atom_site_label_2
_ccdc_geom_bond_type
C78   C87   A    
C96   C105  A    
C27   H95   S    
C28   H93   S    
C31   C42   A    
C18   H70   S    
O8    Zn3   S    
C119  H19   S    
C21   H79   S    
C86   C112  A    
C26   H83   S    
C120  H20   S    
C74   C83   A    
C124  H25   S    
C36   C114  A    
C48   O15   A    
C71   C79   A    
C31   H32   S    
C69   C78   A    
C16   H59   S    
C7    C8    S    
C62   C71   A    
N1    Zn1   S    
C45   C46   A    
C40   C46   A    
C99   C108  A    
C20   C21   S    
C23   H87   S    
C104  C120  A    
C101  C118  A    
C5    H39   S    
C22   H76   S    
C28   C29   S    
C59   O13   A    
C78   H5    S    
C70   O4    A    
C16   H61   S    
O3    Zn3   S    
C5    C6    S    
C42   C55   A    
C27   C55   S    
C75   C84   A    
C29   H91   S    
C23   H88   S    
C92   O8    A    
O1    Zn1   S    
C15   C16   S    
C7    H50   S    
C7    H49   S    
C2    N2    A    
C1    C68   S    
C4    H41   S    
C105  C123  A    
C18   C19   S    
C42   C46   A    
C32   C39   A    
O12   Zn2   S    
C80   C89   A    
C49   C50   A    
C117  C121  A    
O6    Zn3   S    
C14   H65   S    
C71   C92   S    
C6    H38   S    
N3    Zn3   S    
C8    C9    S    
C35   C49   A    
C64   C73   A    
C83   C109  A    
C30   C41   A    
C17   H73   S    
C58   C102  A    
C91   C100  A    
C102  C121  A    
C61   C105  A    
C57   C66   A    
C88   C97   A    
C52   C55   A    
C19   H68   S    
C12   H52   S    
C113  C118  A    
C103  O6    A    
C23   C25   S    
C39   C52   A    
C18   H71   S    
C89   C116  A    
C8    H48   S    
C27   H96   S    
C80   H7    S    
C21   C22   S    
C2    H28   S    
C33   H35   S    
C9    H46   S    
C26   H82   S    
C70   O16   A    
C114  H27   S    
C108  C124  A    
C17   C52   S    
C79   C88   A    
C24   H30   S    
C64   C108  A    
C69   C103  S    
C103  O7    A    
C15   H62   S    
C95   C98   A    
C33   C40   A    
C81   O2    A    
C109  H9    S    
C24   C35   A    
C5    H40   S    
C21   H77   S    
C22   H75   S    
C9    H43   S    
C59   O14   A    
C20   H80   S    
O15   Zn1   S    
C37   O10   A    
C93   C101  A    
C11   H54   S    
O5    Zn4   S    
C58   H23   S    
N4    Zn4   S    
C29   H92   S    
C47   C51   A    
C38   C51   A    
C19   H66   S    
C3    C107  A    
C25   C26   S    
C53   C54   A    
C79   H6    S    
C15   H63   S    
O9    Zn2   S    
O16   Zn3   S    
C84   C110  A    
C98   C107  A    
C116  C120  A    
C117  H17   S    
C43   C44   A    
C90   C117  A    
O11   Zn2   S    
C38   C44   A    
C110  C123  A    
C14   H64   S    
C85   C94   A    
C2    C38   A    
O2    Zn4   S    
C14   C51   S    
O4    Zn4   S    
C6    H37   S    
C3    C112  A    
C13   H29   S    
C87   C96   A    
C106  C122  A    
C70   C73   S    
C17   C18   S    
C36   C43   A    
C57   H12   S    
C100  C119  A    
C56   H1    S    
C91   C97   A    
C25   H85   S    
C35   C44   A    
C8    H47   S    
C7    C49   S    
C48   O12   A    
C77   H4    S    
C12   H51   S    
C97   C106  A    
C30   H31   S    
C115  H15   S    
C77   C86   A    
C19   H69   S    
C93   C96   A    
C115  C119  A    
C10   C11   S    
C57   C101  A    
C74   H89   S    
C10   H58   S    
C121  H21   S    
C110  H10   S    
C11   H55   S    
C56   C100  A    
C63   C107  A    
C34   C47   A    
C90   C99   A    
C32   N3    A    
C36   C50   A    
C95   C104  A    
C23   C54   S    
C32   H33   S    
C1    O1    A    
C68   C77   A    
C76   H3    S    
C64   H78   S    
C3    H26   S    
C28   H94   S    
C81   O3    A    
C111  C124  A    
C113  H14   S    
C112  H13   S    
C22   H74   S    
C9    H44   S    
C26   H84   S    
C34   C43   A    
C72   C81   S    
C13   N1    A    
C20   C53   S    
C118  H18   S    
O13   Zn1   S    
C6    H36   S    
C11   C12   S    
C16   H60   S    
C37   O9    A    
C30   N3    A    
C62   C106  A    
C24   N2    A    
C83   C91   A    
O14   Zn2   S    
C82   C90   A    
C39   C45   A    
C89   C98   A    
C75   H2    S    
C61   C69   A    
C88   C115  A    
C60   H34   S    
O7    Zn4   S    
C13   C34   A    
N2    Zn2   S    
C59   C65   S    
C62   H56   S    
C111  H11   S    
C29   H90   S    
C20   H81   S    
C94   C99   A    
C1    O11   A    
C63   H67   S    
C66   C75   A    
C37   C67   S    
C63   C72   A    
C4    H42   S    
C73   C82   A    
C12   H53   S    
C84   C93   A    
C122  H22   S    
C114  N1    A    
C25   H86   S    
C109  C122  A    
C41   C54   A    
C87   C113  A    
C86   C95   A    
C65   C74   A    
O10   Zn1   S    
C31   N4    A    
C33   N4    A    
C85   C111  A    
C58   C67   A    
C4    C5    S    
C61   H45   S    
C123  H24   S    
C60   C68   A    
C72   C80   A    
C40   C53   A    
C27   C28   S    
C10   H57   S    
C41   C45   A    
C14   C15   S    
C17   H72   S    
C67   C76   A    
C48   C66   S    
C60   C104  A    
C82   H8    S    
C76   C85   A    
C56   C65   A    
C94   C102  A    
C92   O5    A    
C116  H16   S    
C4    C47   S    
C10   C50   S    
