data_mof_unit_22336.cif
_audit_creation_date              2013-03-05T15:52:26-0500
_audit_creation_method            fapswitch 2.2
_symmetry_space_group_name_H-M    P1
_symmetry_Int_Tables_number       1
_space_group_crystal_system       triclinic
_cell_length_a                    27.802433
_cell_length_b                    10.831076
_cell_length_c                    9.57028
_cell_angle_alpha                 89.374562
_cell_angle_beta                  89.996567
_cell_angle_gamma                 92.387584
_cell_volume                      2879.22718593

loop_
_atom_site_label
_atom_site_type_symbol
_atom_site_description
_atom_site_fract_x
_atom_site_fract_y
_atom_site_fract_z
_atom_type_partial_charge
O1    O     O_R   0.500000 0.319640 0.618810 -0.596355
O2    O     O_R   0.500000 0.319660 0.381240 -0.581086
C1    C     C_R   0.502494 0.262129 0.501811 0.802378
O3    O     O_R   0.430260 0.500010 0.618770 -0.552606
O4    O     O_R   0.430270 0.500030 0.381200 -0.584665
C2    C     C_R   0.407504 0.499462 0.499999 0.812097
Cu1   Cu    Cu3+1 0.500000 0.499990 0.640660 0.958520
Cu2   Cu    Cu3+1 0.500000 0.500010 0.359340 0.932796
O5    O     O_R   0.500000 0.680340 0.618760 -0.556094
O6    O     O_R   0.500000 0.680360 0.381190 -0.613517
O7    O     O_R   0.569730 0.499970 0.618800 -0.608798
O8    O     O_R   0.569740 0.499990 0.381230 -0.600537
C3    C     C_R   0.495608 0.736663 0.499821 0.820053
C4    C     C_R   0.592516 0.501253 0.500077 0.802503
C5    C     C_R   0.176095 0.391467 0.510418 0.535778
O9    O     O_2   0.198996 0.284162 0.518388 -0.534248
N1    N     N_R   0.202188 0.501080 0.501287 -0.469368
C6    C     C_R   0.180145 0.611422 0.492667 0.532451
C7    C     C_R   0.279225 0.524065 0.376691 -0.104782
C8    C     C_R   0.329366 0.523143 0.376070 -0.222115
C9    C     C_R   0.328709 0.475270 0.624401 -0.232112
C10   C     C_R   0.278566 0.475687 0.624575 -0.111686
C11   C     C_R   0.253715 0.500292 0.500852 0.362596
C12   C     C_R   0.102014 0.502568 0.501947 -0.048197
C13   C     C_R   0.125576 0.390119 0.510520 -0.020675
C14   C     C_R   0.098362 0.279080 0.519938 -0.149128
C15   C     C_R   0.129698 0.614269 0.493300 -0.018909
C16   C     C_R   0.354563 0.499136 0.500097 -0.050507
H1    H     H_    0.347194 0.456170 0.721379 0.163055
H2    H     H_    0.258967 0.457338 0.720863 0.140372
C17   C     C_R   0.645524 0.505217 0.500699 -0.089511
C18   C     C_R   0.972484 0.390468 0.497664 -0.025033
C19   C     C_R   0.976644 0.618150 0.506935 0.062928
C20   C     C_R   0.949229 0.504402 0.502711 0.069196
C21   C     C_R   0.943818 0.280673 0.483148 -0.292137
C22   C     C_R   0.893582 0.280446 0.484467 0.515473
C23   C     C_R   0.870157 0.393051 0.493145 -0.135270
C24   C     C_R   0.898054 0.504855 0.502656 -0.110426
C25   C     C_R   0.874690 0.617600 0.511924 0.003740
C26   C     C_R   0.824272 0.617278 0.511898 0.573079
N2    N     N_R   0.797946 0.508566 0.502154 -0.454242
C27   C     C_R   0.819463 0.397815 0.492614 0.596625
C28   C     C_R   0.721367 0.502938 0.376036 -0.192772
C29   C     C_R   0.671269 0.501285 0.374778 -0.217009
C30   C     C_R   0.670783 0.513256 0.627756 -0.327382
C31   C     C_R   0.721464 0.518946 0.629536 0.548422
C32   C     C_R   0.746431 0.510375 0.502658 0.282390
O10   O     O_2   0.791650 0.293139 0.483506 -0.475747
C33   C     C_R   0.023536 0.389631 0.505245 0.072140
C34   C     C_R   0.050887 0.503310 0.502111 0.069387
C35   C     C_R   0.027709 0.617699 0.499246 0.040086
C36   C     C_R   0.048400 0.278582 0.517809 -0.206114
H3    H     H_    0.652743 0.495496 0.275356 0.174004
H4    H     H_    0.959271 0.192530 0.466303 0.153350
H5    H     H_    0.030313 0.189216 0.529819 0.135134
O11   O     O_2   0.206990 0.717992 0.484497 -0.538242
C37   C     C_R   0.106575 0.726074 0.484890 -0.143222
H6    H     H_    0.127025 0.813182 0.476099 0.188447
C38   C     C_R   0.951846 0.728864 0.519639 -0.204012
C39   C     C_R   0.901958 0.728309 0.521791 -0.145359
O12   O     O_2   0.801625 0.724750 0.521065 -0.552675
C40   C     C_R   0.056654 0.728038 0.487675 -0.208135
H7    H     H_    0.651127 0.513631 0.725289 0.169032
H8    H     H_    0.884800 0.815785 0.531190 0.174495
H9    H     H_    0.041908 0.818036 0.477447 0.137476
H10   H     H_    0.509703 0.113593 0.281671 0.159378
C41   C     C_R   0.508171 0.107903 0.768911 -0.167118
C42   C     C_R   0.493725 0.043671 0.889734 -0.251745
H11   H     H_    0.501038 0.083182 0.991372 0.156965
C43   C     C_R   0.468072 0.931412 0.879496 -0.186538
H12   H     H_    0.453775 0.886202 0.973002 0.157360
C44   C     C_R   0.460595 0.877304 0.749070 0.515620
C45   C     C_R   0.482423 0.933494 0.627692 -0.021240
C46   C     C_R   0.498364 0.058398 0.634798 0.043912
C47   C     C_R   0.503888 0.126935 0.507241 -0.089241
C48   C     C_R   0.504547 0.064323 0.380018 -0.198271
C49   C     C_R   0.500090 0.936972 0.377745 -0.219112
C50   C     C_R   0.490137 0.870154 0.501016 -0.109323
H13   H     H_    0.446122 0.359005 0.131114 0.140400
C51   C     C_R   0.563455 0.665304 0.142511 -0.163473
C52   C     C_R   0.594487 0.746114 0.069302 -0.216528
H14   H     H_    0.618704 0.809137 0.124985 0.162272
C53   C     C_R   0.594691 0.745837 0.925396 -0.218763
H15   H     H_    0.619100 0.808564 0.868402 0.157301
C54   C     C_R   0.563805 0.664906 0.853875 -0.145473
H16   H     H_    0.567348 0.672188 0.743785 0.193886
C55   C     C_R   0.531261 0.581288 0.924173 0.224627
C56   C     C_R   0.531177 0.581361 0.073943 0.205273
N3    N     N_R   0.500460 0.501210 0.147910 -0.198583
C57   C     C_R   0.470373 0.422509 0.074919 -0.069502
H17   H     H_    0.446153 0.359081 0.872079 0.139147
C58   C     C_R   0.470376 0.422571 0.926834 -0.061860
N4    N     N_R   0.500480 0.501290 0.852040 -0.190681
H18   H     H_    0.260125 0.542984 0.280722 0.139205
H19   H     H_    0.969892 0.818075 0.531050 0.132883
O13   O     O_3   0.747654 0.522018 0.753149 -0.572928
C59   C     C_3   0.732278 0.616563 0.841105 -0.289145
H20   H     H_    0.699885 0.584804 0.901542 0.159619
H21   H     H_    0.725477 0.703612 0.782456 0.169857
H22   H     H_    0.761260 0.638317 0.917721 0.198274
H23   H     H_    0.528967 0.193017 0.783722 0.181807
O14   O     O_3   0.430413 0.772608 0.743171 -0.565554
C60   C     C_3   0.386960 0.803462 0.677961 -0.299651
H24   H     H_    0.392195 0.819434 0.563954 0.156326
H25   H     H_    0.371041 0.885326 0.726769 0.161232
H26   H     H_    0.360560 0.724712 0.691164 0.202182
H27   H     H_    0.504771 0.890917 0.279016 0.168718
H28   H     H_    0.566599 0.672818 0.252497 0.202064
H29   H     H_    0.115596 0.191470 0.529282 0.185818
H30   H     H_    0.740872 0.497835 0.278449 0.160853
O15   O     O_3   0.867645 0.169884 0.466378 -0.532774
C61   C     C_3   0.868770 0.100577 0.591955 -0.222961
H31   H     H_    0.856676 0.154899 0.682780 0.165569
H32   H     H_    0.905240 0.065666 0.611617 0.121201
H33   H     H_    0.843498 0.019155 0.582188 0.211164
H34   H     H_    0.348366 0.542104 0.278892 0.162219

loop_
_geom_bond_atom_site_label_1
_geom_bond_atom_site_label_2
_geom_bond_distance
_ccdc_geom_bond_type
C49   C50   1.398836 A    
C55   C56   1.433345 A    
N2    C27   1.366506 A    
C21   C22   1.396639 A    
C12   C15   1.408271 A    
C4    C17   1.472605 S    
C28   C29   1.392251 A    
C61   H32   1.112167 S    
C52   H14   1.083030 S    
C37   C40   1.389224 A    
C30   C31   1.407939 A    
Cu1   O7    1.949916 S    
N1    C11   1.432944 S    
C22   C23   1.409587 A    
O4    C2    1.301054 A    
O7    C4    1.300517 A    
C5    C13   1.404010 A    
C5    O9    1.349720 S    
C59   H20   1.110752 S    
N1    C6    1.367331 A    
C45   C46   1.408293 A    
C23   C27   1.412515 A    
O5    C3    1.293752 A    
H13   C57   1.081727 S    
C59   H21   1.114918 S    
C31   C32   1.404487 A    
C29   H3    1.083172 S    
C2    C16   1.471735 S    
O15   C61   1.411063 S    
C42   H11   1.082815 S    
C45   C50   1.420125 A    
C43   H12   1.082943 S    
C28   H30   1.083022 S    
C1    C47   1.466780 S    
C36   H5    1.077035 S    
C6    O11   1.349717 S    
C56   N3    1.381600 A    
C38   C39   1.386918 A    
C19   C38   1.414254 A    
O1    Cu1   1.966814 S    
C9    C10   1.394282 A    
C21   H4    1.076800 S    
C35   C40   1.416010 A    
C38   H19   1.076662 S    
O3    Cu1   1.950250 S    
C61   H31   1.114620 S    
C52   C53   1.377269 A    
C19   C20   1.422423 A    
C54   C55   1.417715 A    
C12   C34   1.421811 A    
Cu1   N4    2.023210 S    
C17   C29   1.403555 A    
C41   C42   1.393358 A    
C18   C21   1.411862 A    
C49   H27   1.083612 S    
C48   C49   1.380166 A    
O3    C2    1.300863 A    
C15   C37   1.396053 A    
C25   C26   1.401588 A    
C8    H34   1.083002 S    
C44   C45   1.428897 A    
C8    C16   1.405635 A    
C13   C14   1.396005 A    
C54   H16   1.059957 S    
C9    H1    1.083058 S    
C30   H7    1.081740 S    
C26   O12   1.349978 S    
O1    C1    1.290499 A    
C18   C20   1.418074 A    
C7    C11   1.399740 A    
C47   C48   1.400620 A    
C23   C24   1.414361 A    
C14   C36   1.388989 A    
C57   C58   1.417211 A    
C53   H15   1.083097 S    
Cu2   O8    1.950245 S    
C33   C36   1.416020 A    
H10   C48   1.083435 S    
O13   C59   1.412501 S    
C22   O15   1.384410 S    
C34   C35   1.420133 A    
N2    C32   1.433198 S    
C60   H25   1.114443 S    
C41   C46   1.418489 A    
C27   O10   1.349096 S    
C12   C13   1.408392 A    
C14   H29   1.083542 S    
C7    H18   1.082840 S    
Cu2   O6    1.966814 S    
C26   N2    1.364357 A    
C53   C54   1.387333 A    
C9    C16   1.405858 A    
O8    C4    1.301751 A    
H17   C58   1.081823 S    
C59   H22   1.109261 S    
C41   H23   1.078272 S    
Cu1   O5    1.962320 S    
C3    C50   1.460290 S    
C10   H2    1.082825 S    
C40   H9    1.076604 S    
C20   C24   1.423019 A    
O2    Cu2   1.962320 S    
C6    C15   1.404178 A    
C51   C52   1.387412 A    
O6    C3    1.302723 A    
O4    Cu2   1.949919 S    
C5    N1    1.367263 A    
C19   C35   1.421855 A    
C51   H28   1.059961 S    
C39   H8    1.082981 S    
C7    C8    1.394506 A    
O2    C1    1.308623 A    
C51   C56   1.416939 A    
C37   H6    1.083538 S    
C24   C25   1.410479 A    
C44   O14   1.383965 S    
C25   C39   1.395804 A    
C55   N4    1.382400 A    
C58   N4    1.366379 A    
C60   H26   1.108011 S    
O14   C60   1.410615 S    
C18   C33   1.421631 A    
Cu1   Cu2   2.692309 S    
C31   O13   1.389162 S    
C46   C47   1.426738 A    
C42   C43   1.388168 A    
C33   C34   1.419974 A    
C17   C30   1.405939 A    
C60   H24   1.111453 S    
C10   C11   1.399636 A    
C43   C44   1.396622 A    
Cu2   N3    2.023380 S    
N3    C57   1.366735 A    
C28   C32   1.399321 A    
C61   H33   1.109206 S    
