data_mof_unit_23049.cif
_audit_creation_date              2012-12-11T15:54:02-0500
_audit_creation_method            fapswitch 2.2
_symmetry_space_group_name_H-M    P1
_symmetry_Int_Tables_number       1
_space_group_crystal_system       triclinic
_cell_length_a                    10.706283
_cell_length_b                    10.707939
_cell_length_c                    16.982066
_cell_angle_alpha                 80.74022
_cell_angle_beta                  99.024301
_cell_angle_gamma                 118.816488
_cell_volume                      1676.45735921

loop_
_atom_site_label
_atom_site_type_symbol
_atom_type_description
_atom_site_fract_x
_atom_site_fract_y
_atom_site_fract_z
_atom_type_partial_charge
C1    C     C_R   0.360898 0.229001 0.627276 0.547102
C2    C     C_1   0.321146 0.159773 0.778286 -0.045587
C3    C     C_1   0.319745 0.683703 0.280487 -0.071813
C4    C     C_R   0.415671 0.618994 0.601339 0.575490
C5    C     C_1   0.297895 0.706821 0.209876 -0.063102
C6    C     C_R   0.787810 0.642787 0.146978 0.009789
C7    C     C_R   0.766947 0.516822 0.195812 0.033905
C8    C     C_R   0.732529 0.495515 0.273091 0.022128
C9    C     C_R   0.698450 0.705129 0.249722 -0.163362
C10   C     C_R   0.735713 0.727877 0.170599 -0.164319
C11   C     C_3   0.866679 0.453658 0.219238 -0.271810
C12   C     C_R   0.514756 0.728808 0.729685 -0.155660
C13   C     C_3   0.832153 0.433953 0.304296 -0.271042
C14   C     C_R   0.711956 0.596318 0.303903 0.002248
C15   C     C_R   0.308158 0.136381 0.167214 0.018291
C16   C     C_R   0.776702 0.619117 0.626823 0.551334
C17   C     C_R   0.191432 0.108297 0.205848 0.009347
C18   C     C_R   0.197033 0.110149 0.284977 0.029950
C19   C     C_R   0.444115 0.166700 0.297400 -0.152804
C20   C     C_R   0.436205 0.160586 0.214779 -0.157786
C21   C     C_3   0.035468 0.059703 0.190975 -0.235255
C22   C     C_3   0.040375 0.068245 0.280959 -0.118733
C23   C     C_R   0.490762 0.746389 0.804792 -0.148628
C24   C     C_R   0.325458 0.151528 0.332407 0.010771
C25   C     C_R   0.890364 0.701298 0.856276 0.556483
C26   C     C_R   0.316707 0.705312 0.898667 0.557054
C27   C     C_R   0.284788 0.114762 0.857948 0.552898
C28   C     C_R   0.349363 0.220237 0.403008 0.547425
C29   C     C_R   0.880134 0.687509 0.081571 0.532084
C30   C     C_R   0.285005 0.738341 0.125707 0.567179
C31   C     C_R   0.283513 0.104411 0.086039 0.543880
C32   C     C_R   0.362896 0.657291 0.361822 0.551755
C33   C     C_R   0.700837 0.582812 0.389773 0.572789
C34   C     C_3   0.118615 0.412344 0.791421 -0.162238
C35   C     C_R   0.358997 0.653252 0.837696 0.011357
C36   C     C_R   0.272988 0.524056 0.802801 0.026021
C37   C     C_R   0.298920 0.506613 0.729433 -0.000129
C38   C     C_3   0.002207 0.181663 0.299025 -0.254662
C39   C     C_3   0.097799 0.334351 0.263518 -0.376473
C40   C     C_3   0.007708 0.463987 0.786699 -0.376376
C41   C     C_3   0.148501 0.398680 0.708882 -0.230791
C42   C     C_R   0.408538 0.616607 0.686745 0.004801
C43   C     C_1   0.821190 0.656599 0.706180 -0.059324
C44   C     C_1   0.848476 0.683954 0.774153 -0.053143
C45   C     C_1   0.345002 0.187240 0.709638 -0.046128
Cr1   Cr    Cr6+3 0.608440 0.389080 0.519680 1.007274
Cr2   Cr    Cr6+3 0.288640 0.400090 0.490760 0.988444
Cr3   Cr    Cr6+3 0.602940 0.710800 0.489510 1.004261
Cr4   Cr    Cr6+3 0.052530 0.947560 0.964210 0.999282
Cr5   Cr    Cr6+3 0.059970 0.626800 0.992920 0.994322
Cr6   Cr    Cr6+3 0.373320 0.938440 0.995370 1.012072
H1    H     H_    0.610139 0.810187 0.702639 0.144039
H2    H     H_    0.569199 0.842081 0.832181 0.147116
H3    H     H_    0.094532 0.313708 0.833103 0.164851
H4    H     H_    0.137841 0.291826 0.704030 0.152309
H5    H     H_    0.095183 0.439313 0.657481 0.163132
H6    H     H_    0.671273 0.779152 0.269943 0.148098
H7    H     H_    0.738230 0.819635 0.131778 0.132829
H8    H     H_    0.979979 0.533158 0.211064 0.152604
H9    H     H_    0.212949 0.363281 0.272280 0.189758
H10   H     H_    0.067519 0.348962 0.198481 0.136634
H11   H     H_    0.083992 0.409427 0.294448 0.146596
H12   H     H_    0.826981 0.350977 0.192978 0.135053
H13   H     H_    0.889324 0.150624 0.275438 0.121750
H14   H     H_    0.006176 0.179491 0.364880 0.175054
H15   H     H_    0.970591 0.441640 0.846947 0.185404
H16   H     H_    0.052694 0.579838 0.765661 0.163224
H17   H     H_    0.913136 0.401990 0.745549 0.145648
H18   H     H_    0.778216 0.319844 0.328361 0.125679
H19   H     H_    0.925352 0.504279 0.343666 0.159075
H20   H     H_    0.544383 0.191179 0.332872 0.137493
H21   H     H_    0.528609 0.174291 0.188686 0.132309
H22   H     H_    0.980889 0.949432 0.173945 0.145674
H23   H     H_    0.009382 0.136983 0.149504 0.145116
H24   H     H_    0.978765 0.961584 0.313979 0.138652
O1    O     O_R   0.754020 0.497590 0.609930 -0.509362
O2    O     O_R   0.406180 0.826930 0.920660 -0.518745
O3    O     O_R   0.358620 0.062870 0.901950 -0.491019
O4    O     O_R   0.481420 0.271390 0.600630 -0.491376
O5    O     O_R   0.163910 0.085460 0.050210 -0.521140
O6    O     O_R   0.935200 0.815170 0.045770 -0.511110
O7    O     O_R   0.916120 0.596690 0.069430 -0.525663
O8    O     O_R   0.192310 0.631200 0.086170 -0.504319
O9    O     O_R   0.406770 0.819480 0.096420 -0.508396
O10   O     O_R   0.359170 0.055960 0.064880 -0.520965
O11   O     O_3   0.161940 0.837600 0.984160 -0.264499
O12   O     O_R   0.295080 0.533620 0.397890 -0.507315
O13   O     O_R   0.263810 0.254550 0.589590 -0.529523
O14   O     O_R   0.300820 0.531200 0.560890 -0.499972
O15   O     O_R   0.491480 0.744020 0.564270 -0.512498
O16   O     O_R   0.726290 0.693800 0.583010 -0.513135
O17   O     O_R   0.747830 0.500190 0.434090 -0.515615
O18   O     O_R   0.475680 0.273800 0.437630 -0.518958
O19   O     O_R   0.257620 0.257160 0.413750 -0.521448
O20   O     O_R   0.485280 0.746620 0.388440 -0.516167
O21   O     O_R   0.720550 0.696220 0.420010 -0.507958
O22   O     O_3   0.500010 0.499990 0.499980 -0.294843
O23   O     O_R   0.163320 0.092900 0.874450 -0.522355
O24   O     O_R   0.934650 0.822080 0.882840 -0.490666
O25   O     O_R   0.915520 0.604140 0.893670 -0.532827
O26   O     O_R   0.191760 0.638110 0.923230 -0.498796

loop_
_geom_bond_atom_site_label_1
_geom_bond_atom_site_label_2
_ccdc_geom_bond_type
C27   O23   A    
C8    C13   S    
C31   O10   A    
Cr3   O20   S    
C19   H20   S    
C19   C20   A    
C43   C44   T    
C27   O3    A    
Cr6   O10   S    
C14   C33   S    
Cr1   O1    S    
C31   O5    A    
C7    C11   S    
Cr3   O22   S    
C12   C23   A    
C13   H18   S    
C34   C40   S    
C36   C37   A    
C10   H7    S    
C5    C30   S    
C11   H12   S    
C26   O26   A    
Cr1   O4    S    
Cr1   O17   S    
C13   H19   S    
C22   C38   S    
C21   H22   S    
C30   O8    A    
C25   C44   S    
C28   O19   A    
Cr4   O6    S    
C37   C42   A    
C41   H4    S    
C12   C42   A    
Cr4   O23   S    
C25   O24   A    
C35   C36   A    
C40   H16   S    
C2    C27   S    
C9    C10   A    
C34   C36   S    
C1    O13   A    
C40   H15   S    
C21   C22   S    
C30   O9    A    
Cr2   O14   S    
C34   C41   S    
C22   H24   S    
C11   H8    S    
Cr6   O11   S    
C12   H1    S    
Cr5   O8    S    
C23   H2    S    
C4    O15   A    
C2    C45   T    
C15   C20   A    
C39   H10   S    
C26   O2    A    
C7    C8    A    
C33   O17   A    
C32   O12   A    
C21   H23   S    
Cr3   O16   S    
C17   C21   S    
C28   O18   A    
Cr2   O12   S    
C9    C14   A    
Cr6   O2    S    
C41   H5    S    
C29   O6    A    
Cr4   O24   S    
C25   O25   A    
C38   H14   S    
C6    C29   S    
C17   C18   A    
C16   C43   S    
C16   O16   A    
Cr1   O22   S    
C34   H3    S    
C23   C35   A    
C1    O4    A    
C18   C24   A    
C33   O21   A    
Cr5   O7    S    
C4    O14   A    
C15   C17   A    
C39   H11   S    
C8    C14   A    
Cr3   O21   S    
C16   O1    A    
Cr4   O11   S    
C24   C28   S    
C3    C5    T    
C6    C10   A    
C15   C31   S    
C6    C7    A    
Cr5   O25   S    
Cr2   O22   S    
Cr4   O5    S    
Cr2   O13   S    
C18   C22   S    
C19   C24   A    
Cr6   O3    S    
C29   O7    A    
C11   C13   S    
C1    C45   S    
C38   C39   S    
Cr1   O18   S    
C4    C42   S    
C39   H9    S    
Cr2   O19   S    
C9    H6    S    
C37   C41   S    
C3    C32   S    
Cr5   O11   S    
C26   C35   S    
C32   O20   A    
Cr5   O26   S    
C40   H17   S    
C38   H13   S    
C20   H21   S    
Cr3   O15   S    
Cr6   O9    S    
