data_mof_unit_36411.cif
_audit_creation_date              2012-10-26T19:35:37-0400
_audit_creation_method            fapswitch 2.2
_symmetry_space_group_name_H-M    P1
_symmetry_Int_Tables_number       1
_space_group_crystal_system       triclinic
_cell_length_a                    15.814751
_cell_length_b                    10.995939
_cell_length_c                    9.646325
_cell_angle_alpha                 90.628651
_cell_angle_beta                  89.262764
_cell_angle_gamma                 92.604155
_cell_volume                      1675.51529796

loop_
_atom_site_label
_atom_site_type_symbol
_atom_type_description
_atom_site_fract_x
_atom_site_fract_y
_atom_site_fract_z
_atom_type_partial_charge
C1    C     C_R   0.500254 0.262761 0.500173 0.527521
C2    C     C_R   0.503524 0.129943 0.501567 -0.016657
C3    C     C_R   0.506334 0.063287 0.376276 -0.166665
C4    C     C_R   0.340247 0.502994 0.500376 0.548556
C5    C     C_R   0.510069 0.935985 0.376239 -0.164456
C6    C     C_R   0.512485 0.871084 0.500937 -0.031465
C7    C     C_R   0.521408 0.941156 0.622126 -0.026730
C8    C     C_3   0.539958 0.931784 0.774922 0.003470
C9    C     C_3   0.526316 0.075273 0.778313 0.003648
C10   C     C_R   0.573776 0.501251 0.071729 0.147791
C11   C     C_R   0.427838 0.478162 0.078558 -0.007228
C12   C     C_3   0.084031 0.520629 0.494967 0.036747
C13   C     C_R   0.425736 0.476083 0.931184 0.097581
C14   C     C_R   0.573846 0.500399 0.925507 0.116127
C15   C     C_3   0.644623 0.593184 0.920983 -0.264509
C16   C     C_R   0.505004 0.737371 0.500521 0.521795
C17   C     C_3   0.645051 0.593739 0.078239 -0.264747
C18   C     C_R   0.659957 0.501389 0.499361 0.541502
C19   C     C_3   0.970876 0.453149 0.604099 -0.118511
C20   C     C_3   0.026245 0.404464 0.484058 -0.114395
C21   C     C_1   0.250905 0.510955 0.499883 -0.028796
C22   C     C_1   0.749838 0.506434 0.498159 -0.055511
C23   C     C_3   0.975339 0.632575 0.507913 0.018923
C24   C     C_3   0.029995 0.569418 0.615336 -0.117899
C25   C     C_R   0.631738 0.896321 0.802582 0.021000
C26   C     C_R   0.670662 0.924892 0.930908 -0.117118
C27   C     C_R   0.752757 0.890756 0.958417 -0.122771
C28   C     C_R   0.797927 0.826540 0.859247 -0.104800
C29   C     C_R   0.761443 0.797966 0.731679 -0.113559
C30   C     C_R   0.680120 0.833914 0.702207 -0.099244
C31   C     C_R   0.447082 0.106049 0.865401 0.031011
C32   C     C_R   0.454981 0.153630 0.001506 -0.108496
C33   C     C_R   0.383706 0.165483 0.087361 -0.119919
C34   C     C_3   0.917498 0.517164 0.497019 0.036767
C35   C     C_R   0.303913 0.125072 0.042215 -0.096925
C36   C     C_R   0.294488 0.077235 0.908873 -0.099252
C37   C     C_R   0.364586 0.072224 0.819430 -0.100759
C38   C     C_3   0.604314 0.166091 0.807666 -0.229639
C39   C     C_3   0.677016 0.172236 0.698706 -0.274158
C40   C     C_3   0.753703 0.246405 0.753305 -0.455829
C41   C     C_R   0.339215 0.438523 0.876618 0.058072
C42   C     C_R   0.265600 0.489380 0.933005 -0.116131
C43   C     C_R   0.184623 0.450411 0.890201 -0.118667
C44   C     C_R   0.174802 0.356409 0.793283 -0.107723
C45   C     C_3   0.030488 0.584198 0.388538 0.020303
C46   C     C_R   0.245915 0.300085 0.741946 -0.119663
C47   C     C_R   0.326641 0.337626 0.788258 -0.034022
C48   C     C_R   0.062408 0.665432 0.272715 0.035229
C49   C     C_R   0.034079 0.646121 0.136524 -0.109567
C50   C     C_R   0.056723 0.729954 0.033092 -0.126805
C51   C     C_R   0.107636 0.833423 0.064669 -0.112776
C52   C     C_R   0.136745 0.852686 0.199674 -0.119661
C53   C     C_R   0.114627 0.768749 0.303253 -0.086408
C54   C     C_R   0.946052 0.761052 0.513597 0.023701
C55   C     C_R   0.974046 0.842905 0.617889 -0.112056
C56   C     C_3   0.971522 0.468382 0.376658 -0.115033
C57   C     C_R   0.947231 0.962432 0.620241 -0.110144
C58   C     C_R   0.892570 0.001054 0.518582 -0.099114
C59   C     C_R   0.864973 0.920430 0.413900 -0.115796
C60   C     C_R   0.891882 0.801044 0.410868 -0.093109
C61   C     C_R   0.470591 0.852306 0.852818 0.065507
C62   C     C_R   0.476078 0.832592 0.996601 -0.088460
C63   C     C_R   0.405155 0.792947 0.074411 -0.104573
C64   C     C_R   0.327649 0.772551 0.011239 -0.119961
C65   C     C_R   0.322112 0.777405 0.867905 -0.109816
C66   C     C_R   0.392854 0.814844 0.788991 -0.035616
C67   C     C_1   0.175591 0.516946 0.497185 -0.062073
C68   C     C_1   0.825592 0.511564 0.497843 -0.083516
C69   C     C_R   0.510549 0.063372 0.624062 -0.000395
Cu1   Cu    Cu3+1 0.500000 0.499980 0.640670 0.927556
Cu2   Cu    Cu3+1 0.500000 0.500020 0.359330 0.909814
H1    H     H_    0.048435 0.310325 0.474764 0.102426
H2    H     H_    0.507555 0.109069 0.278081 0.131587
H3    H     H_    0.513459 0.889161 0.278519 0.124793
H4    H     H_    0.638288 0.974602 0.011089 0.087181
H5    H     H_    0.781066 0.913315 0.057525 0.100684
H6    H     H_    0.861014 0.798418 0.881433 0.110285
H7    H     H_    0.795560 0.745899 0.655845 0.134209
H8    H     H_    0.655750 0.809410 0.601736 0.117064
H9    H     H_    0.516007 0.180911 0.043270 0.088441
H10   H     H_    0.390284 0.204684 0.190151 0.127328
H11   H     H_    0.249229 0.132349 0.109880 0.099987
H12   H     H_    0.370820 0.457752 0.137995 0.127116
H13   H     H_    0.232350 0.047540 0.872769 0.093057
H14   H     H_    0.354091 0.039273 0.714775 0.090728
H15   H     H_    0.735605 0.339547 0.783495 0.159115
H16   H     H_    0.780116 0.201109 0.844471 0.150699
H17   H     H_    0.803431 0.253970 0.671191 0.135450
H18   H     H_    0.697415 0.080709 0.668845 0.179363
H19   H     H_    0.656155 0.216787 0.603375 0.171291
H20   H     H_    0.580913 0.259275 0.817953 0.175675
H21   H     H_    0.630927 0.148932 0.910316 0.119019
H22   H     H_    0.269813 0.555085 0.015580 0.099697
H23   H     H_    0.703012 0.558169 0.872722 0.128870
H24   H     H_    0.129443 0.491677 0.934236 0.109192
H25   H     H_    0.112266 0.326057 0.759627 0.104975
H26   H     H_    0.238641 0.225932 0.667717 0.090075
H27   H     H_    0.379861 0.292294 0.748671 0.159932
H28   H     H_    0.992962 0.568169 0.110473 0.088008
H29   H     H_    0.033768 0.715503 0.928900 0.087282
H30   H     H_    0.124688 0.898410 0.984508 0.097469
H31   H     H_    0.176363 0.932706 0.224075 0.102677
H32   H     H_    0.136321 0.785813 0.408027 0.104655
H33   H     H_    0.016672 0.815010 0.697040 0.084048
H34   H     H_    0.621996 0.677395 0.878247 0.178223
H35   H     H_    0.968743 0.025090 0.701043 0.098007
H36   H     H_    0.871816 0.093487 0.520644 0.102490
H37   H     H_    0.822814 0.950470 0.334994 0.096803
H38   H     H_    0.870385 0.739655 0.328737 0.108953
H39   H     H_    0.533475 0.851291 0.051570 0.082801
H40   H     H_    0.408861 0.780114 0.184776 0.137750
H41   H     H_    0.272432 0.749069 0.073816 0.122035
H42   H     H_    0.262067 0.756976 0.818165 0.103005
H43   H     H_    0.382480 0.826218 0.679713 0.102153
H44   H     H_    0.703129 0.556135 0.121315 0.126846
H45   H     H_    0.626355 0.681282 0.125679 0.143664
H46   H     H_    0.945231 0.398855 0.692750 0.094856
H47   H     H_    0.946029 0.424893 0.280631 0.092327
H48   H     H_    0.056043 0.608545 0.713062 0.089043
N1    N     N_R   0.500530 0.500930 0.147930 -0.244368
N2    N     N_R   0.500530 0.500890 0.852020 -0.238202
O1    O     O_R   0.500000 0.319640 0.618810 -0.529607
O2    O     O_R   0.500010 0.319680 0.381230 -0.508692
O3    O     O_R   0.379070 0.499970 0.618770 -0.491429
O4    O     O_R   0.379080 0.500010 0.381190 -0.515527
O5    O     O_R   0.499990 0.680320 0.618770 -0.495049
O6    O     O_R   0.500000 0.680360 0.381190 -0.511246
O7    O     O_R   0.620920 0.499990 0.618810 -0.503151
O8    O     O_R   0.620930 0.500030 0.381230 -0.495558

loop_
_geom_bond_atom_site_label_1
_geom_bond_atom_site_label_2
_ccdc_geom_bond_type
C34   C56   S    
C23   C45   S    
C42   H22   S    
C41   C42   A    
C53   H32   S    
C19   C20   S    
C20   C56   S    
C15   H23   S    
C13   C41   S    
C7    C8    S    
C54   C60   A    
C52   H31   S    
C26   C27   A    
C29   C30   A    
C47   H27   S    
C4    O4    A    
C40   H16   S    
Cu2   O2    S    
C36   C37   A    
C9    C69   S    
C58   H36   S    
C38   C39   S    
C64   H41   S    
C32   H9    S    
C10   C17   S    
Cu1   O7    S    
C38   H21   S    
C4    O3    A    
C1    C2    S    
C40   H15   S    
C5    H3    S    
C1    O1    A    
C60   H38   S    
C18   O7    A    
C46   C47   A    
C61   C66   A    
C29   H7    S    
C35   C36   A    
C45   C56   S    
C8    C9    S    
C43   H24   S    
C23   C24   S    
Cu1   Cu2   S    
C2    C69   A    
C39   H19   S    
C8    C61   S    
Cu1   O5    S    
C57   H35   S    
C59   C60   A    
C14   N2    A    
C21   C67   T    
C8    C25   S    
Cu2   O6    S    
C65   H42   S    
C11   N1    A    
C35   H11   S    
C44   C46   A    
C26   H4    S    
C48   C53   A    
C12   C67   S    
C51   C52   A    
C10   C14   A    
C34   C68   S    
C49   H28   S    
C11   H12   S    
C58   C59   A    
C55   H33   S    
C31   C37   A    
C43   C44   A    
C1    O2    A    
C62   C63   A    
C44   H25   S    
Cu2   O8    S    
C13   N2    A    
Cu1   O1    S    
C31   C32   A    
C62   H39   S    
C23   C34   S    
C12   C20   S    
C50   C51   A    
C41   C47   A    
C28   H6    S    
C22   C68   T    
C30   H8    S    
Cu2   N1    S    
C48   C49   A    
C46   H26   S    
C49   C50   A    
C55   C57   A    
C42   C43   A    
C27   H5    S    
C39   C40   S    
C52   C53   A    
C17   H44   S    
C23   C54   S    
C45   C48   S    
C37   H14   S    
C25   C30   A    
C15   C17   S    
C54   C55   A    
C28   C29   A    
C24   H48   S    
C66   H43   S    
C18   C22   S    
C56   H47   S    
Cu2   O4    S    
C12   C45   S    
C3    C5    A    
C19   C34   S    
C7    C69   A    
C6    C7    A    
C51   H30   S    
C12   C24   S    
C50   H29   S    
C59   H37   S    
C64   C65   A    
C40   H17   S    
C2    C3    A    
C25   C26   A    
C32   C33   A    
C4    C21   S    
C11   C13   A    
Cu1   N2    S    
C15   H34   S    
C57   C58   A    
C5    C6    A    
C16   O5    A    
C36   H13   S    
C38   H20   S    
C9    C38   S    
C33   C35   A    
C19   C24   S    
C63   H40   S    
C61   C62   A    
C3    H2    S    
C16   O6    A    
C10   N1    A    
C9    C31   S    
C6    C16   S    
C63   C64   A    
Cu1   O3    S    
C19   H46   S    
C65   C66   A    
C27   C28   A    
C14   C15   S    
C20   H1    S    
C18   O8    A    
C33   H10   S    
C39   H18   S    
C17   H45   S    
