data_mof_unit_16468.cif
_audit_creation_date              2012-12-10T21:19:13-0500
_audit_creation_method            fapswitch 2.2
_symmetry_space_group_name_H-M    P1
_symmetry_Int_Tables_number       1
_space_group_crystal_system       triclinic
_cell_length_a                    15.710325
_cell_length_b                    17.313903
_cell_length_c                    16.801411
_cell_angle_alpha                 90.267524
_cell_angle_beta                  90.55434
_cell_angle_gamma                 90.615563
_cell_volume                      4569.57243038

loop_
_atom_site_label
_atom_site_type_symbol
_atom_type_description
_atom_site_fract_x
_atom_site_fract_y
_atom_site_fract_z
_atom_type_partial_charge
C1    C     C_R   0.499093 0.352523 0.499677 0.972288
C2    C     C_R   0.495578 0.647375 0.500265 0.927597
C3    C     C_R   0.444405 0.766716 0.570212 0.444184
C4    C     C_R   0.503219 0.225465 0.429718 0.434330
C5    C     C_R   0.472327 0.729249 0.500260 -0.284680
C6    C     C_R   0.483907 0.269234 0.497996 -0.273248
C7    C     C_R   0.469098 0.767999 0.427317 -0.417048
C8    C     C_R   0.440538 0.235307 0.561561 -0.424698
C9    C     C_R   0.441556 0.844385 0.422711 0.474486
C10   C     C_R   0.417950 0.156970 0.559449 0.465698
C11   C     C_R   0.421477 0.882824 0.493440 -0.185720
C12   C     C_R   0.435014 0.114435 0.490506 -0.171058
C13   C     C_1   0.417672 0.964600 0.492410 0.114979
C14   C     C_1   0.421950 0.033257 0.491578 0.112277
C15   C     C_R   0.459737 0.440472 0.831855 0.229507
C16   C     C_R   0.572518 0.527587 0.168642 0.211504
C17   C     C_R   0.453126 0.446100 0.747560 0.354891
C18   C     C_R   0.567389 0.532430 0.253133 0.377520
C19   C     C_R   0.549462 0.552825 0.748009 0.455723
C20   C     C_R   0.433236 0.467822 0.250242 0.397881
C21   C     C_R   0.553492 0.552307 0.832758 0.314877
C22   C     C_R   0.435873 0.463020 0.165479 0.299097
C23   C     C_R   0.337760 0.500480 0.499638 0.870397
C24   C     C_R   0.662290 0.500245 0.500351 0.890116
C25   C     C_R   0.506848 0.496066 0.875488 -0.236760
C26   C     C_R   0.504549 0.495705 0.124073 -0.213016
C27   C     C_1   0.505978 0.495553 0.963338 0.132260
C28   C     C_1   0.505554 0.495364 0.036261 0.143925
C29   C     C_3   0.973452 0.439445 0.537320 0.267128
C30   C     C_3   0.027005 0.567706 0.461768 0.261565
C31   C     C_3   0.026548 0.440090 0.460842 0.328201
C32   C     C_3   0.973814 0.567091 0.538264 0.334889
C33   C     C_1   0.249187 0.502313 0.498837 -0.211026
C34   C     C_1   0.750988 0.501189 0.501043 -0.171681
C35   C     C_3   0.029342 0.503578 0.575112 0.324744
C36   C     C_3   0.971028 0.503571 0.423976 0.326534
C37   C     C_3   0.083504 0.504191 0.498627 -0.196495
C38   C     C_3   0.916831 0.502941 0.500509 -0.203911
C39   C     C_1   0.174090 0.503630 0.498428 0.143575
C40   C     C_1   0.826163 0.502066 0.501113 0.159070
C41   C     C_R   0.418921 0.843866 0.566716 0.400244
C42   C     C_R   0.476396 0.148052 0.425019 0.396971
H1    H     H_    0.489507 0.739122 0.373955 0.183285
H2    H     H_    0.422947 0.270150 0.612180 0.233137
N1    N     N_R   0.500020 0.500030 0.707230 -0.208936
N2    N     N_R   0.499980 0.499970 0.292770 -0.198809
O1    O     O_R   0.500000 0.389130 0.566570 -0.584541
O2    O     O_R   0.500000 0.610870 0.433430 -0.629792
O3    O     O_R   0.499990 0.389100 0.433480 -0.569491
O4    O     O_R   0.500010 0.610900 0.566520 -0.525119
O5    O     O_R   0.376780 0.500010 0.566530 -0.614204
O6    O     O_R   0.623220 0.499990 0.433470 -0.539396
O7    O     O_R   0.376780 0.499980 0.433450 -0.574683
O8    O     O_R   0.623220 0.500020 0.566550 -0.623074
Zn1   Zn    Zn3+2 0.500000 0.500020 0.588860 1.006555
Zn2   Zn    Zn3+2 0.500000 0.499980 0.411140 1.013660
O9    O     O_3   0.061977 0.376568 0.420462 -0.612536
C43   C     C_3   0.997032 0.323461 0.398591 -0.261109
H3    H     H_    0.939040 0.351655 0.374362 0.193112
H4    H     H_    0.979622 0.286503 0.449661 0.193774
H5    H     H_    0.021658 0.285037 0.351305 0.170216
O10   O     O_3   0.938567 0.630707 0.578626 -0.612309
C44   C     C_3   0.003680 0.683664 0.600508 -0.286878
H6    H     H_    0.021198 0.720622 0.549466 0.192092
H7    H     H_    0.061615 0.655341 0.624694 0.186234
H8    H     H_    0.979188 0.722120 0.647829 0.171879
O11   O     O_3   0.589465 0.610822 0.705604 -0.515601
C45   C     C_3   0.678422 0.599965 0.706068 -0.152554
H9    H     H_    0.697560 0.538229 0.710427 0.102831
H10   H     H_    0.708482 0.634363 0.754751 0.175212
H11   H     H_    0.704253 0.622536 0.649412 0.178748
O12   O     O_3   0.365875 0.435064 0.290812 -0.579674
C46   C     C_3   0.292542 0.480488 0.279465 -0.198470
H12   H     H_    0.264450 0.471917 0.219221 0.189318
H13   H     H_    0.305635 0.543026 0.290656 0.135182
H14   H     H_    0.243628 0.461633 0.322633 0.188552
O13   O     O_3   0.597965 0.610708 0.872149 -0.544532
C47   C     C_3   0.673531 0.580735 0.905628 -0.299735
H15   H     H_    0.705532 0.538417 0.865995 0.109229
H16   H     H_    0.660913 0.553905 0.964061 0.203434
H17   H     H_    0.718925 0.629296 0.916189 0.190990
O14   O     O_3   0.369876 0.428549 0.122888 -0.574588
C48   C     C_3   0.382418 0.348084 0.121982 -0.273248
H18   H     H_    0.376487 0.323261 0.182558 0.165641
H19   H     H_    0.445052 0.333049 0.095895 0.140640
H20   H     H_    0.331949 0.320969 0.084295 0.190089
O15   O     O_3   0.937844 0.373976 0.574814 -0.601131
C49   C     C_3   0.002999 0.329805 0.610251 0.122020
H21   H     H_    0.026917 0.358200 0.665503 0.175259
H22   H     H_    0.057573 0.320735 0.569578 0.172552
C50   C     C_3   0.967025 0.251094 0.632768 -0.853158
H23   H     H_    0.942894 0.220293 0.578863 0.257110
H24   H     H_    0.017605 0.216009 0.661137 0.212615
H25   H     H_    0.914017 0.258055 0.675387 0.261231
O16   O     O_3   0.063046 0.632971 0.424287 -0.609595
C51   C     C_3   0.998241 0.677517 0.388830 0.130508
H26   H     H_    0.943998 0.687318 0.429693 0.171785
H27   H     H_    0.973669 0.649028 0.333860 0.179397
C52   C     C_3   0.035083 0.755752 0.365744 -0.874900
H28   H     H_    0.087851 0.748026 0.323003 0.259794
H29   H     H_    0.984853 0.791210 0.337340 0.216545
H30   H     H_    0.059801 0.786583 0.419412 0.252205
O17   O     O_3   0.932758 0.504307 0.347589 -0.601860
C53   C     C_3   0.995661 0.496830 0.288727 -0.294685
H31   H     H_    0.013544 0.435521 0.281048 0.196734
H32   H     H_    0.053692 0.532473 0.301198 0.177318
H33   H     H_    0.968634 0.516606 0.231192 0.172604
O18   O     O_3   0.067645 0.502886 0.651474 -0.620759
C54   C     C_3   0.004739 0.510329 0.710327 -0.309634
H34   H     H_    0.946834 0.474497 0.697941 0.184773
H35   H     H_    0.986661 0.571604 0.717880 0.199042
H36   H     H_    0.031839 0.490731 0.767893 0.172059
O19   O     O_3   0.400185 0.881963 0.637055 -0.563927
C55   C     C_3   0.312941 0.901134 0.637763 -0.320379
H37   H     H_    0.271018 0.855772 0.610257 0.122134
H38   H     H_    0.302351 0.957303 0.607953 0.202997
H39   H     H_    0.293052 0.907858 0.700558 0.193300
O20   O     O_3   0.498779 0.104034 0.359591 -0.557508
C56   C     C_3   0.425677 0.090407 0.311674 -0.281866
H40   H     H_    0.384526 0.044708 0.337505 0.193415
H41   H     H_    0.446489 0.069784 0.252471 0.192938
H42   H     H_    0.387760 0.143601 0.301847 0.112037
O21   O     O_3   0.447783 0.730191 0.643260 -0.520152
C57   C     C_3   0.367419 0.696639 0.658976 -0.178678
H43   H     H_    0.341556 0.662726 0.607453 0.112688
H44   H     H_    0.321329 0.741357 0.677066 0.150110
H45   H     H_    0.374538 0.656059 0.709463 0.175763
O22   O     O_3   0.555907 0.256573 0.372070 -0.572944
C58   C     C_3   0.508739 0.272042 0.302056 -0.204753
H46   H     H_    0.441053 0.287105 0.313369 0.151604
H47   H     H_    0.512190 0.222411 0.260321 0.173973
H48   H     H_    0.538513 0.322281 0.271971 0.161199
O23   O     O_3   0.442641 0.885610 0.351738 -0.586429
C59   C     C_3   0.404106 0.842800 0.288844 0.112239
H49   H     H_    0.347019 0.809512 0.308833 0.129261
H50   H     H_    0.450993 0.802721 0.262412 0.141517
C60   C     C_3   0.375461 0.897894 0.223920 -0.844468
H51   H     H_    0.430855 0.931404 0.201524 0.261438
H52   H     H_    0.346474 0.864639 0.173700 0.213311
H53   H     H_    0.327398 0.938280 0.247669 0.240133
O24   O     O_3   0.374443 0.121244 0.621200 -0.605930
C61   C     C_3   0.412363 0.138416 0.695985 0.102642
H54   H     H_    0.388016 0.194174 0.719013 0.156698
H55   H     H_    0.483276 0.141068 0.693075 0.144338
C62   C     C_3   0.388260 0.075341 0.754530 -0.814438
H56   H     H_    0.413405 0.019068 0.733992 0.293574
H57   H     H_    0.415901 0.088783 0.814080 0.205234
H58   H     H_    0.317923 0.070993 0.759459 0.250182
O25   O     O_3   0.417456 0.381946 0.871476 -0.578702
C63   C     C_3   0.468771 0.315502 0.870259 0.146586
H59   H     H_    0.527586 0.325278 0.906654 0.121954
H60   H     H_    0.486768 0.299181 0.808426 0.144576
C64   C     C_3   0.419489 0.248014 0.905425 -0.858028
H61   H     H_    0.361427 0.235793 0.869072 0.258260
H62   H     H_    0.460025 0.195899 0.906161 0.201417
H63   H     H_    0.400628 0.261658 0.967277 0.251659
O26   O     O_3   0.643707 0.555575 0.130039 -0.602016
C65   C     C_3   0.707320 0.498476 0.131853 0.133558
H64   H     H_    0.692139 0.452738 0.087011 0.117136
H65   H     H_    0.714229 0.471197 0.191587 0.174277
C66   C     C_3   0.792704 0.535343 0.111681 -0.833699
H66   H     H_    0.809602 0.580337 0.156644 0.265406
H67   H     H_    0.842921 0.490690 0.111809 0.203919
H68   H     H_    0.789797 0.562259 0.051918 0.238633
O27   O     O_3   0.403985 0.393426 0.704851 -0.588475
C67   C     C_3   0.316903 0.410278 0.715185 0.163672
H69   H     H_    0.303014 0.471285 0.699222 0.149269
H70   H     H_    0.296847 0.400223 0.777561 0.178258
C68   C     C_3   0.263384 0.357316 0.661687 -0.828347
H71   H     H_    0.271305 0.296298 0.680175 0.243786
H72   H     H_    0.195173 0.372689 0.666276 0.223110
H73   H     H_    0.283309 0.363230 0.598794 0.261943
O28   O     O_3   0.634095 0.564536 0.296627 -0.554528
C69   C     C_3   0.636415 0.645401 0.285915 0.178095
H74   H     H_    0.571701 0.670921 0.287418 0.097877
H75   H     H_    0.666560 0.660226 0.228389 0.183510
C70   C     C_3   0.690073 0.682069 0.352162 -0.813321
H76   H     H_    0.755910 0.659342 0.350488 0.254280
H77   H     H_    0.692488 0.745710 0.344430 0.208994
H78   H     H_    0.662062 0.668875 0.411011 0.256203

loop_
_geom_bond_atom_site_label_1
_geom_bond_atom_site_label_2
_ccdc_geom_bond_type
C24   O6    A    
C65   H65   S    
O15   C49   S    
C44   H7    S    
O27   C67   S    
C68   H72   S    
C46   H12   S    
O16   C51   S    
O22   C58   S    
C62   H58   S    
C59   C60   S    
C53   H32   S    
C66   H66   S    
O21   C57   S    
O28   C69   S    
C60   H52   S    
O26   C65   S    
C36   O17   S    
C34   C40   T    
C22   O14   S    
O1    Zn1   S    
C19   C21   A    
C17   N1    A    
C58   H46   S    
C54   H35   S    
C62   H56   S    
C47   H16   S    
O7    Zn2   S    
C24   O8    A    
C51   C52   S    
O18   C54   S    
C15   C17   A    
C68   H71   S    
C69   H74   S    
C12   C42   A    
C35   O18   S    
C2    O4    A    
C65   C66   S    
C62   H57   S    
O20   C56   S    
O24   C61   S    
C52   H28   S    
C45   H9    S    
C23   C33   S    
C63   C64   S    
C51   H27   S    
C29   C38   S    
C19   O11   S    
C32   C38   S    
C64   H62   S    
O17   C53   S    
C31   C36   S    
C48   H19   S    
C58   H48   S    
C43   H5    S    
C44   H8    S    
C38   C40   S    
C13   C14   T    
C67   H70   S    
C46   H13   S    
C61   C62   S    
C18   N2    A    
C53   H31   S    
C66   H67   S    
C3    O21   S    
C23   O7    A    
C56   H41   S    
C16   C26   A    
C60   H53   S    
C4    O22   S    
C1    C6    S    
C32   C35   S    
C4    C6    A    
C54   H36   S    
C41   O19   S    
C50   H23   S    
C5    C7    A    
C47   H15   S    
C42   O20   S    
C59   H50   S    
C70   H77   S    
C43   H3    S    
O13   C47   S    
C24   C34   S    
C31   C37   S    
C30   C37   S    
C55   H38   S    
C10   O24   S    
C65   H64   S    
O11   C45   S    
C30   O16   S    
C63   H60   S    
C50   H24   S    
C23   O5    A    
C48   H18   S    
C49   C50   S    
C29   C31   S    
C70   H78   S    
C51   H26   S    
C48   H20   S    
O10   C44   S    
C16   C18   A    
C33   C39   T    
C64   H63   S    
C9    C11   A    
C69   C70   S    
C10   C12   A    
C57   H45   S    
C8    C10   A    
C52   H29   S    
C49   H22   S    
O14   C48   S    
C7    H1    S    
C67   H69   S    
C68   H73   S    
C61   H55   S    
C2    C5    S    
N2    Zn2   S    
C15   O25   S    
C66   H68   S    
C57   H44   S    
O19   C55   S    
C56   H42   S    
O2    Zn2   S    
C21   C25   A    
O8    Zn1   S    
C3    C41   A    
C35   C37   S    
C16   O26   S    
C63   H59   S    
C1    O1    A    
C8    H2    S    
C20   C22   A    
O12   C46   S    
C3    C5    A    
C6    C8    A    
C56   H40   S    
C19   N1    A    
C55   H37   S    
C59   H49   S    
C25   C27   S    
O3    Zn2   S    
C60   H51   S    
C29   C35   S    
C26   C28   S    
O4    Zn1   S    
C30   C36   S    
C2    O2    A    
C31   O9    S    
C36   C38   S    
C12   C14   S    
C32   O10   S    
C37   C39   S    
C17   O27   S    
C54   H34   S    
C50   H25   S    
C30   C32   S    
C11   C13   S    
C47   H17   S    
O9    C43   S    
O23   C59   S    
C4    C42   A    
C45   H11   S    
C1    O3    A    
C46   H14   S    
C11   C41   A    
O5    Zn1   S    
C69   H75   S    
C29   O15   S    
C55   H39   S    
C15   C25   A    
C44   H6    S    
C18   O28   S    
C7    C9    A    
C52   H30   S    
C49   H21   S    
N1    Zn1   S    
C67   C68   S    
C45   H10   S    
C70   H76   S    
C22   C26   A    
C21   O13   S    
C27   C28   T    
C61   H54   S    
C20   O12   S    
C64   H61   S    
O25   C63   S    
C43   H4    S    
C53   H33   S    
C20   N2    A    
O6    Zn2   S    
C57   H43   S    
C58   H47   S    
C9    O23   S    
