data_mof_unit_66790.cif
_audit_creation_date              2013-03-05T15:41:06-0500
_audit_creation_method            fapswitch 2.2
_symmetry_space_group_name_H-M    P1
_symmetry_Int_Tables_number       1
_space_group_crystal_system       triclinic
_cell_length_a                    8.496505
_cell_length_b                    14.620105
_cell_length_c                    15.384309
_cell_angle_alpha                 95.273956
_cell_angle_beta                  99.210685
_cell_angle_gamma                 91.202168
_cell_volume                      1877.17086352

loop_
_atom_site_label
_atom_site_type_symbol
_atom_site_description
_atom_site_fract_x
_atom_site_fract_y
_atom_site_fract_z
_atom_type_partial_charge
P1    P     P_3+3 0.947560 0.714050 0.560480 0.464992
O1    O     O_2   0.113690 0.728200 0.532750 -0.389718
O2    O     O_3   0.871900 0.612110 0.540440 -0.358146
O3    O     O_3   0.325660 0.668890 0.372600 -0.392402
O4    O     O_2   0.236921 0.829257 0.450433 -0.380360
O5    O     O_3   0.980153 0.747880 0.675508 -0.580616
O6    O     O_3   0.270707 0.848359 0.292335 -0.572198
H1    H     H_    0.319117 0.778400 0.178162 0.075966
C1    C     C_3   0.338817 0.923476 0.168649 -0.480032
H2    H     H_    0.212501 0.929533 0.139844 0.234262
H3    H     H_    0.375527 0.985307 0.214526 0.207667
P2    P     P_3+3 0.325150 0.423860 0.297970 0.472588
P3    P     P_3+3 0.859810 0.591591 0.213069 0.454564
O7    O     O_2   0.147570 0.451710 0.282630 -0.350461
O8    O     O_3   0.905540 0.621350 0.329600 -0.349296
O9    O     O_2   0.991454 0.536640 0.176385 -0.408737
O10   O     O_3   0.342213 0.307441 0.258304 -0.598202
O11   O     O_3   0.855271 0.689640 0.155530 -0.545015
C2    C     C_3   0.981630 0.751869 0.189821 0.388299
H4    H     H_    0.076658 0.737911 0.149961 0.069509
H5    H     H_    0.027409 0.745937 0.260720 0.159714
C3    C     C_3   0.925630 0.850457 0.180981 -0.756334
H6    H     H_    0.020981 0.901058 0.211712 0.218340
C4    C     C_3   0.732740 0.331352 0.287866 0.311288
H7    H     H_    0.631922 0.347377 0.323407 0.136441
H8    H     H_    0.812465 0.393134 0.290800 0.080789
C5    C     C_3   0.665364 0.300919 0.190764 -0.448958
H9    H     H_    0.562879 0.342188 0.167416 0.184091
H10   H     H_    0.755524 0.313359 0.148170 0.167955
Ba1   Ba    Ba6+2 0.142880 0.544780 0.454020 1.571924
C6    C     C_3   0.098683 0.698364 0.722294 0.173451
H11   H     H_    0.199391 0.689314 0.685941 0.064161
C7    C     C_3   0.165719 0.751662 0.813086 -0.747582
H12   H     H_    0.271015 0.715764 0.844223 0.187030
H13   H     H_    0.207277 0.821775 0.803983 0.185248
C8    C     C_3   0.208702 0.247390 0.253594 0.850405
C9    C     C_3   0.244893 0.153424 0.208280 -1.001550
H14   H     H_    0.246316 0.155307 0.136720 0.277472
H15   H     H_    0.153782 0.100275 0.215706 0.246638
H16   H     H_    0.363553 0.132486 0.238261 0.294778
P4    P     P_3+3 0.862730 0.285940 0.439440 0.487589
O12   O     O_2   0.696600 0.271740 0.467230 -0.354523
O13   O     O_3   0.938380 0.387880 0.459490 -0.382549
O14   O     O_3   0.484630 0.331100 0.627330 -0.378648
O15   O     O_3   0.821064 0.261273 0.325406 -0.599284
P5    P     P_3+3 0.955860 0.381888 0.786268 0.536136
O16   O     O_3   0.389110 0.548970 0.605210 -0.442638
O17   O     O_3   0.904740 0.378630 0.670330 -0.290655
O18   O     O_2   0.834221 0.445437 0.823687 -0.305120
O19   O     O_3   0.896071 0.277061 0.817103 -0.511700
Ba2   Ba    Ba6+2 0.667290 0.455210 0.545900 1.597034
P6    P     P_3+3 0.348379 0.792920 0.386836 0.451746
C10   C     C_3   0.362810 0.840338 0.223095 0.480224
O20   O     O_3   0.421180 0.451020 0.394720 -0.428886
C11   C     C_3   0.499937 0.739160 0.669598 0.434480
H17   H     H_    0.621778 0.733897 0.652615 0.110075
H18   H     H_    0.407618 0.711152 0.614174 0.127365
C12   C     C_3   0.459602 0.839901 0.682640 -0.541236
H19   H     H_    0.468819 0.873589 0.621517 0.167651
H20   H     H_    0.333592 0.844625 0.692111 0.163614
P7    P     P_3+3 0.482107 0.574375 0.718432 0.458105
O21   O     O_2   0.662730 0.548230 0.717350 -0.261676
O22   O     O_3   0.491929 0.694351 0.746012 -0.571203
H21   H     H_    0.829560 0.864182 0.219657 0.185158
C13   C     C_3   0.016459 0.213903 0.812917 0.210088
H22   H     H_    0.045847 0.204262 0.744736 0.105582
H23   H     H_    0.124152 0.236458 0.862087 0.054482
C14   C     C_3   0.949245 0.124169 0.836833 -0.584471
H24   H     H_    0.836117 0.106513 0.790968 0.220220
H25   H     H_    0.923563 0.134953 0.905589 0.214554
P8    P     P_3+3 0.456320 0.211892 0.624028 0.453053
C15   C     C_3   0.471130 0.235633 0.790268 0.354110
H26   H     H_    0.340764 0.219733 0.781200 0.009748
O23   O     O_2   0.566347 0.167654 0.562219 -0.363361
O24   O     O_3   0.541182 0.181962 0.727523 -0.502600
H27   H     H_    0.492827 0.310192 0.785862 0.116612
H28   H     H_    0.485871 0.256644 0.930619 0.129435
C16   C     C_3   0.546504 0.215867 0.882212 -0.686431
H29   H     H_    0.673875 0.238861 0.895082 0.232123
C17   C     C_R   0.015338 0.944522 0.551329 -0.087700
C18   C     C_R   0.822200 0.807058 0.507502 0.174569
C19   C     C_R   0.667213 0.778507 0.468137 -0.463710
C20   C     C_R   0.550838 0.839292 0.439939 0.205419
C21   C     C_R   0.592671 0.932261 0.442128 -0.282356
C22   C     C_R   0.751482 0.964937 0.471981 -0.005890
C23   C     C_R   0.864845 0.904596 0.512279 -0.003126
C24   C     C_R   0.942967 0.098134 0.501655 -0.095093
C25   C     C_R   0.053147 0.039896 0.548554 0.118251
C26   C     C_R   0.984890 0.195922 0.502135 0.245279
C27   C     C_R   0.131487 0.228937 0.552078 -0.435610
C28   C     C_R   0.245922 0.169241 0.588113 0.167421
C29   C     C_R   0.205966 0.075834 0.586993 -0.189857
C30   C     C_R   0.800470 0.054316 0.454018 -0.024494
H30   H     H_    0.502341 0.978090 0.416025 0.191325
H31   H     H_    0.295703 0.030768 0.615509 0.145797
H32   H     H_    0.164209 0.301223 0.554932 0.162640
H33   H     H_    0.103643 0.902149 0.585021 0.158072
C31   C     C_R   0.265427 0.449602 0.773860 -0.473661
C32   C     C_R   0.164616 0.425476 0.832594 0.236985
C33   C     C_R   0.216488 0.444408 0.924465 -0.250977
C34   C     C_R   0.362493 0.494399 0.958001 0.122408
C35   C     C_R   0.443954 0.532848 0.894381 -0.246213
C36   C     C_R   0.395201 0.511283 0.802376 0.229942
C37   C     C_R   0.593407 0.531897 0.085499 -0.271315
C38   C     C_R   0.662212 0.536588 0.174854 0.302594
C39   C     C_R   0.412998 0.487100 0.215360 0.345972
C40   C     C_R   0.340484 0.485863 0.124885 -0.298537
C41   C     C_R   0.430582 0.505867 0.057219 0.055938
C42   C     C_R   0.573324 0.511841 0.237442 -0.482298
H34   H     H_    0.670094 0.548397 0.039215 0.171415
H35   H     H_    0.141388 0.419909 0.968303 0.132490
H36   H     H_    0.216241 0.466518 0.107684 0.182729
H37   H     H_    0.543266 0.581438 0.914935 0.164498
H38   H     H_    0.633335 0.504375 0.303078 0.189916
H39   H     H_    0.233533 0.427807 0.704099 0.171980
N1    N     N_2   0.613926 0.205179 0.179576 -0.037919
H40   H     H_    0.703025 0.163218 0.202195 0.255341
C43   C     C_3   0.548120 0.172474 0.090466 -0.844295
H41   H     H_    0.504370 0.100137 0.087762 0.267428
H42   H     H_    0.644873 0.175670 0.050377 0.242876
H43   H     H_    0.446874 0.214740 0.065248 0.254440
C44   C     C_2   0.029090 0.606329 0.731847 1.000844
O25   O     O_2   0.958556 0.595422 0.793059 -0.556028
O26   O     O_R   0.031987 0.534452 0.666789 -0.730681
H44   H     H_    0.106153 0.546903 0.623960 0.300767
C45   C     C_2   0.048692 0.760167 0.876880 1.237116
O27   O     O_2   0.929021 0.804421 0.860788 -0.588634
O28   O     O_R   0.075775 0.714010 0.953243 -0.813816
H45   H     H_    0.984056 0.718460 0.987818 0.343453
N2    N     N_2   0.065713 0.280847 0.202714 -0.092902
H46   H     H_    0.967814 0.239795 0.206006 0.168757
C46   C     C_3   0.070563 0.297193 0.111386 -0.927500
H47   H     H_    0.194036 0.311579 0.100255 0.252792
H48   H     H_    0.021750 0.235858 0.066217 0.246345
H49   H     H_    0.995839 0.356159 0.093912 0.260896
N3    N     N_2   0.184849 0.234265 0.342637 -0.146197
H50   H     H_    0.091001 0.189521 0.345264 0.161375
C47   C     C_3   0.328036 0.215780 0.402618 -0.716882
H51   H     H_    0.314968 0.147797 0.427758 0.218991
H52   H     H_    0.350859 0.272742 0.455872 0.255828
H53   H     H_    0.436357 0.213223 0.371253 0.292131
N4    N     N_2   0.529817 0.834864 0.256482 -0.134994
H54   H     H_    0.602300 0.893407 0.264597 0.152648
C48   C     C_3   0.595400 0.748897 0.233657 -0.871888
H55   H     H_    0.600862 0.742675 0.161957 0.290203
H56   H     H_    0.517237 0.691894 0.246588 0.259667
H57   H     H_    0.712578 0.746197 0.275980 0.288036
N5    N     N_2   0.434830 0.920650 0.098405 -0.097601
H58   H     H_    0.556550 0.925107 0.118404 0.202002
C49   C     C_3   0.380475 0.857674 0.020928 -0.720695
H59   H     H_    0.456644 0.866876 0.969904 0.249297
H60   H     H_    0.256214 0.872474 0.993105 0.265099
H61   H     H_    0.387710 0.785424 0.037454 0.246418
N6    N     N_2   0.562835 0.886366 0.758031 -0.046317
H62   H     H_    0.504227 0.931764 0.795691 0.209889
C50   C     C_3   0.709599 0.924875 0.738730 -0.620087
H63   H     H_    0.684686 0.984473 0.699330 0.211818
H64   H     H_    0.772724 0.872907 0.701502 0.246080
H65   H     H_    0.787416 0.947260 0.801927 0.265167
C51   C     C_2   0.057492 0.045800 0.829894 1.110234
O29   O     O_2   0.086543 0.998212 0.891379 -0.627574
O30   O     O_R   0.118600 0.024476 0.752037 -0.822100
H66   H     H_    0.190281 0.970087 0.755391 0.303752
C52   C     C_2   0.531151 0.115552 0.893725 1.136155
O31   O     O_2   0.649156 0.069020 0.902960 -0.695605
O32   O     O_R   0.383508 0.077472 0.901063 -0.804839
H67   H     H_    0.390382 0.010974 0.914204 0.327773
C53   C     C_2   0.624322 0.682369 0.452897 1.121929
O33   O     O_2   0.651106 0.638992 0.386836 -0.657170
O34   O     O_R   0.545216 0.641482 0.510773 -0.807853
H68   H     H_    0.491744 0.582438 0.482073 0.398987
C54   C     C_2   0.758149 0.071268 0.360818 1.001402
O35   O     O_2   0.622448 0.090051 0.330618 -0.697472
O36   O     O_R   0.871694 0.053384 0.305476 -0.836769
H69   H     H_    0.824098 0.043249 0.240610 0.300843
C55   C     C_2   0.867738 0.869288 0.086943 1.097809
O37   O     O_2   0.761226 0.820800 0.041175 -0.607611
O38   O     O_R   0.931215 0.944877 0.053285 -0.794713
H70   H     H_    0.877507 0.952741 0.990833 0.376583

loop_
_geom_bond_atom_site_label_1
_geom_bond_atom_site_label_2
_geom_bond_distance
_ccdc_geom_bond_type
P4    C26   1.926098 S    
Ba1   Ba2   4.689148 S    
C30   C54   1.466494 S    
C16   C52   1.498834 S    
C45   O27   1.220737 D    
C17   H33   1.081383 S    
C5    H10   1.107271 S    
P4    O12   1.554186 D    
C2    H4    1.100905 S    
C4    C5    1.533173 S    
C15   H27   1.111735 S    
O28   H45   1.011394 S    
O38   H70   1.013260 S    
C31   H39   1.080359 S    
C14   H25   1.111751 S    
C19   C53   1.433145 S    
H28   C16   1.108815 S    
P6    C20   1.866950 S    
Ba1   O20   2.983158 S    
P5    O18   1.547636 D    
C34   C35   1.433418 A    
P3    O11   1.750612 S    
O3    P6    1.808909 S    
C4    O15   1.395965 S    
C8    C9    1.542107 S    
P7    C36   1.886670 S    
N5    C49   1.444265 S    
O6    P6    1.771452 S    
O11   C2    1.395748 S    
C9    H16   1.101334 S    
C48   H57   1.102526 S    
C53   O34   1.369095 S    
C39   C40   1.427479 A    
C12   H20   1.106106 S    
C31   C36   1.397197 A    
C24   C30   1.417902 A    
N1    H40   1.022221 S    
O14   P8    1.749327 S    
C10   N4    1.436216 S    
C40   H36   1.071751 S    
P7    O22   1.763356 S    
C43   H41   1.108524 S    
C7    C45   1.504161 S    
C17   C23   1.412420 A    
C12   N6    1.442398 S    
O36   H69   1.011167 S    
C22   C30   1.427413 A    
O17   Ba2   2.870657 S    
C6    H11   1.098539 S    
C14   H24   1.107874 S    
C13   H23   1.112699 S    
C49   H61   1.109621 S    
C11   O22   1.407519 S    
P2    O10   1.771477 S    
C15   C16   1.512402 S    
C40   C41   1.434191 A    
C6    C7    1.552149 S    
O4    P6    1.535735 D    
O10   C8    1.408214 S    
C1    H2    1.102276 S    
N6    C50   1.442185 S    
C18   C23   1.456274 A    
O12   Ba2   2.872199 S    
C5    N1    1.444241 S    
C34   C41   1.535859 S    
C55   O38   1.396375 S    
O5    C6    1.396679 S    
P4    O13   1.594151 S    
C52   O31   1.220257 D    
C35   C36   1.413947 A    
Ba2   O21   2.860703 S    
O7    Ba1   2.860368 S    
C15   O24   1.402156 S    
C8    N3    1.445689 S    
C37   C38   1.399959 A    
C54   O36   1.398769 S    
C18   C19   1.396515 A    
C3    H6    1.102312 S    
C9    H15   1.111528 S    
P5    O17   1.762881 S    
P1    O5    1.769003 S    
C25   C29   1.407169 A    
Ba1   O16   2.863793 S    
C2    C3    1.538350 S    
C21   C22   1.412117 A    
P3    C38   1.830688 S    
C28   C29   1.398149 A    
O2    Ba2   2.864633 S    
C16   H29   1.107835 S    
C48   H55   1.106935 S    
O16   Ba2   2.982349 S    
C12   H19   1.113582 S    
C22   C23   1.426675 A    
C29   H31   1.083990 S    
O3    Ba1   2.862780 S    
P1    O2    1.594176 S    
C43   H43   1.109915 S    
C51   O30   1.392363 S    
O2    Ba1   2.978590 S    
N2    C46   1.453523 S    
C9    H14   1.105761 S    
C8    N2    1.455630 S    
C48   H56   1.106663 S    
C20   C21   1.393706 A    
C13   C14   1.518951 S    
C11   H17   1.110010 S    
C7    H12   1.110864 S    
C11   H18   1.103730 S    
C21   H30   1.082406 S    
C4    H7    1.105623 S    
C1    H3    1.101358 S    
N6    H62   1.029418 S    
C47   H52   1.104209 S    
C42   H38   1.072052 S    
C33   H35   1.078368 S    
O14   Ba2   2.862257 S    
N3    C47   1.450819 S    
C55   O37   1.222549 D    
P2    O7    1.558026 D    
C19   C20   1.387828 A    
P3    O8    1.783457 S    
O32   H67   1.012030 S    
N4    C48   1.422794 S    
Ba1   O13   2.864108 S    
P3    O9    1.539948 D    
C1    C10   1.537347 S    
O6    C10   1.417236 S    
C44   O26   1.386447 S    
C37   C41   1.415205 A    
C54   O35   1.218968 D    
C37   H34   1.078552 S    
O8    Ba1   2.869932 S    
O30   H66   1.011768 S    
C38   C42   1.383389 A    
C53   O33   1.203519 D    
C45   O28   1.397921 S    
C50   H63   1.111392 S    
P2    Ba1   3.436862 S    
N4    H54   1.030078 S    
C50   H65   1.102795 S    
C6    C44   1.487469 S    
C4    H8    1.110777 S    
C15   H26   1.110931 S    
C47   H53   1.105247 S    
H1    C10   1.106500 S    
O16   P7    1.795673 S    
P8    O23   1.547027 D    
C3    C55   1.503938 S    
C27   H32   1.082279 S    
P2    C39   1.875597 S    
P5    O19   1.734949 S    
C1    N5    1.452734 S    
C32   C33   1.411385 A    
O1    Ba1   2.871689 S    
Ba2   O20   2.863075 S    
C51   O29   1.221946 D    
P5    C32   1.877344 S    
C50   H64   1.108322 S    
N2    H46   1.026060 S    
C44   O25   1.214763 D    
C17   C25   1.430334 A    
C35   H37   1.079250 S    
P8    O24   1.737888 S    
O13   Ba2   2.979304 S    
C27   C28   1.402287 A    
C46   H49   1.108824 S    
P1    O1    1.553683 D    
C52   O32   1.387052 S    
P1    Ba1   3.443573 S    
C7    H13   1.105475 S    
N1    C43   1.429501 S    
C46   H47   1.108620 S    
C49   H60   1.107552 S    
N5    H58   1.029608 S    
C13   H22   1.113809 S    
P7    O21   1.591602 D    
O19   C13   1.397451 S    
C43   H42   1.106502 S    
C47   H51   1.108858 S    
C3    H21   1.095891 S    
P8    C28   1.861042 S    
C24   C25   1.432496 A    
C46   H48   1.112017 S    
C31   C32   1.402930 A    
O34   H68   0.997889 S    
C11   C12   1.521784 S    
C5    H9    1.101383 S    
C24   C26   1.465177 A    
P4    O15   1.735679 S    
C49   H59   1.109725 S    
N3    H50   1.028912 S    
C33   C34   1.423737 A    
C26   C27   1.405342 A    
C14   C51   1.491052 S    
P1    C18   1.906400 S    
P4    Ba2   3.444158 S    
P2    O20   1.589906 S    
O26   H44   1.007242 S    
C2    H5    1.109728 S    
C39   C42   1.382190 A    
