data_mof_unit_25311.cif
_audit_creation_date              2013-03-05T15:41:47-0500
_audit_creation_method            fapswitch 2.2
_symmetry_space_group_name_H-M    P1
_symmetry_Int_Tables_number       1
_space_group_crystal_system       triclinic
_cell_length_a                    19.331378
_cell_length_b                    8.690562
_cell_length_c                    7.436897
_cell_angle_alpha                 102.902529
_cell_angle_beta                  94.213022
_cell_angle_gamma                 92.668624
_cell_volume                      1212.0157842

loop_
_atom_site_label
_atom_site_type_symbol
_atom_site_description
_atom_site_fract_x
_atom_site_fract_y
_atom_site_fract_z
_atom_type_partial_charge
O1    O     O_R   0.505010 0.286130 0.619770 -0.588093
O2    O     O_R   0.494990 0.713870 0.380230 -0.603333
O3    O     O_R   0.491990 0.256780 0.308370 -0.563246
O4    O     O_R   0.508010 0.743220 0.691630 -0.590235
C1    C     C_R   0.498124 0.199695 0.453248 0.926302
C2    C     C_R   0.502214 0.800334 0.546730 0.874883
O5    O     O_R   0.406650 0.514660 0.655750 -0.570162
O6    O     O_R   0.593350 0.485340 0.344250 -0.538614
O7    O     O_R   0.393640 0.485310 0.344340 -0.571202
O8    O     O_R   0.606360 0.514690 0.655660 -0.591840
C3    C     C_R   0.367604 0.495441 0.501763 0.901388
C4    C     C_R   0.632413 0.504642 0.498221 0.777820
Cu1   Cu    Cu3+1 0.507710 0.517380 0.684380 0.966498
Cu2   Cu    Cu3+1 0.492290 0.482620 0.315620 0.979604
C5    C     C_R   0.261383 0.592427 0.645890 0.397302
C6    C     C_R   0.738072 0.406266 0.350745 0.442563
C7    C     C_R   0.189023 0.597252 0.639560 -0.244089
C8    C     C_R   0.810265 0.406090 0.349108 -0.220001
H1    H     H_    0.166571 0.683893 0.743459 0.166836
H2    H     H_    0.832017 0.327149 0.236285 0.180380
C9    C     C_R   0.146222 0.494069 0.499292 -0.001333
C10   C     C_R   0.853692 0.505427 0.491338 -0.058646
C11   C     C_R   0.176427 0.385170 0.364063 -0.248153
C12   C     C_R   0.824151 0.609116 0.633186 -0.123293
H3    H     H_    0.143671 0.302547 0.257430 0.162493
H4    H     H_    0.857547 0.688716 0.741048 0.203796
C13   C     C_R   0.248526 0.378059 0.366788 -0.061504
C14   C     C_R   0.751995 0.615124 0.635217 -0.053629
C15   C     C_R   0.291666 0.486814 0.505389 -0.151342
C16   C     C_R   0.708368 0.510457 0.494130 -0.209681
N1    N     N_R   0.028277 0.401030 0.357779 -0.231270
N2    N     N_R   0.971656 0.600415 0.629066 -0.232150
N3    N     N_R   0.959500 0.403436 0.355826 -0.226987
N4    N     N_R   0.040372 0.598033 0.631004 -0.236871
C17   C     C_R   0.929836 0.503128 0.491661 0.454701
C18   C     C_R   0.070066 0.498194 0.495512 0.446730
C19   C     C_2   0.497426 0.031915 0.426864 -0.360048
C20   C     C_2   0.503395 0.968168 0.573095 -0.359345
H5    H     H_    0.491962 0.960514 0.285870 0.173608
H6    H     H_    0.509053 0.039623 0.714117 0.179639
N5    N     N_2   0.480680 0.456420 0.038530 -0.217874
N6    N     N_2   0.519320 0.543580 0.961470 -0.220782
H7    H     H_    0.444908 0.379557 0.948901 0.231369
H8    H     H_    0.554955 0.620784 0.051165 0.226923
O9    O     O_3   0.302949 0.702299 0.778067 -0.576338
C21   C     C_3   0.299331 0.664373 0.952420 0.059044
H9    H     H_    0.310969 0.538840 0.946241 0.145435
H10   H     H_    0.247094 0.685307 0.003257 0.141467
C22   C     C_3   0.352894 0.770057 0.091106 -0.666912
H11   H     H_    0.349012 0.746132 0.230651 0.205793
H12   H     H_    0.405998 0.747404 0.048454 0.250077
H13   H     H_    0.343577 0.896045 0.097793 0.270270
O10   O     O_3   0.696595 0.310470 0.205393 -0.560603
C23   C     C_3   0.686289 0.159215 0.242768 0.084707
H14   H     H_    0.663119 0.166525 0.377149 0.116716
H15   H     H_    0.736291 0.100741 0.245860 0.171459
C24   C     C_3   0.636351 0.057376 0.090045 -0.710871
H16   H     H_    0.657912 0.047803 0.953960 0.249550
H17   H     H_    0.628262 0.937140 0.116121 0.191961
H18   H     H_    0.585484 0.111175 0.085570 0.246263
C25   C     C_2   0.275400 0.250254 0.226769 0.353349
H19   H     H_    0.244019 0.199622 0.098121 0.073808
O11   O     O_2   0.330638 0.194220 0.256648 -0.562264
C26   C     C_2   0.723794 0.737597 0.779653 0.385752
H20   H     H_    0.670877 0.771271 0.762349 0.065974
O12   O     O_2   0.759909 0.804647 0.919414 -0.553750

loop_
_geom_bond_atom_site_label_1
_geom_bond_atom_site_label_2
_geom_bond_distance
_ccdc_geom_bond_type
O9    C21   1.413103 S    
O5    C3    1.298044 A    
O7    Cu2   1.935133 S    
N1    N3    1.329759 A    
C19   C20   1.326450 D    
C11   C13   1.396857 A    
C13   C15   1.420025 A    
O7    C3    1.294752 A    
N5    N6    1.290046 D    
N4    C18   1.355944 A    
O6    C4    1.298050 A    
C22   H13   1.108650 S    
C4    C16   1.469615 S    
C26   H20   1.083517 S    
C22   H12   1.109952 S    
C14   C16   1.418413 A    
C23   C24   1.521735 S    
C19   H5    1.087529 S    
C9    C18   1.472660 S    
C8    C10   1.401106 A    
O10   C23   1.411295 S    
C6    O10   1.383136 S    
C20   H6    1.087873 S    
C10   C17   1.472869 S    
N5    H7    1.029141 S    
C21   C22   1.520183 S    
C24   H16   1.110175 S    
O2    C2    1.291002 A    
O3    Cu2   1.951070 S    
N6    H8    1.029194 S    
Cu2   N5    2.016533 S    
O1    C1    1.290989 A    
O8    C4    1.295099 A    
C10   C12   1.401025 A    
C6    C8    1.396610 A    
Cu1   N6    2.016533 S    
C7    H1    1.082713 S    
C12   H4    1.083186 S    
C5    C15   1.410160 A    
C8    H2    1.083104 S    
C9    C11   1.400251 A    
C25   H19   1.085749 S    
O2    Cu2   1.956469 S    
C23   H15   1.113906 S    
C24   H17   1.110704 S    
O1    Cu1   1.956469 S    
C1    C19   1.426445 S    
C5    O9    1.384555 S    
C6    C16   1.412046 A    
N2    C17   1.357117 A    
C14   C26   1.487733 S    
O5    Cu1   1.948049 S    
C11   H3    1.083985 S    
C3    C15   1.468951 S    
O4    C2    1.283140 A    
C22   H11   1.110049 S    
C21   H9    1.115739 S    
O4    Cu1   1.951070 S    
C5    C7    1.399048 A    
C23   H14   1.115122 S    
C24   H18   1.109766 S    
O6    Cu2   1.948049 S    
C13   C25   1.484779 S    
Cu1   Cu2   2.683759 S    
N3    C17   1.356634 A    
C2    C20   1.426514 S    
N1    C18   1.357748 A    
C21   H10   1.112760 S    
C25   O11   1.220095 D    
C7    C9    1.401145 A    
C12   C14   1.399345 A    
N2    N4    1.328580 A    
O3    C1    1.283152 A    
O8    Cu1   1.935131 S    
C26   O12   1.221598 D    
