data_mof_unit_67583.cif
_audit_creation_date              2013-03-05T15:44:52-0500
_audit_creation_method            fapswitch 2.2
_symmetry_space_group_name_H-M    P1
_symmetry_Int_Tables_number       1
_space_group_crystal_system       triclinic
_cell_length_a                    15.698054
_cell_length_b                    15.683531
_cell_length_c                    10.063738
_cell_angle_alpha                 89.50858
_cell_angle_beta                  59.985658
_cell_angle_gamma                 89.923076
_cell_volume                      2145.35094467

loop_
_atom_site_label
_atom_site_type_symbol
_atom_site_description
_atom_site_fract_x
_atom_site_fract_y
_atom_site_fract_z
_atom_type_partial_charge
O1    O     O_R   0.422430 0.089640 0.419570 -0.618507
O2    O     O_R   0.577570 0.910360 0.580430 -0.541861
O3    O     O_R   0.577570 0.089640 0.580430 -0.555381
O4    O     O_R   0.422430 0.910360 0.419570 -0.528871
O5    O     O_R   0.922430 0.589640 0.419570 -0.614555
O6    O     O_R   0.077570 0.410360 0.580430 -0.533305
O7    O     O_R   0.077570 0.589640 0.580430 -0.607460
O8    O     O_R   0.922430 0.410360 0.419570 -0.510959
O9    O     O_R   0.384170 0.089650 0.673910 -0.577909
O10   O     O_R   0.615830 0.910350 0.326090 -0.579833
O11   O     O_R   0.615830 0.089650 0.326090 -0.616088
O12   O     O_R   0.384170 0.910350 0.673910 -0.615792
O13   O     O_R   0.884170 0.589650 0.673910 -0.586859
O14   O     O_R   0.115830 0.410350 0.326090 -0.574531
O15   O     O_R   0.115830 0.589650 0.326090 -0.621897
O16   O     O_R   0.884170 0.410350 0.673910 -0.610795
C1    C     C_R   0.372292 0.118224 0.561241 0.739601
C2    C     C_R   0.626059 0.881280 0.439496 0.768993
C3    C     C_R   0.626591 0.118680 0.438937 0.749750
C4    C     C_R   0.374389 0.879844 0.560684 0.770710
C5    C     C_R   0.871956 0.618078 0.561556 0.741059
C6    C     C_R   0.126145 0.381153 0.439211 0.758750
C7    C     C_R   0.120865 0.624283 0.442081 0.687458
C8    C     C_R   0.875719 0.380012 0.560325 0.746618
C9    C     C_2   0.511267 0.986779 0.915707 0.567003
C10   C     C_2   0.489425 0.986407 0.082793 0.544297
C11   C     C_2   0.011141 0.485582 0.915780 0.544395
C12   C     C_2   0.989592 0.484995 0.082750 0.563734
Cu1   Cu    Cu3+1 0.522650 1.000000 0.349410 0.969293
Cu2   Cu    Cu3+1 0.477350 0.000000 0.650590 0.985777
Cu3   Cu    Cu3+1 0.022650 0.500000 0.349410 0.962507
Cu4   Cu    Cu3+1 0.977350 0.500000 0.650590 0.960448
N1    N     N_2   0.443290 0.000000 0.876860 -0.063545
N2    N     N_2   0.556710 0.000000 0.123140 -0.078754
N3    N     N_2   0.943290 0.500000 0.876860 -0.071406
N4    N     N_2   0.056710 0.500000 0.123140 -0.086741
C13   C     C_2   0.295178 0.817003 0.601680 0.334795
C14   C     C_2   0.702717 0.182949 0.402172 0.202582
C15   C     C_2   0.683079 0.803764 0.413275 0.227825
C16   C     C_2   0.310914 0.194452 0.589904 0.224308
C17   C     C_2   0.805643 0.311205 0.596391 0.193072
C18   C     C_2   0.168162 0.710862 0.422249 0.209250
C19   C     C_2   0.185519 0.304635 0.410696 0.211338
C20   C     C_2   0.809003 0.693583 0.591970 0.223720
C21   C     C_2   0.286115 0.771538 0.494572 0.241470
C22   C     C_2   0.709208 0.223283 0.515719 0.277099
C23   C     C_2   0.734766 0.792185 0.485786 0.285521
C24   C     C_2   0.258625 0.205981 0.518249 0.256536
C25   C     C_2   0.799185 0.271161 0.483041 0.248770
C26   C     C_2   0.184180 0.739579 0.534670 0.296965
C27   C     C_2   0.235839 0.293154 0.485311 0.310108
C28   C     C_2   0.757839 0.705016 0.518381 0.248182
O17   O     O_3   0.648838 0.976609 0.015270 -0.539430
C29   C     C_3   0.718741 0.021563 0.036708 0.234117
H1    H     H_    0.721788 0.997143 0.136519 0.204294
H2    H     H_    0.703572 0.090909 0.046824 0.148473
C30   C     C_3   0.822433 0.006978 0.903933 -0.980193
H3    H     H_    0.837653 0.047592 0.804150 0.219901
H4    H     H_    0.876768 0.024508 0.939268 0.227460
H5    H     H_    0.833027 0.938982 0.870004 0.274596
O18   O     O_3   0.354819 0.028654 0.987097 -0.567328
C31   C     C_3   0.281356 0.983556 0.974070 0.261025
H6    H     H_    0.294637 0.913564 0.968563 0.154105
H7    H     H_    0.277944 0.004742 0.872550 0.197019
C32   C     C_3   0.179187 0.001044 0.109627 -0.988660
H8    H     H_    0.174308 0.066895 0.151518 0.275821
H9    H     H_    0.122784 0.992444 0.074893 0.221023
H10   H     H_    0.161531 0.955519 0.204723 0.257518
O19   O     O_3   0.149020 0.476938 0.016193 -0.529348
C33   C     C_3   0.217321 0.525681 0.035279 0.213818
H11   H     H_    0.223856 0.501040 0.132499 0.200438
H12   H     H_    0.197703 0.594129 0.047117 0.128457
C34   C     C_3   0.320224 0.517191 0.898159 -1.021122
H13   H     H_    0.328717 0.555978 0.799799 0.237561
H14   H     H_    0.374784 0.540860 0.928899 0.215345
H15   H     H_    0.335899 0.449427 0.865014 0.269326
O20   O     O_3   0.853515 0.525468 0.988636 -0.578542
C35   C     C_3   0.781846 0.480539 0.970562 0.262439
H16   H     H_    0.797536 0.410975 0.958231 0.161302
H17   H     H_    0.777616 0.505120 0.871552 0.193950
C36   C     C_3   0.678637 0.492531 0.106927 -0.988131
H18   H     H_    0.667527 0.558858 0.149384 0.279892
H19   H     H_    0.623476 0.478608 0.071513 0.216522
H20   H     H_    0.664554 0.447206 0.200882 0.227180
O21   O     O_3   0.631524 0.218370 0.665789 -0.574780
C37   C     C_3   0.578935 0.296146 0.706434 0.075261
H21   H     H_    0.622941 0.352986 0.640742 0.116610
H22   H     H_    0.553111 0.308333 0.829403 0.188571
C38   C     C_3   0.489851 0.288595 0.687915 -0.752846
H23   H     H_    0.443231 0.235118 0.761044 0.293082
H24   H     H_    0.447531 0.348628 0.724211 0.208764
H25   H     H_    0.512691 0.276953 0.565890 0.234514
O22   O     O_3   0.374582 0.743353 0.370424 -0.610363
C39   C     C_3   0.375981 0.743569 0.229568 0.106697
H26   H     H_    0.335777 0.798959 0.218101 0.213356
H27   H     H_    0.345640 0.682411 0.216186 0.103705
C40   C     C_3   0.482082 0.748565 0.099791 -0.740606
H28   H     H_    0.522841 0.691003 0.101573 0.226893
H29   H     H_    0.484013 0.752089 0.988037 0.171342
H30   H     H_    0.518746 0.805917 0.112263 0.291974
O23   O     O_3   0.221023 0.136102 0.482158 -0.613728
C41   C     C_3   0.129760 0.113599 0.611099 0.037774
H31   H     H_    0.077162 0.167947 0.647522 0.152144
H32   H     H_    0.139520 0.093044 0.708920 0.121599
C42   C     C_3   0.085342 0.039692 0.569122 -0.762030
H33   H     H_    0.132315 0.982252 0.541940 0.258162
H34   H     H_    0.012072 0.023703 0.667079 0.215601
H35   H     H_    0.077425 0.057399 0.468767 0.255908
O24   O     O_3   0.769321 0.863046 0.526032 -0.559375
C43   C     C_3   0.863838 0.883389 0.401986 0.079686
H36   H     H_    0.857979 0.909624 0.303677 0.097577
H37   H     H_    0.913024 0.826554 0.362849 0.152690
C44   C     C_3   0.912190 0.950107 0.451675 -0.755126
H38   H     H_    0.988854 0.960814 0.358752 0.211583
H39   H     H_    0.872547 0.011587 0.474670 0.183285
H40   H     H_    0.913025 0.927990 0.556157 0.286864
O25   O     O_3   0.109252 0.791048 0.641678 -0.533466
C45   C     C_3   0.051027 0.746537 0.781466 0.092869
H41   H     H_    0.047000 0.784140 0.877402 0.185095
H42   H     H_    0.078866 0.682351 0.787113 0.119410
C46   C     C_3   0.948064 0.738714 0.808882 -0.713824
H43   H     H_    0.954039 0.720802 0.699166 0.320002
H44   H     H_    0.906958 0.688916 0.896658 0.214361
H45   H     H_    0.909556 0.800739 0.846021 0.222391
O26   O     O_3   0.875122 0.278683 0.332759 -0.518619
C47   C     C_3   0.946664 0.216667 0.307565 0.148126
H46   H     H_    0.915351 0.151156 0.324298 0.123503
H47   H     H_    0.977267 0.225845 0.385344 0.128609
C48   C     C_3   0.030035 0.225382 0.143526 -0.692219
H48   H     H_    0.064742 0.289294 0.125567 0.273047
H49   H     H_    0.085702 0.175706 0.120496 0.174336
H50   H     H_    0.001827 0.217404 0.062768 0.238331
O27   O     O_3   0.721120 0.635113 0.480785 -0.610414
C49   C     C_3   0.630945 0.610472 0.610111 0.072581
H51   H     H_    0.579953 0.665657 0.660119 0.150897
H52   H     H_    0.644066 0.581317 0.699573 0.105800
C50   C     C_3   0.580864 0.544761 0.561588 -0.803895
H53   H     H_    0.626871 0.486889 0.517425 0.209174
H54   H     H_    0.509615 0.525678 0.661391 0.208213
H55   H     H_    0.567795 0.571959 0.471083 0.286316
O28   O     O_3   0.270956 0.364057 0.524302 -0.559958
C51   C     C_3   0.363470 0.386228 0.396802 0.065287
H56   H     H_    0.354598 0.409814 0.299586 0.102577
H57   H     H_    0.414728 0.330729 0.357601 0.143164
C52   C     C_3   0.410849 0.456713 0.441029 -0.810950
H58   H     H_    0.415007 0.437366 0.544044 0.266849
H59   H     H_    0.486274 0.469005 0.345324 0.217221
H60   H     H_    0.368437 0.516786 0.464182 0.222308
O29   O     O_3   0.772543 0.194497 0.248951 -0.576571
C53   C     C_3   0.744095 0.264731 0.191962 -0.250782
H61   H     H_    0.737464 0.323854 0.256831 0.185141
H62   H     H_    0.673835 0.251680 0.193844 0.129813
H63   H     H_    0.802094 0.276212 0.071267 0.185875
O30   O     O_3   0.225498 0.810753 0.755374 -0.596327
C54   C     C_3   0.249862 0.740427 0.818021 -0.439955
H64   H     H_    0.307680 0.758575 0.845538 0.190738
H65   H     H_    0.274103 0.683810 0.741819 0.154659
H66   H     H_    0.183003 0.720691 0.925094 0.167386
O31   O     O_3   0.320235 0.259724 0.672776 -0.575475
C55   C     C_3   0.236863 0.258864 0.820635 -0.274527
H67   H     H_    0.244904 0.310219 0.888573 0.213079
H68   H     H_    0.230794 0.197178 0.880167 0.141495
H69   H     H_    0.168458 0.271801 0.816600 0.196289
O32   O     O_3   0.669614 0.739101 0.332927 -0.541453
C56   C     C_3   0.750060 0.741056 0.181986 -0.285077
H70   H     H_    0.756947 0.804015 0.125389 0.151752
H71   H     H_    0.737924 0.692630 0.113868 0.200014
H72   H     H_    0.819869 0.725146 0.179778 0.140964
O33   O     O_3   0.144391 0.776328 0.351621 -0.554052
C57   C     C_3   0.159708 0.753648 0.206538 -0.362241
H73   H     H_    0.093755 0.720799 0.217911 0.193983
H74   H     H_    0.227895 0.715866 0.139783 0.126812
H75   H     H_    0.168649 0.812635 0.139888 0.191337
O34   O     O_3   0.741799 0.293651 0.749800 -0.582676
C58   C     C_3   0.782797 0.227787 0.795151 -0.331899
H76   H     H_    0.853309 0.247935 0.786738 0.160328
H77   H     H_    0.794034 0.169441 0.726414 0.143305
H78   H     H_    0.730302 0.212446 0.916596 0.183733
O35   O     O_3   0.814474 0.757829 0.680778 -0.569500
C59   C     C_3   0.725875 0.758473 0.822791 -0.251487
H79   H     H_    0.731190 0.807983 0.896200 0.215212
H80   H     H_    0.712701 0.696070 0.883721 0.128949
H81   H     H_    0.662345 0.775362 0.807917 0.196486
O36   O     O_3   0.179143 0.241565 0.320543 -0.567412
C60   C     C_3   0.264960 0.246014 0.174810 -0.302782
H82   H     H_    0.332202 0.232926 0.182144 0.148330
H83   H     H_    0.271664 0.309036 0.118525 0.153369
H84   H     H_    0.260644 0.196716 0.100390 0.205290
O37   O     O_3   0.400903 0.949693 0.188163 -0.632907
C61   C     C_3   0.331982 0.011957 0.275941 -0.059147
H85   H     H_    0.356348 0.079073 0.238567 0.170075
H86   H     H_    0.308364 0.001265 0.397947 0.194518
H87   H     H_    0.264481 0.001238 0.272271 0.201120
O38   O     O_3   0.599498 0.951587 0.807082 -0.569079
C62   C     C_3   0.672013 0.015167 0.733031 -0.093120
H88   H     H_    0.651907 0.079361 0.786549 0.136839
H89   H     H_    0.695080 0.018429 0.610159 0.179684
H90   H     H_    0.738783 0.993400 0.732030 0.210082
O39   O     O_3   0.901236 0.447955 0.188298 -0.578801
C63   C     C_3   0.832143 0.510397 0.275532 -0.068703
H91   H     H_    0.857135 0.577507 0.239203 0.158857
H92   H     H_    0.807226 0.499470 0.398045 0.190855
H93   H     H_    0.765369 0.500684 0.269089 0.192272
O40   O     O_3   0.097688 0.447448 0.808469 -0.559508
C64   C     C_3   0.173822 0.507952 0.734345 -0.095572
H94   H     H_    0.160645 0.569739 0.794439 0.055786
H95   H     H_    0.192503 0.517350 0.614254 0.180376
H96   H     H_    0.240511 0.479489 0.725678 0.236628

loop_
_geom_bond_atom_site_label_1
_geom_bond_atom_site_label_2
_geom_bond_distance
_ccdc_geom_bond_type
O6    Cu4   1.962125 S    
C17   O34   1.381763 S    
C56   H70   1.113616 S    
C28   O27   1.379991 S    
C36   H20   1.108157 S    
O2    C2    1.314963 A    
C26   O25   1.392819 S    
C34   H13   1.107033 S    
C16   O31   1.379146 S    
C35   C36   1.524097 S    
O14   Cu3   1.956608 S    
C21   O22   1.398932 S    
C52   H60   1.110002 S    
C49   C50   1.521034 S    
C40   H28   1.111026 S    
C30   H3    1.104812 S    
C58   H77   1.111459 S    
C41   H31   1.115054 S    
O17   C29   1.410425 S    
N4    O19   1.354266 S    
C50   H54   1.105089 S    
C22   C25   1.483565 S    
O11   C3    1.313987 A    
O22   C39   1.406657 S    
C7    C18   1.511516 S    
O32   C56   1.408311 S    
C3    C14   1.461322 S    
C48   H48   1.110889 S    
O19   C33   1.407702 S    
C63   H93   1.093053 S    
O21   C37   1.415903 S    
C35   H17   1.097909 S    
C30   H4    1.111458 S    
C54   H65   1.113639 S    
C57   H73   1.110100 S    
C24   O23   1.380044 S    
O6    C6    1.318001 A    
C19   O36   1.384961 S    
O36   C60   1.411577 S    
C41   C42   1.521020 S    
O33   C57   1.404857 S    
O34   C58   1.404820 S    
C46   H45   1.109059 S    
C31   H7    1.098161 S    
O13   Cu4   1.956608 S    
C61   H87   1.091866 S    
C52   H59   1.106017 S    
C45   H41   1.110209 S    
N1    O18   1.351664 S    
C10   N2    1.325564 D    
C24   C27   1.488808 S    
Cu3   Cu4   2.745231 S    
C63   H91   1.116427 S    
C32   H9    1.111362 S    
C53   H63   1.107727 S    
C47   H47   1.114688 S    
O3    C3    1.311799 A    
C33   H11   1.100427 S    
C38   H24   1.105760 S    
C14   O29   1.384481 S    
O4    Cu1   1.956465 S    
C31   C32   1.524770 S    
C59   H81   1.111353 S    
C44   H40   1.110696 S    
C20   C28   1.348363 D    
C64   H95   1.100375 S    
O38   C62   1.409649 S    
O39   C63   1.401939 S    
O16   C8    1.308374 A    
C54   H66   1.105535 S    
C8    C17   1.450314 S    
C34   H14   1.111306 S    
C51   C52   1.521557 S    
O37   C61   1.400111 S    
C33   C34   1.517853 S    
C48   H50   1.110935 S    
C20   O35   1.383435 S    
C17   C25   1.354291 D    
C36   H19   1.111355 S    
C10   O37   1.380050 S    
C59   H80   1.113554 S    
C52   H58   1.110560 S    
C58   H78   1.103910 S    
C43   H37   1.116143 S    
Cu3   N4    2.062308 S    
C27   O28   1.385625 S    
C42   H35   1.110508 S    
C29   H2    1.107640 S    
C12   O39   1.381022 S    
C14   C22   1.358456 D    
O25   C45   1.414317 S    
C11   O40   1.382329 S    
O23   C41   1.412277 S    
C63   H92   1.102988 S    
C40   H29   1.110702 S    
C37   H21   1.115177 S    
C30   H5    1.109261 S    
C49   H52   1.113686 S    
C47   C48   1.513920 S    
C11   N3    1.324482 D    
C9    C10   1.538868 S    
O20   C35   1.415788 S    
Cu1   N2    2.062308 S    
N3    O20   1.353225 S    
C36   H18   1.107998 S    
C43   H36   1.113795 S    
C44   H39   1.108470 S    
C1    C16   1.471605 S    
C55   H68   1.112304 S    
O3    Cu2   1.956464 S    
C41   H32   1.114385 S    
C2    C15   1.454349 S    
C55   H69   1.113003 S    
C61   H85   1.116302 S    
Cu1   Cu2   2.745231 S    
C18   O33   1.396597 S    
C5    C20   1.474131 S    
C42   H34   1.104457 S    
O31   C55   1.406642 S    
C32   H10   1.107223 S    
O12   C4    1.317373 A    
C31   H6    1.113730 S    
O1    Cu1   1.962124 S    
O30   C54   1.410130 S    
O13   C5    1.312269 A    
C39   H26   1.111742 S    
C38   H25   1.110458 S    
C39   H27   1.110237 S    
C43   C44   1.520498 S    
C12   N4    1.327207 D    
C46   H43   1.099324 S    
C49   H51   1.116104 S    
O9    Cu2   1.956608 S    
C18   C26   1.356361 D    
C22   O21   1.389133 S    
O9    C1    1.312954 A    
C56   H72   1.112956 S    
O27   C49   1.413066 S    
C34   H15   1.106611 S    
C53   H62   1.112822 S    
C13   C21   1.362887 D    
C11   C12   1.539202 S    
C40   H30   1.109808 S    
C59   H79   1.107858 S    
C15   C23   1.346673 D    
C44   H38   1.105885 S    
C42   H33   1.109399 S    
C64   H96   1.100418 S    
C16   C24   1.347588 D    
C64   H94   1.109933 S    
C29   H1    1.095159 S    
C61   H86   1.101990 S    
O7    Cu4   1.956464 S    
Cu2   N1    2.062308 S    
O12   Cu2   1.956539 S    
C35   H16   1.112383 S    
O8    Cu3   1.956465 S    
C13   O30   1.379697 S    
Cu4   N3    2.062308 S    
C60   H84   1.106416 S    
C37   C38   1.505317 S    
O15   Cu3   1.956536 S    
C23   C28   1.489171 S    
O35   C59   1.410205 S    
O16   Cu4   1.956539 S    
C25   O26   1.384174 S    
C50   H53   1.107682 S    
O1    C1    1.319301 A    
C39   C40   1.519334 S    
O2    Cu2   1.962125 S    
C55   H67   1.108224 S    
O14   C6    1.306583 A    
C38   H23   1.110349 S    
C58   H76   1.113099 S    
C23   O24   1.386559 S    
O29   C53   1.409176 S    
C29   C30   1.521731 S    
C4    C13   1.473369 S    
O10   Cu1   1.956608 S    
C19   C27   1.345721 D    
C60   H82   1.113052 S    
O26   C47   1.409964 S    
C57   H74   1.110818 S    
C21   C26   1.525556 S    
O10   C2    1.307825 A    
C47   H46   1.114088 S    
O7    C7    1.317947 A    
C50   H55   1.110717 S    
O15   C7    1.329351 A    
O8    C8    1.311870 A    
C37   H22   1.110992 S    
O18   C31   1.415063 S    
C62   H89   1.101721 S    
C45   H42   1.109176 S    
C46   H44   1.107226 S    
C60   H83   1.113513 S    
C62   H88   1.114324 S    
O4    C4    1.316219 A    
C62   H90   1.097191 S    
O5    C5    1.321298 A    
O40   C64   1.408643 S    
O11   Cu1   1.956536 S    
N2    O17   1.356237 S    
C56   H71   1.105921 S    
C32   H8    1.106882 S    
O24   C43   1.415297 S    
C54   H64   1.111313 S    
C51   H56   1.115065 S    
C33   H12   1.107282 S    
O5    Cu3   1.962124 S    
C15   O32   1.382965 S    
O28   C51   1.416299 S    
C45   C46   1.502485 S    
C6    C19   1.458280 S    
C51   H57   1.116768 S    
C9    O38   1.382596 S    
C9    N1    1.322848 D    
C53   H61   1.113086 S    
C48   H49   1.105896 S    
C57   H75   1.104974 S    
