data_mof_unit_18142.cif
_audit_creation_date              2012-12-10T20:26:31-0500
_audit_creation_method            fapswitch 2.2
_symmetry_space_group_name_H-M    P1
_symmetry_Int_Tables_number       1
_space_group_crystal_system       triclinic
_cell_length_a                    10.740384
_cell_length_b                    10.653703
_cell_length_c                    9.923209
_cell_angle_alpha                 89.258026
_cell_angle_beta                  89.944834
_cell_angle_gamma                 91.146357
_cell_volume                      1135.13851737

loop_
_atom_site_label
_atom_site_type_symbol
_atom_type_description
_atom_site_fract_x
_atom_site_fract_y
_atom_site_fract_z
_atom_type_partial_charge
C1    C     C_R   0.496247 0.260268 0.500877 0.864126
C2    C     C_R   0.565228 0.590507 0.066836 0.451370
C3    C     C_R   0.563657 0.588407 0.923965 -0.196117
C4    C     C_R   0.262784 0.501468 0.499885 0.911962
C5    C     C_R   0.447022 0.402407 0.930554 0.200652
C6    C     C_3   0.314524 0.359087 0.924849 -0.471844
C7    C     C_3   0.313725 0.360271 0.077892 -0.490071
C8    C     C_R   0.496606 0.739735 0.499777 0.894908
C9    C     C_R   0.737021 0.495829 0.500093 0.960801
C10   C     C_2   0.933005 0.488052 0.386729 -0.118255
C11   C     C_2   0.867979 0.480654 0.501131 -0.346178
C12   C     C_R   0.479682 0.128381 0.504775 -0.100611
C13   C     C_2   0.066735 0.480649 0.388822 -0.162833
C14   C     C_2   0.131111 0.509762 0.499499 -0.320590
C15   C     C_R   0.514898 0.062864 0.619952 0.121715
C16   C     C_R   0.422521 0.065113 0.397511 -0.206377
C17   C     C_R   0.421481 0.934897 0.397801 -0.146261
C18   C     C_R   0.480891 0.871235 0.503124 -0.114177
C19   C     C_R   0.515941 0.935185 0.618908 0.117037
C20   C     C_3   0.633665 0.929747 0.698752 -0.437740
C21   C     C_3   0.632625 0.072064 0.699690 -0.458840
C22   C     C_R   0.446842 0.402366 0.072600 0.141847
H1    H     H_    0.888288 0.499590 0.289292 0.206061
H2    H     H_    0.088596 0.543197 0.591042 0.152602
H3    H     H_    0.384388 0.115549 0.312057 0.164665
H4    H     H_    0.379796 0.885061 0.314359 0.197706
H5    H     H_    0.618313 0.886875 0.800185 0.245614
H6    H     H_    0.712496 0.891210 0.640621 0.198322
H7    H     H_    0.616939 0.111021 0.801576 0.220475
H8    H     H_    0.746187 0.792303 0.303495 0.367076
H9    H     H_    0.710769 0.116832 0.641837 0.197369
H10   H     H_    0.610314 0.660965 0.864717 0.198584
H11   H     H_    0.252735 0.430146 0.878547 0.217764
H12   H     H_    0.304758 0.263189 0.882809 0.204410
H13   H     H_    0.252497 0.433116 0.119277 0.209464
H14   H     H_    0.301855 0.265277 0.124246 0.200565
H15   H     H_    0.909785 0.459997 0.598109 0.152284
H16   H     H_    0.112377 0.453337 0.296547 0.165250
N1    N     N_R   0.499170 0.499140 0.142800 -0.172885
N2    N     N_R   0.499170 0.499180 0.857150 -0.140780
O1    O     O_R   0.500020 0.316790 0.614690 -0.617709
O2    O     O_2   0.546025 0.825142 0.151750 -0.336323
O3    O     O_3   0.722772 0.706565 0.273942 -0.535681
O4    O     O_R   0.500000 0.316760 0.385350 -0.623471
O5    O     O_R   0.319080 0.500020 0.614640 -0.622177
O6    O     O_R   0.319070 0.499980 0.385300 -0.625455
O7    O     O_R   0.500000 0.683240 0.614650 -0.629677
O8    O     O_R   0.499980 0.683210 0.385310 -0.538737
O9    O     O_R   0.680930 0.500020 0.614700 -0.626958
O10   O     O_R   0.680920 0.499980 0.385360 -0.558991
O11   O     O_2   0.733602 0.777224 0.027821 -0.343639
S1    S     S_3+6 0.642300 0.727097 0.131209 0.018634
Zn1   Zn    Zn3+2 0.500010 0.500020 0.653130 0.950416
Zn2   Zn    Zn3+2 0.499990 0.499980 0.346870 1.010698

loop_
_geom_bond_atom_site_label_1
_geom_bond_atom_site_label_2
_ccdc_geom_bond_type
C15   C19   A    
C6    H11   S    
C6    C7    S    
C5    C22   A    
C20   H5    S    
C10   H1    S    
C7    C22   S    
C9    C11   S    
C7    H14   S    
C1    O4    A    
C19   C20   S    
C12   C15   A    
O7    Zn1   S    
O6    Zn2   S    
C8    O8    A    
C2    C3    A    
C8    O7    A    
O5    Zn1   S    
C12   C16   A    
C4    O6    A    
C13   C14   D    
O8    Zn2   S    
C5    C6    S    
C21   H9    S    
O1    Zn1   S    
C13   H16   S    
O10   Zn2   S    
C1    C12   S    
C2    S1    S    
O9    Zn1   S    
C17   H4    S    
C1    O1    A    
C3    N2    A    
C17   C18   A    
C4    O5    A    
C4    C14   S    
C3    H10   S    
O3    S1    S    
C7    H13   S    
H8    O3    S    
N1    Zn2   S    
C10   C11   D    
C22   N1    A    
O11   S1    D    
O4    Zn2   S    
C15   C21   S    
C9    O9    A    
C20   C21   S    
N2    Zn1   S    
C5    N2    A    
C14   H2    S    
C16   H3    S    
C11   H15   S    
C18   C19   A    
C20   H6    S    
C21   H7    S    
C2    N1    A    
C8    C18   S    
C9    O10   A    
C6    H12   S    
O2    S1    D    
C16   C17   A    
C10   C13   S    
