data_mof_unit_25881.cif
_audit_creation_date              2012-12-10T18:55:14-0500
_audit_creation_method            fapswitch 2.2
_symmetry_space_group_name_H-M    P1
_symmetry_Int_Tables_number       1
_space_group_crystal_system       triclinic
_cell_length_a                    10.591561
_cell_length_b                    9.86698
_cell_length_c                    27.722023
_cell_angle_alpha                 90.014316
_cell_angle_beta                  90.481157
_cell_angle_gamma                 89.271449
_cell_volume                      2896.8013219

loop_
_atom_site_label
_atom_site_type_symbol
_atom_type_description
_atom_site_fract_x
_atom_site_fract_y
_atom_site_fract_z
_atom_type_partial_charge
C1    C     C_R   0.260408 0.500799 0.500384 1.059282
C2    C     C_R   0.739448 0.499039 0.500258 1.064903
C3    C     C_R   0.499411 0.495675 0.101889 -0.051697
C4    C     C_R   0.500971 0.496069 0.898224 -0.051591
C5    C     C_R   0.384916 0.509480 0.126999 -0.028750
C6    C     C_R   0.615869 0.501274 0.873118 -0.027527
C7    C     C_R   0.271548 0.523592 0.101422 -0.137883
C8    C     C_R   0.729643 0.506808 0.898701 -0.137101
C9    C     C_R   0.613521 0.481912 0.127986 -0.027945
C10   C     C_R   0.386456 0.491059 0.872123 -0.029078
C11   C     C_R   0.499487 0.498451 0.353608 -0.094776
C12   C     C_R   0.500045 0.498459 0.646498 -0.087700
C13   C     C_R   0.383692 0.496320 0.974045 0.046258
C14   C     C_R   0.616532 0.487506 0.026065 0.046206
C15   C     C_R   0.617087 0.495458 0.975055 0.046930
C16   C     C_R   0.383463 0.504069 0.025060 0.046911
C17   C     C_R   0.500582 0.495942 0.949312 0.073871
C18   C     C_R   0.499803 0.495737 0.050800 0.074024
C19   C     C_R   0.270664 0.487751 0.946703 -0.211920
C20   C     C_R   0.729024 0.470385 0.053399 -0.212598
C21   C     C_R   0.272299 0.485425 0.896717 -0.133596
C22   C     C_R   0.727275 0.467875 0.103383 -0.134885
C23   C     C_R   0.500197 0.499794 0.406127 0.942334
C24   C     C_R   0.499718 0.499800 0.593908 0.907932
C25   C     C_R   0.270561 0.521151 0.051426 -0.212026
C26   C     C_R   0.730522 0.504184 0.948697 -0.211880
C27   C     C_R   0.064214 0.509926 0.456322 0.352706
C28   C     C_R   0.935123 0.489293 0.544703 0.361043
C29   C     C_R   0.933507 0.502573 0.456156 0.345569
C30   C     C_R   0.065639 0.495004 0.545027 0.368408
C31   C     C_R   0.871657 0.496768 0.500383 -0.407489
C32   C     C_R   0.127951 0.503051 0.500683 -0.408629
C33   C     C_R   0.583728 0.071445 0.528293 0.344871
C34   C     C_R   0.423906 0.928580 0.468704 0.356308
C35   C     C_R   0.416813 0.073760 0.471469 0.350453
C36   C     C_R   0.576794 0.926382 0.531095 0.361870
C37   C     C_R   0.386776 0.510011 0.177437 0.557288
C38   C     C_R   0.614031 0.501954 0.822677 0.554150
C39   C     C_R   0.610886 0.481336 0.178411 0.533752
C40   C     C_R   0.389054 0.490557 0.821700 0.536420
C41   C     C_R   0.542611 0.608670 0.278023 -0.201442
C42   C     C_R   0.464624 0.613027 0.722135 -0.195780
C43   C     C_R   0.543165 0.610440 0.328022 -0.229236
C44   C     C_R   0.463898 0.614615 0.672141 -0.272390
C45   C     C_R   0.456293 0.383860 0.328815 -0.333516
C46   C     C_R   0.536529 0.380200 0.671329 -0.304673
C47   C     C_R   0.452586 0.382449 0.278204 0.578404
C48   C     C_R   0.540645 0.378784 0.721933 0.576744
C49   C     C_R   0.498248 0.495197 0.253243 0.236488
C50   C     C_R   0.502065 0.495701 0.746893 0.241809
H1    H     H_    0.426004 0.296133 0.348851 0.192578
H2    H     H_    0.561371 0.289617 0.651357 0.190535
H3    H     H_    0.182554 0.536613 0.119966 0.188459
H4    H     H_    0.819038 0.513199 0.880162 0.188542
H5    H     H_    0.432887 0.705725 0.653598 0.160916
H6    H     H_    0.579764 0.698172 0.346646 0.171622
H7    H     H_    0.435710 0.702846 0.741827 0.166182
H8    H     H_    0.577050 0.695297 0.258341 0.167557
H9    H     H_    0.183189 0.479123 0.877404 0.189649
H10   H     H_    0.815981 0.454830 0.122690 0.189487
H11   H     H_    0.178895 0.479468 0.962784 0.137728
H12   H     H_    0.820319 0.455391 0.037307 0.138688
H13   H     H_    0.179517 0.536197 0.034555 0.138075
H14   H     H_    0.822041 0.512372 0.965579 0.137308
N1    N     N_R   0.498625 0.495363 0.201843 -0.335381
N2    N     N_R   0.501729 0.496004 0.798280 -0.336574
N3    N     N_R   0.500000 0.857200 0.500000 -0.192293
N4    N     N_R   0.500000 0.142800 0.500000 -0.195600
O1    O     O_R   0.316770 0.614620 0.500000 -0.614237
O2    O     O_R   0.683230 0.385380 0.500000 -0.599445
O3    O     O_R   0.683230 0.614620 0.500000 -0.589780
O4    O     O_R   0.316770 0.385380 0.500000 -0.578901
O5    O     O_R   0.500030 0.614650 0.428760 -0.589010
O6    O     O_R   0.499970 0.385350 0.571240 -0.578703
O7    O     O_R   0.499970 0.614650 0.571240 -0.616488
O8    O     O_R   0.500030 0.385350 0.428760 -0.599815
O9    O     O_2   0.278029 0.525502 0.202014 -0.569254
O10   O     O_2   0.723252 0.508914 0.798090 -0.569126
O11   O     O_2   0.280186 0.484125 0.796165 -0.549651
O12   O     O_2   0.719292 0.466360 0.203932 -0.555755
Zn1   Zn    Zn3+2 0.500000 0.653120 0.500000 1.017751
Zn2   Zn    Zn3+2 0.500000 0.346880 0.500000 1.036648
O13   O     O_3   0.670920 0.142435 0.555321 -0.561510
C51   C     C_3   0.792472 0.119000 0.536220 -0.234777
H15   H     H_    0.795108 0.137619 0.496598 0.127982
H16   H     H_    0.827408 0.014912 0.544446 0.168299
H17   H     H_    0.858948 0.190431 0.553517 0.211141
O14   O     O_3   0.351511 0.857105 0.435959 -0.582034
C52   C     C_3   0.386714 0.891066 0.388445 -0.264547
H18   H     H_    0.359043 0.807404 0.364074 0.172596
H19   H     H_    0.490516 0.904493 0.384539 0.139834
H20   H     H_    0.335067 0.983063 0.375835 0.188149
O15   O     O_3   0.331798 0.147262 0.443470 -0.564928
C53   C     C_3   0.208367 0.126162 0.460584 -0.256618
H21   H     H_    0.144073 0.201943 0.443424 0.184376
H22   H     H_    0.201928 0.140632 0.500368 0.153920
H23   H     H_    0.173693 0.024307 0.450381 0.168005
O16   O     O_3   0.651879 0.852456 0.562887 -0.580349
C54   C     C_3   0.623533 0.889093 0.610918 -0.270258
H24   H     H_    0.651662 0.803999 0.634930 0.169450
H25   H     H_    0.520906 0.909263 0.616630 0.139111
H26   H     H_    0.679589 0.977734 0.622447 0.194348
O17   O     O_3   0.415390 0.269653 0.251888 -0.608206
C55   C     C_3   0.299831 0.218947 0.268830 -0.254611
H27   H     H_    0.230834 0.301246 0.277783 0.186379
H28   H     H_    0.316075 0.151204 0.300314 0.146009
H29   H     H_    0.256678 0.156937 0.239828 0.199412
O18   O     O_3   0.571296 0.262919 0.748251 -0.607990
C56   C     C_3   0.683839 0.201813 0.731364 -0.250012
H30   H     H_    0.757269 0.277628 0.722486 0.188847
H31   H     H_    0.664019 0.135716 0.699843 0.147117
H32   H     H_    0.723313 0.136021 0.760366 0.199391
O19   O     O_3   0.131174 0.509534 0.413598 -0.601948
C57   C     C_3   0.122972 0.639402 0.392547 -0.206682
H33   H     H_    0.191371 0.643584 0.362547 0.178424
H34   H     H_    0.147317 0.720653 0.418746 0.183800
H35   H     H_    0.027697 0.659053 0.376866 0.199832
O20   O     O_3   0.869709 0.461561 0.586569 -0.576847
C58   C     C_3   0.845844 0.582859 0.612054 -0.225821
H36   H     H_    0.756224 0.571992 0.631879 0.176832
H37   H     H_    0.835748 0.674032 0.588516 0.168105
H38   H     H_    0.920911 0.598753 0.639491 0.188927
O21   O     O_3   0.865411 0.506745 0.413307 -0.604569
C59   C     C_3   0.858979 0.374274 0.394424 -0.266973
H39   H     H_    0.800190 0.377106 0.361117 0.200742
H40   H     H_    0.813309 0.303742 0.420077 0.141517
H41   H     H_    0.954145 0.334930 0.384471 0.189779
O22   O     O_3   0.131346 0.481387 0.588182 -0.567688
C60   C     C_3   0.166652 0.611059 0.604797 -0.298742
H42   H     H_    0.093558 0.691266 0.598026 0.127489
H43   H     H_    0.256326 0.642168 0.588190 0.173729
H44   H     H_    0.182688 0.605521 0.644351 0.209035

loop_
_geom_bond_atom_site_label_1
_geom_bond_atom_site_label_2
_ccdc_geom_bond_type
O15   C53   S    
C5    C37   A    
C27   C29   A    
C8    C26   A    
C14   C18   A    
C51   H17   S    
C23   O8    A    
O22   C60   S    
C55   H28   S    
C57   H33   S    
C36   N3    A    
O21   C59   S    
C47   C49   A    
C49   N1    S    
C19   C21   A    
O6    Zn2   S    
C41   H8    S    
C60   H42   S    
C56   H31   S    
C22   H10   S    
C9    C22   A    
C45   H1    S    
C46   H2    S    
C9    C39   A    
C33   C36   A    
O18   C56   S    
C3    C18   A    
C10   C40   A    
C34   C35   A    
C25   H13   S    
C45   C47   A    
C41   C49   A    
C26   H14   S    
O20   C58   S    
C38   N2    A    
C37   N1    A    
C6    C38   A    
C11   C43   A    
C52   H19   S    
C41   C43   A    
C60   H44   S    
C48   C50   A    
C40   N2    A    
C39   N1    A    
C42   C44   A    
C23   O5    A    
C42   H7    S    
O5    Zn1   S    
C55   H27   S    
C30   O22   S    
C35   O15   S    
C10   C21   A    
C46   C48   A    
C1    O4    A    
C47   O17   S    
C13   C19   A    
C14   C20   A    
C51   H15   S    
C4    C6    A    
C56   H32   S    
C8    H4    S    
C5    C7    A    
O7    Zn1   S    
C15   C26   A    
C6    C8    A    
C38   O10   S    
C53   H23   S    
C37   O9    S    
C1    C32   S    
C1    O1    A    
C2    C31   S    
C3    C9    A    
C33   O13   S    
O13   C51   S    
C40   O11   S    
C34   O14   S    
C52   H20   S    
C53   H22   S    
C50   N2    S    
C58   H37   S    
C42   C50   A    
C59   H41   S    
C4    C17   A    
C27   O19   S    
C12   C46   A    
C54   H25   S    
C20   C22   A    
N3    Zn1   S    
C11   C45   A    
C7    H3    S    
C4    C10   A    
C2    O3    A    
C59   H40   S    
O19   C57   S    
C58   H38   S    
C16   C25   A    
C15   C17   A    
C27   C32   A    
C28   C31   A    
C51   H16   S    
C3    C5    A    
C34   N3    A    
C57   H34   S    
C58   H36   S    
C24   O7    A    
C21   H9    S    
C12   C24   S    
C7    C25   A    
C54   H24   S    
C13   C17   A    
N4    Zn2   S    
C39   O12   S    
C28   C30   A    
C29   C31   A    
C28   O20   S    
C56   H30   S    
C30   C32   A    
C44   H5    S    
C24   O6    A    
C48   O18   S    
C35   N4    A    
C19   H11   S    
O8    Zn2   S    
C29   O21   S    
C11   C23   S    
C20   H12   S    
C53   H21   S    
O2    Zn2   S    
C57   H35   S    
O1    Zn1   S    
C43   H6    S    
C54   H26   S    
O14   C52   S    
C16   C18   A    
O16   C54   S    
C13   C16   A    
O17   C55   S    
C14   C15   A    
C12   C44   A    
C36   O16   S    
C60   H43   S    
C52   H18   S    
C2    O2    A    
C55   H29   S    
O4    Zn2   S    
C33   N4    A    
C59   H39   S    
O3    Zn1   S    
