data_mof_unit_50293.cif
_audit_creation_date              2013-03-05T15:51:15-0500
_audit_creation_method            fapswitch 2.2
_symmetry_space_group_name_H-M    P1
_symmetry_Int_Tables_number       1
_space_group_crystal_system       triclinic
_cell_length_a                    19.011447
_cell_length_b                    10.958943
_cell_length_c                    18.773884
_cell_angle_alpha                 90.098128
_cell_angle_beta                  89.959473
_cell_angle_gamma                 89.819922
_cell_volume                      3911.42564718

loop_
_atom_site_label
_atom_site_type_symbol
_atom_site_description
_atom_site_fract_x
_atom_site_fract_y
_atom_site_fract_z
_atom_type_partial_charge
O1    O     O_R   0.787520 0.042810 0.170440 -0.540803
O2    O     O_R   0.212480 0.042810 0.829560 -0.530160
O3    O     O_R   0.287520 0.542810 0.170440 -0.535404
O4    O     O_R   0.712480 0.542810 0.829560 -0.537390
O5    O     O_R   0.765640 0.292100 0.175020 -0.491347
O6    O     O_R   0.234360 0.292100 0.824980 -0.501655
O7    O     O_R   0.265640 0.792100 0.175020 -0.506017
O8    O     O_R   0.734360 0.792100 0.824980 -0.486405
C1    C     C_R   0.711021 0.328144 0.138642 0.564775
C2    C     C_R   0.269347 0.377190 0.853675 0.551015
C3    C     C_R   0.229010 0.875113 0.145112 0.544019
C4    C     C_R   0.787150 0.833370 0.861696 0.560549
O9    O     O_R   0.670190 0.408840 0.168540 -0.505750
O10   O     O_R   0.329810 0.408840 0.831460 -0.514539
O11   O     O_R   0.170190 0.908840 0.168540 -0.522630
O12   O     O_R   0.829810 0.908840 0.831460 -0.506027
O13   O     O_R   0.556620 0.251410 0.175160 -0.527215
O14   O     O_R   0.443380 0.251410 0.824840 -0.514571
O15   O     O_R   0.056620 0.751410 0.175160 -0.517020
O16   O     O_R   0.943380 0.751410 0.824840 -0.527313
C5    C     C_R   0.533143 0.154553 0.145766 0.520655
C6    C     C_R   0.469338 0.156988 0.852668 0.536984
C7    C     C_R   0.032092 0.655380 0.146170 0.529910
C8    C     C_R   0.969744 0.655982 0.852383 0.524618
O17   O     O_R   0.545960 0.049620 0.170320 -0.522941
O18   O     O_R   0.454040 0.049620 0.829680 -0.522581
O19   O     O_R   0.045960 0.549620 0.170320 -0.522378
O20   O     O_R   0.954040 0.549620 0.829680 -0.522831
O21   O     O_R   0.681390 0.958010 0.176690 -0.491373
O22   O     O_R   0.318610 0.958010 0.823310 -0.493466
O23   O     O_R   0.181390 0.458010 0.176690 -0.496719
O24   O     O_R   0.818610 0.458010 0.823310 -0.489586
C9    C     C_R   0.742272 0.967381 0.148738 0.542199
C10   C     C_R   0.259040 0.967931 0.851835 0.536909
C11   C     C_R   0.238973 0.478296 0.144364 0.540567
C12   C     C_R   0.757645 0.466219 0.851715 0.529459
O25   O     O_R   0.787510 0.044390 0.330970 -0.538098
O26   O     O_R   0.212490 0.044390 0.669030 -0.535610
O27   O     O_R   0.287510 0.544390 0.330970 -0.531113
O28   O     O_R   0.712490 0.544390 0.669030 -0.538387
O29   O     O_R   0.765630 0.293570 0.323840 -0.498495
O30   O     O_R   0.234370 0.293570 0.676160 -0.515593
O31   O     O_R   0.265630 0.793570 0.323840 -0.505812
O32   O     O_R   0.734370 0.793570 0.676160 -0.497661
C13   C     C_R   0.711026 0.330902 0.359801 0.571472
C14   C     C_R   0.271711 0.375697 0.646482 0.556624
C15   C     C_R   0.229413 0.877220 0.353124 0.549311
C16   C     C_R   0.784882 0.841893 0.639643 0.552941
O33   O     O_R   0.670190 0.410420 0.329080 -0.468274
O34   O     O_R   0.329810 0.410420 0.670920 -0.492504
O35   O     O_R   0.170190 0.910420 0.329080 -0.507164
O36   O     O_R   0.829810 0.910420 0.670920 -0.470620
O37   O     O_R   0.556610 0.252880 0.323980 -0.527347
O38   O     O_R   0.443390 0.252880 0.676020 -0.519010
O39   O     O_R   0.056610 0.752880 0.323980 -0.523301
O40   O     O_R   0.943390 0.752880 0.676020 -0.531161
C17   C     C_R   0.531021 0.157507 0.352569 0.527284
C18   C     C_R   0.465864 0.156907 0.645825 0.537275
C19   C     C_R   0.032592 0.657787 0.353221 0.540007
C20   C     C_R   0.966648 0.656488 0.646040 0.529451
O41   O     O_R   0.545950 0.051210 0.330860 -0.482538
O42   O     O_R   0.454050 0.051210 0.669140 -0.476720
O43   O     O_R   0.045950 0.551210 0.330860 -0.445752
O44   O     O_R   0.954050 0.551210 0.669140 -0.468523
O45   O     O_R   0.681390 0.959480 0.325510 -0.447211
O46   O     O_R   0.318610 0.959480 0.674490 -0.438922
O47   O     O_R   0.181390 0.459480 0.325510 -0.440720
O48   O     O_R   0.818610 0.459480 0.674490 -0.440634
C21   C     C_R   0.743318 0.966305 0.351822 0.557244
C22   C     C_R   0.258369 0.969746 0.646100 0.559322
C23   C     C_R   0.240548 0.471098 0.354510 0.554604
C24   C     C_R   0.756786 0.465078 0.647691 0.544077
Cr1   Cr    Cr6+3 0.772010 0.169670 0.250090 1.012755
Cr2   Cr    Cr6+3 0.227990 0.169670 0.749910 1.013941
Cr3   Cr    Cr6+3 0.272010 0.669670 0.250090 1.011783
Cr4   Cr    Cr6+3 0.727990 0.669670 0.749910 1.015119
Cr5   Cr    Cr6+3 0.615000 0.323260 0.249260 1.026268
Cr6   Cr    Cr6+3 0.385000 0.323260 0.750740 1.024696
Cr7   Cr    Cr6+3 0.115000 0.823260 0.249260 1.013646
Cr8   Cr    Cr6+3 0.885000 0.823260 0.750740 1.023168
Cr9   Cr    Cr6+3 0.616710 0.010760 0.250840 1.072070
Cr10  Cr    Cr6+3 0.383290 0.010760 0.749160 1.088046
Cr11  Cr    Cr6+3 0.116710 0.510760 0.250840 1.091131
Cr12  Cr    Cr6+3 0.883290 0.510760 0.749160 1.082816
O49   O     O_3   0.667900 0.167900 0.250060 -0.303874
O50   O     O_3   0.332100 0.167900 0.749940 -0.266117
O51   O     O_3   0.167900 0.667900 0.250060 -0.263326
O52   O     O_3   0.832100 0.667900 0.749940 -0.295765
H1    H     H_    0.557427 0.980669 0.050044 0.149132
H2    H     H_    0.543918 0.989788 0.923476 0.136496
H3    H     H_    0.021984 0.467300 0.057250 0.148676
H4    H     H_    0.015908 0.470941 0.931572 0.141172
C25   C     C_R   0.502397 0.173375 0.922676 0.001728
C26   C     C_R   0.511948 0.160117 0.071145 -0.002679
C27   C     C_R   0.001824 0.666768 0.923063 -0.003260
C28   C     C_R   0.007475 0.663192 0.072268 -0.002061
C29   C     C_R   0.489264 0.280026 0.964752 0.027127
C30   C     C_R   0.486781 0.268639 0.039773 0.007587
C31   C     C_R   0.002209 0.778990 0.961152 0.020160
C32   C     C_R   0.998635 0.776585 0.036566 0.014873
C33   C     C_R   0.534905 0.063080 0.027711 -0.157965
C34   C     C_R   0.530024 0.069579 0.954735 -0.165907
C35   C     C_R   0.013779 0.555333 0.032358 -0.156070
C36   C     C_R   0.012777 0.557526 0.959404 -0.163590
C37   C     C_R   0.479358 0.397703 0.935086 -0.083914
C38   C     C_R   0.461399 0.367351 0.081139 -0.098181
C39   C     C_R   0.007638 0.893217 0.926499 -0.112052
C40   C     C_R   0.988893 0.888152 0.073503 -0.101554
C41   C     C_R   0.005798 0.001990 0.965115 -0.153659
C42   C     C_R   0.994508 0.999538 0.038177 -0.149721
C43   C     C_R   0.458935 0.496242 0.977464 -0.132985
C44   C     C_R   0.447754 0.480115 0.049956 -0.121824
H5    H     H_    0.490707 0.417177 0.879929 0.139129
H6    H     H_    0.452212 0.358526 0.137746 0.133817
H7    H     H_    0.018029 0.899958 0.870055 0.138661
H8    H     H_    0.976758 0.891051 0.129693 0.138666
H9    H     H_    0.011272 0.088491 0.937948 0.112213
H10   H     H_    0.989723 0.084201 0.067592 0.107016
H11   H     H_    0.451434 0.585302 0.953823 0.102785
H12   H     H_    0.430122 0.555931 0.082455 0.118779
C45   C     C_R   0.773399 0.863022 0.935316 0.016890
C46   C     C_R   0.239920 0.902400 0.070970 0.018073
C47   C     C_R   0.243970 0.424823 0.920915 0.021284
C48   C     C_R   0.719667 0.337877 0.061046 0.003446
C49   C     C_R   0.712291 0.826414 0.970820 0.015263
C50   C     C_R   0.305383 0.927547 0.041564 -0.009757
C51   C     C_R   0.198832 0.354853 0.963586 0.006334
C52   C     C_R   0.782795 0.307279 0.026735 0.027879
C53   C     C_R   0.702925 0.853551 0.042459 0.007133
C54   C     C_R   0.312147 0.934395 0.968348 0.028463
C55   C     C_R   0.196280 0.372633 0.036404 0.010589
C56   C     C_R   0.793386 0.336233 0.955543 0.028119
C57   C     C_R   0.815586 0.954915 0.043232 -0.150147
C58   C     C_R   0.187827 0.904066 0.952747 -0.166522
C59   C     C_R   0.273847 0.544139 0.024275 -0.141091
C60   C     C_R   0.672952 0.401065 0.945867 -0.158077
C61   C     C_R   0.823620 0.931253 0.972009 -0.146744
C62   C     C_R   0.180839 0.894281 0.025873 -0.138819
C63   C     C_R   0.275865 0.527664 0.950816 -0.145409
C64   C     C_R   0.662829 0.375041 0.018290 -0.157744
C65   C     C_3   0.684030 0.700801 0.979429 -0.261335
C66   C     C_3   0.374224 0.864312 0.050720 -0.283289
C67   C     C_3   0.193476 0.219500 0.971877 -0.240568
C68   C     C_3   0.856723 0.339048 0.045987 -0.268819
C69   C     C_3   0.673024 0.730376 0.057417 -0.268383
C70   C     C_3   0.379594 0.864012 0.970071 -0.262289
C71   C     C_3   0.189810 0.239728 0.051656 -0.275840
C72   C     C_3   0.868003 0.371630 0.968300 -0.269872
C73   C     C_R   0.755914 0.913954 0.079940 0.018175
C74   C     C_R   0.253848 0.920847 0.923154 0.008435
C75   C     C_R   0.240197 0.458234 0.068214 0.027586
C76   C     C_R   0.740836 0.394489 0.915755 0.010490
H13   H     H_    0.855322 0.010138 0.068696 0.148589
H14   H     H_    0.142276 0.899554 0.918844 0.135650
H15   H     H_    0.301134 0.620825 0.046826 0.133751
H16   H     H_    0.629677 0.440345 0.916210 0.135566
H17   H     H_    0.869694 0.966451 0.945785 0.166287
H18   H     H_    0.129411 0.875369 0.047124 0.169599
H19   H     H_    0.307943 0.587788 0.918744 0.129779
H20   H     H_    0.612136 0.393758 0.042024 0.153553
H21   H     H_    0.242407 0.171974 0.955073 0.160129
H22   H     H_    0.887435 0.257707 0.063013 0.133438
H23   H     H_    0.725398 0.630740 0.970752 0.145868
H24   H     H_    0.370467 0.772490 0.074775 0.139013
H25   H     H_    0.634151 0.686939 0.949678 0.145574
H26   H     H_    0.413551 0.924549 0.076645 0.149586
H27   H     H_    0.143949 0.182613 0.949085 0.148430
H28   H     H_    0.860131 0.419109 0.082307 0.153076
H29   H     H_    0.616587 0.735327 0.072739 0.141679
H30   H     H_    0.424189 0.917607 0.949496 0.164894
H31   H     H_    0.137734 0.216347 0.074794 0.145242
H32   H     H_    0.876626 0.470754 0.959761 0.153497
C77   C     C_R   0.481977 0.166861 0.571681 0.041395
C78   C     C_R   0.510889 0.167752 0.426156 0.031782
C79   C     C_R   0.985613 0.661048 0.572017 0.020162
C80   C     C_R   0.011444 0.669071 0.426072 0.024807
C81   C     C_R   0.550861 0.172156 0.548673 -0.015748
C82   C     C_R   0.564750 0.169960 0.476567 0.009748
C83   C     C_R   0.943360 0.597054 0.523735 0.114199
C84   C     C_R   0.956757 0.598872 0.451589 0.087406
C85   C     C_R   0.440912 0.169579 0.448731 -0.155906
C86   C     C_R   0.426498 0.167417 0.521837 -0.112440
C87   C     C_R   0.058138 0.724622 0.474325 -0.136252
C88   C     C_R   0.044907 0.722488 0.547461 -0.171499
C89   C     C_3   0.609038 0.085152 0.565085 -0.263422
C90   C     C_3   0.622911 0.080476 0.485862 -0.248463
C91   C     C_3   0.866320 0.609970 0.511351 -0.268436
C92   C     C_3   0.881003 0.608352 0.432370 -0.284075
H33   H     H_    0.398249 0.167383 0.410560 0.113929
H34   H     H_    0.372370 0.162137 0.539649 0.119637
H35   H     H_    0.105601 0.765893 0.454929 0.146118
H36   H     H_    0.080276 0.767592 0.584166 0.127013
H37   H     H_    0.845777 0.697745 0.530676 0.106111
H38   H     H_    0.861677 0.524491 0.405436 0.176866
H39   H     H_    0.590222 0.996976 0.587197 0.181253
H40   H     H_    0.675005 0.116728 0.470599 0.124579
H41   H     H_    0.652182 0.129122 0.595625 0.155570
H42   H     H_    0.608627 0.992294 0.461421 0.214936
H43   H     H_    0.836973 0.530483 0.529546 0.161656
H44   H     H_    0.867241 0.695166 0.405181 0.129820
C93   C     C_R   0.768508 0.878119 0.567790 -0.033277
C94   C     C_R   0.242796 0.903459 0.427446 -0.032869
C95   C     C_R   0.261157 0.397878 0.571824 -0.013979
C96   C     C_R   0.720089 0.342180 0.437266 -0.039256
C97   C     C_R   0.813865 0.956590 0.532339 0.041569
C98   C     C_R   0.186128 0.945451 0.466971 -0.027168
C99   C     C_R   0.320190 0.399517 0.527588 -0.004989
C100  C     C_R   0.665107 0.381455 0.480482 -0.009986
C101  C     C_R   0.808851 0.972139 0.460622 -0.022872
C102  C     C_R   0.186598 0.948620 0.539381 -0.048548
C103  C     C_R   0.313929 0.409390 0.455468 -0.044333
C104  C     C_R   0.673218 0.402079 0.551853 -0.024431
C105  C     C_R   0.710093 0.833654 0.455172 0.157944
C106  C     C_R   0.301619 0.852940 0.539212 0.179485
C107  C     C_R   0.187467 0.385449 0.466616 0.158612
C108  C     C_R   0.790070 0.319318 0.546861 0.165076
C109  C     C_R   0.714473 0.820828 0.529397 -0.170103
C110  C     C_R   0.299192 0.849322 0.464229 -0.143911
C111  C     C_R   0.195268 0.381608 0.540865 -0.161168
C112  C     C_R   0.780868 0.299284 0.472700 -0.160890
C113  C     C_3   0.892504 0.961677 0.530935 -0.235178
C114  C     C_3   0.143049 0.057166 0.459116 -0.212685
C115  C     C_3   0.386221 0.472765 0.529529 -0.224172
C116  C     C_3   0.604368 0.465796 0.473283 -0.221322
C117  C     C_3   0.886828 0.978586 0.451152 -0.263534
C118  C     C_3   0.142204 0.062419 0.539590 -0.234702
C119  C     C_3   0.378944 0.485556 0.449428 -0.245654
C120  C     C_3   0.612741 0.489950 0.552968 -0.233818
C121  C     C_R   0.758429 0.910978 0.420161 -0.007811
C122  C     C_R   0.246723 0.914117 0.576951 0.005615
C123  C     C_R   0.247938 0.413633 0.423591 -0.004234
C124  C     C_R   0.738809 0.389375 0.584863 -0.007415
H45   H     H_    0.678046 0.761950 0.556485 0.159148
H46   H     H_    0.340842 0.803844 0.435003 0.165961
H47   H     H_    0.149894 0.365859 0.574562 0.170543
H48   H     H_    0.822307 0.254711 0.442765 0.174550
H49   H     H_    0.917690 0.874464 0.546193 0.133304
H50   H     H_    0.090628 0.038674 0.435282 0.179047
H51   H     H_    0.432852 0.418276 0.545654 0.144072
H52   H     H_    0.554608 0.418598 0.459653 0.136429
H53   H     H_    0.913532 0.042868 0.558983 0.220698
H54   H     H_    0.174531 0.130618 0.434268 0.181277
H55   H     H_    0.379692 0.559691 0.558553 0.229567
H56   H     H_    0.617318 0.544271 0.439143 0.241185
H57   H     H_    0.904361 0.070177 0.433213 0.180680
H58   H     H_    0.170075 0.143502 0.560447 0.171476
H59   H     H_    0.368593 0.581347 0.433238 0.181878
H60   H     H_    0.628112 0.584649 0.565147 0.175441
H61   H     H_    0.908578 0.900806 0.420039 0.130883
H62   H     H_    0.089121 0.046569 0.562646 0.158202
H63   H     H_    0.421473 0.438380 0.419369 0.142533
H64   H     H_    0.567879 0.455047 0.584936 0.144865
N1    N     N_R   0.655719 0.771240 0.416875 0.060336
O53   O     O_R   0.669688 0.717434 0.356619 -0.333690
O54   O     O_R   0.592579 0.764182 0.443382 -0.364002
N2    N     N_R   0.360703 0.799249 0.575299 0.071278
O55   O     O_R   0.351383 0.738928 0.634226 -0.354287
O56   O     O_R   0.422522 0.798378 0.545450 -0.337530
N3    N     N_R   0.117732 0.368179 0.438013 0.089394
O57   O     O_R   0.107786 0.298111 0.382918 -0.346481
O58   O     O_R   0.063226 0.398722 0.476059 -0.319254
N4    N     N_R   0.854078 0.279766 0.580131 0.075248
O59   O     O_R   0.852104 0.226571 0.642015 -0.328650
O60   O     O_R   0.913281 0.283775 0.545385 -0.337311
H65   H     H_    0.706605 0.674975 0.093627 0.161767
H66   H     H_    0.374380 0.771729 0.946162 0.120702
H67   H     H_    0.235968 0.202216 0.080793 0.140287
H68   H     H_    0.905718 0.309885 0.940700 0.140125

loop_
_geom_bond_atom_site_label_1
_geom_bond_atom_site_label_2
_geom_bond_distance
_ccdc_geom_bond_type
C18   O42   1.259761 A    
C80   C87   1.407822 A    
Cr11  O51   1.980786 S    
O4    C12   1.269632 A    
C99   C115  1.492597 S    
C33   C34   1.375207 A    
O39   C19   1.265101 A    
O20   Cr12  2.068809 S    
C39   C41   1.394444 A    
O29   C13   1.302387 A    
C66   C70   1.517452 S    
C55   C75   1.391944 A    
C43   C44   1.388989 A    
C91   H43   1.091136 S    
C68   C72   1.517397 S    
C62   H18   1.076586 S    
C42   H10   1.082470 S    
O29   Cr1   1.941056 S    
O26   C22   1.268467 A    
C29   C30   1.414920 A    
C114  H54   1.108022 S    
O1    C9    1.262181 A    
C66   H26   1.110941 S    
C9    C73   1.440253 S    
C64   H20   1.080398 S    
C38   C44   1.392059 A    
C85   C86   1.399635 A    
O45   C21   1.279448 A    
C57   C61   1.369964 A    
C80   C84   1.381241 A    
C11   C75   1.446214 S    
C68   H28   1.112347 S    
C57   H13   1.080678 S    
O24   C12   1.278333 A    
C37   H5    1.079410 S    
C108  N4    1.434401 S    
C21   C121  1.448556 S    
C66   H24   1.106167 S    
N1    O53   1.301622 A    
C104  C124  1.399538 A    
C27   C31   1.421593 A    
O47   C23   1.256606 A    
C54   C70   1.494685 S    
C5    C26   1.459325 S    
C26   C30   1.410482 A    
C81   C89   1.490701 S    
C107  N3    1.443623 S    
C58   C74   1.385174 A    
O21   C9    1.275025 A    
C117  H61   1.111057 S    
O8    Cr4   1.948310 S    
C1    C48   1.470000 S    
O23   Cr11  1.942808 S    
C7    C28   1.467093 S    
C50   C66   1.489189 S    
O32   Cr4   1.944903 S    
O30   C14   1.276571 A    
C45   C61   1.396027 A    
C17   O41   1.264826 A    
C70   H66   1.110508 S    
C1    O9    1.301174 A    
O44   Cr12  2.065486 S    
O25   Cr1   2.069457 S    
C84   C92   1.488302 S    
Cr5   O49   1.974793 S    
C108  C124  1.428494 A    
C45   C49   1.399167 A    
C105  N1    1.434287 S    
C47   C51   1.404067 A    
O11   Cr7   2.070226 S    
C4    C45   1.442797 S    
C4    O12   1.291980 A    
C26   C33   1.407081 A    
C49   C65   1.488306 S    
N2    O56   1.301685 A    
C54   C74   1.404383 A    
C96   C112  1.413299 A    
C88   H36   1.082997 S    
O6    Cr2   1.948310 S    
C30   C38   1.414046 A    
C97   C101  1.360799 A    
O7    Cr3   1.951108 S    
O3    Cr3   2.060453 S    
Cr4   O52   1.979314 S    
C53   C69   1.493339 S    
O2    Cr2   2.065155 S    
C92   H44   1.111053 S    
C60   C64   1.402982 A    
C48   C52   1.401214 A    
C29   C37   1.417690 A    
O2    C10   1.276289 A    
O10   Cr6   2.064880 S    
C37   C43   1.394213 A    
C92   H38   1.111799 S    
O18   Cr10  2.068809 S    
C103  C119  1.497975 S    
C78   C82   1.395076 A    
C91   H37   1.098049 S    
C83   C91   1.489468 S    
C99   C103  1.363730 A    
C102  C118  1.503656 S    
C101  C117  1.494872 S    
C89   H39   1.112388 S    
C52   C56   1.388900 A    
C78   C85   1.396034 A    
Cr7   O51   1.974793 S    
C100  C104  1.367372 A    
C60   C76   1.410178 A    
C58   H14   1.076318 S    
C71   H31   1.111725 S    
C118  H58   1.107121 S    
C69   H65   1.112618 S    
C69   H29   1.111786 S    
C7    O19   1.272179 A    
Cr6   O50   1.980191 S    
C117  H57   1.111366 S    
O24   Cr12  1.946523 S    
C85   H33   1.082983 S    
O30   Cr2   1.944903 S    
C32   C40   1.416168 A    
O22   C10   1.256732 A    
C106  N2    1.437097 S    
C28   C35   1.403172 A    
O48   Cr12  1.948624 S    
O14   Cr6   1.946170 S    
C111  H47   1.083814 S    
C72   H68   1.111625 S    
C57   C73   1.402340 A    
C46   C62   1.409986 A    
C71   H67   1.112403 S    
C19   C80   1.430329 S    
C2    O10   1.271969 A    
C59   H15   1.075388 S    
C115  H55   1.103265 S    
C44   H12   1.082215 S    
C50   C54   1.382652 A    
O16   Cr8   1.946170 S    
O15   C7    1.273842 A    
C12   C76   1.473025 S    
C15   O35   1.265912 A    
O27   C23   1.281690 A    
Cr10  O50   1.975417 S    
C95   C99   1.395875 A    
C16   C93   1.440788 S    
C114  H50   1.111790 S    
O13   C5    1.277393 A    
O40   C20   1.273916 A    
C15   C94   1.447038 S    
C113  H49   1.105926 S    
O48   C24   1.280185 A    
O12   Cr8   2.064880 S    
C56   C72   1.491241 S    
C46   C50   1.389715 A    
O7    C3    1.275218 A    
C87   C88   1.395961 A    
C22   C122  1.450704 S    
O6    C2    1.266829 A    
O5    C1    1.303870 A    
C107  C111  1.402606 A    
C116  C120  1.527294 S    
O46   Cr10  1.948624 S    
O39   Cr7   1.949834 S    
O25   C21   1.263561 A    
C98   C102  1.359849 A    
H4    C36   1.083905 S    
N1    O54   1.301708 A    
C31   C32   1.417705 A    
O3    C11   1.262896 A    
O40   Cr8   1.945168 S    
O8    C4    1.299882 A    
C39   H7    1.080494 S    
N2    O55   1.302000 A    
O13   Cr5   1.947065 S    
C13   O33   1.301098 A    
C102  C122  1.395142 A    
C77   C81   1.380114 A    
C51   C67   1.495516 S    
O47   Cr11  1.947780 S    
Cr2   O50   1.979314 S    
O15   Cr7   1.947065 S    
C116  H52   1.109461 S    
O35   Cr7   2.064583 S    
C110  H46   1.082775 S    
N4    O59   1.301317 A    
C6    O18   1.286820 A    
C103  C123  1.391082 A    
C81   C82   1.379206 A    
C93   C97   1.389922 A    
C113  C117  1.513454 S    
C43   H11   1.081947 S    
Cr3   O51   1.979438 S    
C14   C95   1.437046 S    
C38   H6    1.081422 S    
C77   C86   1.410507 A    
C2    C47   1.447105 S    
C3    O11   1.255671 A    
C70   H30   1.102911 S    
O9    Cr5   2.070226 S    
C106  C110  1.409002 A    
O37   Cr5   1.949834 S    
C56   C76   1.400836 A    
C6    C25   1.468256 S    
C107  C123  1.439198 A    
C8    C27   1.465518 S    
C18   C77   1.429504 S    
C109  H45   1.076096 S    
N3    O57   1.301433 A    
C106  C122  1.426027 A    
C25   C29   1.430778 A    
C67   C71   1.515223 S    
O34   Cr6   2.063906 S    
C105  C121  1.414391 A    
C27   C36   1.394101 A    
O31   Cr3   1.941056 S    
C119  H63   1.111406 S    
O26   Cr2   2.067234 S    
C90   H40   1.106011 S    
C118  H62   1.112091 S    
C5    O17   1.262725 A    
C104  C120  1.497544 S    
O37   C17   1.273543 A    
O22   Cr10  1.946523 S    
O28   C24   1.272351 A    
H1    C33   1.083472 S    
O14   C6    1.259454 A    
C19   O43   1.265384 A    
O21   Cr9   1.942808 S    
O5    Cr1   1.951108 S    
C116  H56   1.101837 S    
C48   C64   1.406203 A    
C8    O20   1.276773 A    
H3    C35   1.083588 S    
N3    O58   1.300755 A    
O17   Cr9   2.068134 S    
C87   H35   1.074268 S    
C25   C34   1.389614 A    
C58   C62   1.383561 A    
C79   C83   1.400419 A    
C41   H9    1.082491 S    
C40   C42   1.394548 A    
C65   H23   1.109136 S    
C96   C100  1.389583 A    
C120  H60   1.102677 S    
C65   C69   1.513291 S    
C83   C84   1.378219 A    
C100  C116  1.483211 S    
C31   C39   1.415773 A    
C14   O34   1.256219 A    
C65   H25   1.111584 S    
C61   H17   1.077310 S    
C52   C68   1.493507 S    
C3    C46   1.439208 S    
C95   C111  1.393137 A    
C20   O44   1.256923 A    
C59   C63   1.391059 A    
O1    Cr1   2.060453 S    
C40   H8    1.080084 S    
H2    C34   1.084142 S    
O19   Cr11  2.068134 S    
C112  H48   1.082186 S    
C93   C109  1.404475 A    
Cr1   O49   1.979438 S    
Cr8   O52   1.980191 S    
C23   C123  1.449428 S    
C115  H51   1.109874 S    
C41   C42   1.388521 A    
C113  H53   1.108925 S    
C63   H19   1.082578 S    
C94   C110  1.406014 A    
C89   C90   1.511094 S    
O46   C22   1.268325 A    
Cr12  O52   1.975417 S    
C67   H27   1.111504 S    
C98   C114  1.478467 S    
C13   C96   1.469658 S    
C59   C75   1.407725 A    
C28   C32   1.422469 A    
O23   C11   1.271709 A    
C97   C113  1.496459 S    
C72   H32   1.110982 S    
O38   Cr6   1.945168 S    
O33   Cr5   2.064583 S    
C115  C119  1.516942 S    
C10   C74   1.439178 S    
C60   H16   1.082326 S    
O42   Cr10  2.065486 S    
O16   C8    1.269331 A    
C51   C55   1.381374 A    
O4    Cr4   2.065155 S    
C47   C63   1.398440 A    
C101  C121  1.395879 A    
C119  H59   1.110416 S    
C17   C78   1.437393 S    
C82   C90   1.486210 S    
C49   C53   1.388159 A    
C16   O36   1.281232 A    
N4    O60   1.301413 A    
O38   C18   1.266837 A    
C91   C92   1.508697 S    
C68   H22   1.111598 S    
O27   Cr3   2.069457 S    
C94   C98   1.384779 A    
O28   Cr4   2.067234 S    
O43   Cr11  2.062565 S    
C35   C36   1.370027 A    
C20   C79   1.436439 S    
C114  C118  1.511879 S    
O45   Cr9   1.947780 S    
C90   H42   1.103858 S    
O41   Cr9   2.062565 S    
C55   C71   1.490298 S    
C86   H34   1.083539 S    
C89   H41   1.111718 S    
C53   C73   1.397050 A    
O36   Cr8   2.063906 S    
C108  C112  1.420148 A    
O31   C15   1.269048 A    
C67   H21   1.110004 S    
Cr9   O49   1.980786 S    
C24   C124  1.481676 S    
O32   C16   1.294662 A    
C79   C88   1.393463 A    
C120  H64   1.111773 S    
C105  C109  1.403308 A    
