data_mof_unit_66432.cif
_audit_creation_date              2012-12-10T19:22:24-0500
_audit_creation_method            fapswitch 2.2
_symmetry_space_group_name_H-M    P1
_symmetry_Int_Tables_number       1
_space_group_crystal_system       triclinic
_cell_length_a                    17.734148
_cell_length_b                    16.504893
_cell_length_c                    10.949034
_cell_angle_alpha                 90.000013
_cell_angle_beta                  91.144795
_cell_angle_gamma                 90.000032
_cell_volume                      3204.14492521

loop_
_atom_site_label
_atom_site_type_symbol
_atom_type_description
_atom_site_fract_x
_atom_site_fract_y
_atom_site_fract_z
_atom_type_partial_charge
C1    C     C_R   0.355332 0.500070 0.499639 0.834086
C2    C     C_R   0.644668 0.500070 0.500361 0.834088
C3    C     C_R   0.885513 0.502463 0.501719 0.048476
C4    C     C_R   0.114487 0.502463 0.498274 0.048476
C5    C     C_1   0.966181 0.502119 0.500564 0.050872
C6    C     C_1   0.033819 0.502119 0.499430 0.050872
C7    C     C_R   0.550832 0.828335 0.574936 0.161548
C8    C     C_R   0.449168 0.828335 0.425064 0.161548
C9    C     C_R   0.549675 0.742792 0.573368 0.036342
C10   C     C_R   0.450325 0.742792 0.426632 0.036342
C11   C     C_R   0.500000 0.872665 0.500000 -0.014426
C12   C     C_1   0.500000 0.962187 0.500000 0.131246
C13   C     C_1   0.500000 0.036501 0.500000 0.077399
C14   C     C_R   0.548376 0.169713 0.577300 -0.248964
C15   C     C_R   0.451624 0.169713 0.422699 -0.248964
C16   C     C_R   0.547996 0.255338 0.576694 0.399199
C17   C     C_R   0.452004 0.255338 0.423306 0.399199
C18   C     C_R   0.500000 0.125797 0.500000 0.020802
C19   C     C_R   0.500829 0.500039 0.265038 0.877924
C20   C     C_R   0.499171 0.500039 0.734962 0.877925
C21   C     C_2   0.501300 0.433539 0.933133 -0.116624
C22   C     C_2   0.498696 0.433539 0.066867 -0.116622
C23   C     C_2   0.495782 0.501483 0.866601 -0.304234
C24   C     C_2   0.504219 0.501484 0.133399 -0.304231
C25   C     C_R   0.845537 0.575269 0.514751 0.309501
C26   C     C_R   0.154464 0.575268 0.485225 0.309497
C27   C     C_R   0.766911 0.574023 0.514166 -0.209067
C28   C     C_R   0.233089 0.574022 0.485813 -0.209067
C29   C     C_R   0.727565 0.500557 0.501176 -0.092492
C30   C     C_R   0.272435 0.500556 0.498821 -0.092485
C31   C     C_R   0.768087 0.428012 0.488995 -0.134295
C32   C     C_R   0.231913 0.428012 0.511018 -0.134293
C33   C     C_R   0.846680 0.429090 0.489093 -0.187987
C34   C     C_R   0.153320 0.429090 0.510919 -0.187983
Cu1   Cu    Cu3+1 0.500000 0.580420 0.500000 0.974818
Cu2   Cu    Cu3+1 0.500000 0.419580 0.500000 1.024858
H1    H     H_    0.487258 0.560461 0.907006 0.156922
H2    H     H_    0.512746 0.560461 0.092994 0.156921
H3    H     H_    0.736746 0.630619 0.524291 0.188194
H4    H     H_    0.263254 0.630617 0.475675 0.188192
H5    H     H_    0.739149 0.370565 0.478695 0.189113
H6    H     H_    0.260851 0.370566 0.521333 0.189105
H7    H     H_    0.877203 0.372671 0.479077 0.164008
H8    H     H_    0.122797 0.372672 0.520948 0.164006
H9    H     H_    0.588840 0.709425 0.631293 0.163841
H10   H     H_    0.411160 0.709425 0.368707 0.163840
H11   H     H_    0.586690 0.137572 0.638518 0.202170
H12   H     H_    0.413309 0.137572 0.361482 0.202170
N1    N     N_R   0.500000 0.701220 0.500000 -0.217170
N2    N     N_R   0.500000 0.298780 0.500000 -0.217984
O1    O     O_R   0.391260 0.567930 0.500000 -0.593779
O2    O     O_R   0.608740 0.567930 0.500000 -0.593779
O3    O     O_R   0.391280 0.432120 0.500000 -0.553141
O4    O     O_R   0.608720 0.432120 0.500000 -0.553142
O5    O     O_R   0.500000 0.567890 0.321940 -0.586218
O6    O     O_R   0.500000 0.567890 0.678060 -0.586217
O7    O     O_R   0.500030 0.432070 0.321950 -0.550715
O8    O     O_R   0.499970 0.432070 0.678050 -0.550715
H13   H     H_    0.506921 0.375090 0.888665 0.202898
H14   H     H_    0.493071 0.375090 0.111335 0.202899
Br1   Br    Br    0.618044 0.305575 0.688583 -0.495455
Br2   Br    Br    0.381955 0.305575 0.311418 -0.495452
Br3   Br    Br    0.895720 0.677547 0.533871 -0.363499
Br4   Br    Br    0.104280 0.677547 0.466076 -0.363492
Br5   Br    Br    0.622567 0.881897 0.680449 -0.438402
Br6   Br    Br    0.377433 0.881897 0.319551 -0.438401

loop_
_geom_bond_atom_site_label_1
_geom_bond_atom_site_label_2
_ccdc_geom_bond_type
C17   N2    A    
Cu1   N1    S    
C15   C18   A    
C4    C26   A    
C11   C12   S    
C31   C33   A    
C28   H4    S    
C10   H10   S    
C14   H11   S    
C17   Br2   S    
C27   C29   A    
C14   C18   A    
C24   H2    S    
Cu1   Cu2   S    
C20   C23   S    
C25   Br3   S    
C20   O6    A    
C26   C28   A    
C28   C30   A    
C19   C24   S    
Cu1   O1    S    
C9    N1    A    
C29   C31   A    
Cu2   O4    S    
C23   H1    S    
C21   C22   S    
C19   O7    A    
C30   C32   A    
C1    O1    A    
C32   H6    S    
C2    O2    A    
C15   H12   S    
C2    C29   S    
C9    H9    S    
C13   C18   S    
C8    C10   A    
C1    C30   S    
C16   N2    A    
C21   H13   S    
C14   C16   A    
C8    C11   A    
C4    C34   A    
C22   H14   S    
C5    C6    T    
C22   C24   D    
C25   C27   A    
C16   Br1   S    
C3    C33   A    
Cu2   O8    S    
Cu1   O5    S    
C33   H7    S    
C3    C25   A    
C34   H8    S    
C12   C13   T    
C4    C6    S    
Cu2   O7    S    
C2    O4    A    
C19   O5    A    
Cu1   O2    S    
C7    C9    A    
C1    O3    A    
C7    C11   A    
C26   Br4   S    
Cu2   O3    S    
C31   H5    S    
Cu1   O6    S    
C15   C17   A    
C10   N1    A    
C20   O8    A    
C21   C23   D    
C8    Br6   S    
C7    Br5   S    
Cu2   N2    S    
C27   H3    S    
C3    C5    S    
C32   C34   A    
