data_mof_unit_44614.cif
_audit_creation_date              2012-12-10T17:32:56-0500
_audit_creation_method            fapswitch 2.2
_symmetry_space_group_name_H-M    P1
_symmetry_Int_Tables_number       1
_space_group_crystal_system       triclinic
_cell_length_a                    12.413372
_cell_length_b                    13.206026
_cell_length_c                    14.31528
_cell_angle_alpha                 93.972021
_cell_angle_beta                  107.942101
_cell_angle_gamma                 117.388497
_cell_volume                      1919.51436047

loop_
_atom_site_label
_atom_site_type_symbol
_atom_type_description
_atom_site_fract_x
_atom_site_fract_y
_atom_site_fract_z
_atom_type_partial_charge
C1    C     C_R   0.650551 0.714428 0.508215 0.826559
C2    C     C_R   0.851940 0.507424 0.920770 0.094536
C3    C     C_R   0.820774 0.548978 0.996825 0.171122
C4    C     C_R   0.961568 0.490367 0.948290 0.071458
C5    C     C_R   0.030531 0.503474 0.052231 0.069172
C6    C     C_R   0.993332 0.541330 0.125851 -0.201342
C7    C     C_R   0.890965 0.564195 0.098303 -0.216471
C8    C     C_R   0.008651 0.466986 0.875794 -0.216846
C9    C     C_R   0.117484 0.453181 0.903850 -0.222264
C10   C     C_R   0.182299 0.460303 0.004563 0.163583
C11   C     C_R   0.137690 0.482747 0.079308 0.089819
C12   C     C_R   0.616292 0.514336 0.686272 0.861181
C13   C     C_R   0.292265 0.445984 0.031564 -0.188926
C14   C     C_R   0.358491 0.453278 0.132225 -0.193178
C15   C     C_R   0.201915 0.483328 0.178899 -0.240122
C16   C     C_R   0.133589 0.964053 0.354285 0.002521
C17   C     C_R   0.253014 0.159613 0.467548 -0.100432
C18   C     C_R   0.733192 0.926910 0.570194 -0.163271
C19   C     C_R   0.825063 0.044893 0.586438 -0.130390
C20   C     C_R   0.926992 0.075563 0.552367 -0.216239
C21   C     C_R   0.937401 0.988028 0.499602 0.087088
C22   C     C_R   0.830860 0.871165 0.467711 0.119154
C23   C     C_R   0.346460 0.284947 0.486582 0.882394
C24   C     C_R   0.046114 0.014756 0.471425 -0.017626
C25   C     C_R   0.032515 0.932269 0.392285 0.067951
C26   C     C_R   0.916227 0.822319 0.350831 -0.227823
C27   C     C_R   0.818781 0.791551 0.389189 -0.177896
C28   C     C_R   0.168228 0.120669 0.519703 -0.069775
C29   C     C_R   0.237975 0.080449 0.387844 -0.224673
C30   C     C_R   0.736355 0.838710 0.512443 -0.082197
C31   C     C_R   0.261962 0.726018 0.605272 -0.285209
C32   C     C_R   0.650524 0.326897 0.377668 0.088637
C33   C     C_R   0.724882 0.283672 0.354171 -0.239532
C34   C     C_R   0.380759 0.481961 0.313309 0.775349
C35   C     C_R   0.861621 0.349793 0.397026 -0.182372
C36   C     C_R   0.926796 0.462218 0.462724 -0.013782
C37   C     C_R   0.847147 0.504309 0.485829 0.168715
C38   C     C_R   0.068401 0.533930 0.508062 -0.042043
C39   C     C_R   0.125447 0.653454 0.556571 0.108162
C40   C     C_R   0.046288 0.698260 0.563996 -0.274602
C41   C     C_R   0.916315 0.621097 0.549847 0.005062
C42   C     C_R   0.157126 0.493741 0.507991 0.029248
C43   C     C_R   0.342782 0.680246 0.606721 0.081716
C44   C     C_R   0.680112 0.521213 0.793171 -0.027353
C45   C     C_R   0.313229 0.472006 0.206291 -0.046315
C46   C     C_R   0.720469 0.576426 0.970416 -0.194761
C47   C     C_R   0.652679 0.565470 0.869112 -0.154084
C48   C     C_R   0.772749 0.485478 0.819325 -0.258287
Cu1   Cu    Cu3+1 0.416420 0.526630 0.522910 0.960370
Cu2   Cu    Cu3+1 0.583580 0.473370 0.477090 0.940387
H1    H     H_    0.867241 0.594936 0.157081 0.127612
H2    H     H_    0.327647 0.430150 0.974899 0.145694
H3    H     H_    0.995736 0.168325 0.565851 0.134723
H4    H     H_    0.819737 0.112769 0.628342 0.145061
H5    H     H_    0.730282 0.706793 0.352019 0.157995
H6    H     H_    0.448177 0.737297 0.642530 0.122382
H7    H     H_    0.165479 0.490244 0.236670 0.153041
H8    H     H_    0.306070 0.817512 0.643618 0.142616
H9    H     H_    0.121799 0.405625 0.467636 0.116838
H10   H     H_    0.676018 0.197972 0.302497 0.156307
H11   H     H_    0.151298 0.437043 0.846125 0.149468
H12   H     H_    0.780931 0.439849 0.758960 0.140490
H13   H     H_    0.044761 0.559521 0.206281 0.142821
N1    N     N_R   0.290690 0.566960 0.557640 -0.179902
N2    N     N_R   0.709100 0.433710 0.442970 -0.208819
O1    O     O_R   0.545970 0.684450 0.528810 -0.598117
O2    O     O_R   0.687130 0.639470 0.490120 -0.566313
O3    O     O_R   0.519670 0.535100 0.660030 -0.562901
O4    O     O_R   0.660830 0.490120 0.621340 -0.610718
O5    O     O_R   0.312870 0.360530 0.509880 -0.557780
O6    O     O_R   0.454030 0.315550 0.471190 -0.606369
O7    O     O_R   0.339170 0.509880 0.378660 -0.587394
O8    O     O_R   0.480330 0.464900 0.339970 -0.599267
H14   H     H_    0.308407 0.109898 0.351787 0.188170
H15   H     H_    0.897472 0.758833 0.287483 0.120217
C49   C     C_2   0.131857 0.879540 0.278576 0.361820
H16   H     H_    0.073986 0.785485 0.268575 0.060252
O9    O     O_2   0.198494 0.914416 0.227771 -0.538474
C50   C     C_2   0.217218 0.176138 0.630197 0.327949
H17   H     H_    0.160729 0.133994 0.674801 0.098065
O10   O     O_2   0.324241 0.265177 0.674593 -0.549331
H18   H     H_    0.660364 0.904713 0.603564 0.143907
H19   H     H_    0.093646 0.789434 0.605509 0.183927
H20   H     H_    0.544552 0.273684 0.344053 0.131455
H21   H     H_    0.914420 0.312708 0.375378 0.135783
C51   C     C_2   0.895425 0.649131 0.641351 0.465717
H22   H     H_    0.890066 0.592173 0.692391 0.045868
O11   O     O_2   0.902259 0.742641 0.667592 -0.568370
H23   H     H_    0.444404 0.443918 0.151900 0.157337
H24   H     H_    0.697060 0.609416 0.028280 0.131997
H25   H     H_    0.579358 0.591700 0.850383 0.155725
H26   H     H_    0.967074 0.463757 0.796803 0.134144

loop_
_geom_bond_atom_site_label_1
_geom_bond_atom_site_label_2
_ccdc_geom_bond_type
C12   O4    A    
Cu1   O3    S    
C34   O7    A    
C17   C29   A    
C35   C36   A    
C40   H19   S    
C4    C8    A    
C41   C51   S    
C12   O3    A    
C26   C27   A    
C17   C23   S    
C31   C43   A    
C9    H11   S    
C31   H8    S    
C36   C37   A    
Cu2   O4    S    
C49   O9    D    
C38   C42   A    
C3    C7    A    
C5    C6    A    
C51   O11   D    
C18   C19   A    
C28   C50   S    
C18   H18   S    
C11   C15   A    
C19   C20   A    
C8    C9    A    
Cu1   O7    S    
C37   N2    A    
C8    H26   S    
Cu2   O2    S    
C44   C47   A    
Cu1   N1    S    
C21   C22   A    
C15   H7    S    
C23   O5    A    
C43   N1    A    
C26   H15   S    
C14   C45   A    
C32   H20   S    
Cu1   O1    S    
C23   O6    A    
C24   C25   A    
Cu2   O8    S    
C39   C40   A    
C50   O10   D    
C51   H22   S    
C4    C5    A    
C29   H14   S    
C2    C48   A    
C16   C29   A    
C1    O2    A    
C6    H13   S    
C2    C4    A    
Cu2   O6    S    
C14   H23   S    
C13   H2    S    
C48   H12   S    
C1    O1    A    
C34   C45   S    
C49   H16   S    
C18   C30   A    
C19   H4    S    
C40   C41   A    
C33   H10   S    
Cu1   O5    S    
C15   C45   A    
C42   N1    A    
C9    C10   A    
C16   C25   A    
C46   C47   A    
C22   C30   A    
C16   C49   S    
C17   C28   A    
C47   H25   S    
C24   C28   A    
C20   H3    S    
C10   C13   A    
C42   H9    S    
C5    C11   A    
C6    C7    A    
C46   H24   S    
C3    C46   A    
C22   C27   A    
C32   C33   A    
C36   C38   A    
C2    C3    A    
C25   C26   A    
C7    H1    S    
C12   C44   S    
C35   H21   S    
C38   C39   A    
C1    C30   S    
C33   C35   A    
C31   C39   A    
C27   H5    S    
C37   C41   A    
Cu2   N2    S    
C10   C11   A    
C34   O8    A    
C50   H17   S    
C43   H6    S    
C20   C21   A    
Cu1   Cu2   S    
C21   C24   A    
C13   C14   A    
C44   C48   A    
C32   N2    A    
