data_mof_unit_9324.cif
_audit_creation_date              2013-03-05T15:48:38-0500
_audit_creation_method            fapswitch 2.2
_symmetry_space_group_name_H-M    P1
_symmetry_Int_Tables_number       1
_space_group_crystal_system       triclinic
_cell_length_a                    10.164754
_cell_length_b                    10.616609
_cell_length_c                    23.531598
_cell_angle_alpha                 89.80377
_cell_angle_beta                  80.70912
_cell_angle_gamma                 95.097726
_cell_volume                      2495.78342693

loop_
_atom_site_label
_atom_site_type_symbol
_atom_site_description
_atom_site_fract_x
_atom_site_fract_y
_atom_site_fract_z
_atom_type_partial_charge
O1    O     O_R   0.431060 0.692470 0.504730 -0.627436
O2    O     O_R   0.568940 0.307530 0.495270 -0.621539
O3    O     O_R   0.651120 0.659650 0.489640 -0.604373
O4    O     O_R   0.348880 0.340350 0.510360 -0.609374
C1    C     C_R   0.556201 0.734080 0.494289 0.936288
C2    C     C_R   0.443827 0.265944 0.501962 0.938372
O5    O     O_R   0.389950 0.516450 0.591390 -0.577256
O6    O     O_R   0.610050 0.483550 0.408610 -0.575996
O7    O     O_R   0.610020 0.483630 0.576300 -0.583500
O8    O     O_R   0.389980 0.516370 0.423700 -0.583975
C3    C     C_R   0.500034 0.500258 0.610535 1.004717
C4    C     C_R   0.500548 0.500805 0.389153 0.956026
Zn1   Zn    Zn3+2 0.353060 0.521920 0.510080 1.023819
Zn2   Zn    Zn3+2 0.646940 0.478080 0.489920 1.039842
C5    C     C_R   0.479457 0.396322 0.120751 0.574450
C6    C     C_R   0.559249 0.605775 0.875243 0.585888
N1    N     N_R   0.508360 0.508083 0.146123 -0.322632
N2    N     N_R   0.502238 0.501613 0.852026 -0.324205
C7    C     C_R   0.534214 0.619240 0.115742 0.588789
C8    C     C_R   0.443791 0.399559 0.884697 0.587457
C9    C     C_R   0.546954 0.619338 0.055292 -0.075679
C10   C     C_R   0.453804 0.393119 0.943580 -0.072581
C11   C     C_R   0.503448 0.506363 0.029064 -0.078450
C12   C     C_R   0.501986 0.505001 0.969406 -0.082857
C13   C     C_R   0.461667 0.394627 0.062730 -0.051301
C14   C     C_R   0.549027 0.615446 0.935384 -0.053778
C15   C     C_R   0.598350 0.728412 0.020961 0.169184
C16   C     C_R   0.414901 0.280424 0.977201 0.168165
C17   C     C_R   0.587367 0.729921 0.961982 0.183027
C18   C     C_R   0.406885 0.284927 0.037530 0.160106
O9    O     O_2   0.470785 0.287938 0.151786 -0.534826
O10   O     O_2   0.627587 0.697498 0.839620 -0.527836
O11   O     O_2   0.545044 0.728293 0.144578 -0.524955
O12   O     O_2   0.375231 0.306532 0.859757 -0.521557
C19   C     C_R   0.587169 0.424119 0.755903 0.060710
C20   C     C_R   0.628873 0.529132 0.228730 0.046513
C21   C     C_R   0.582930 0.421414 0.696669 0.266696
C22   C     C_R   0.625604 0.531702 0.288525 0.256504
C23   C     C_R   0.500847 0.500777 0.672697 -0.366343
C24   C     C_R   0.502806 0.503477 0.326311 -0.366543
C25   C     C_R   0.420689 0.580948 0.708187 0.170445
C26   C     C_R   0.382730 0.478332 0.303542 0.187192
C27   C     C_R   0.418673 0.577890 0.767786 0.249675
C28   C     C_R   0.384847 0.485123 0.244029 0.250018
C29   C     C_R   0.502041 0.500111 0.791333 0.118236
C30   C     C_R   0.507649 0.508885 0.206895 0.117752
H1    H     H_    0.598758 0.117414 0.442070 0.164575
H2    H     H_    0.402189 0.883365 0.455469 0.175434
C31   C     C_2   0.588786 0.868902 0.483200 0.036708
C32   C     C_2   0.411377 0.131267 0.495264 0.030152
C33   C     C_2   0.495682 0.932057 0.463840 -0.136348
C34   C     C_2   0.504975 0.068521 0.463196 -0.137948
H3    H     H_    0.109430 0.412548 0.469714 0.180342
H4    H     H_    0.888333 0.581534 0.533375 0.138401
N3    N     N_2   0.842710 0.448880 0.476480 -0.067201
N4    N     N_2   0.157290 0.551120 0.523520 -0.081552
C35   C     C_2   0.926920 0.509760 0.504277 0.032875
C36   C     C_2   0.071794 0.486510 0.497638 0.018546
C37   C     C_3   0.678021 0.837774 0.045046 -0.756603
H5    H     H_    0.741939 0.802206 0.074521 0.258203
H6    H     H_    0.749877 0.890996 0.010939 0.226800
H7    H     H_    0.609421 0.903819 0.067772 0.269436
C38   C     C_3   0.394337 0.153032 0.949080 -0.762339
H8    H     H_    0.473027 0.144919 0.910944 0.256730
H9    H     H_    0.405044 0.072759 0.977728 0.215200
H10   H     H_    0.293296 0.140483 0.936604 0.284127
C39   C     C_3   0.117579 0.653958 0.560960 -0.537721
H11   H     H_    0.205880 0.696766 0.578318 0.274897
H12   H     H_    0.079652 0.728843 0.536482 0.170377
H13   H     H_    0.041168 0.618260 0.598048 0.220207
C40   C     C_3   0.881532 0.345942 0.438959 -0.486682
H14   H     H_    0.794192 0.307293 0.419695 0.223493
H15   H     H_    0.961440 0.380245 0.403095 0.266604
H16   H     H_    0.914142 0.268509 0.463806 0.172939
C41   C     C_3   0.603905 0.855900 0.929563 -0.751923
H17   H     H_    0.590195 0.936864 0.958890 0.208770
H18   H     H_    0.704883 0.870413 0.902996 0.276451
H19   H     H_    0.525013 0.860096 0.902172 0.278122
C42   C     C_3   0.326505 0.178407 0.074724 -0.712288
H20   H     H_    0.250438 0.127014 0.052335 0.222598
H21   H     H_    0.394160 0.110352 0.087187 0.261715
H22   H     H_    0.267211 0.216545 0.113630 0.282320
C43   C     C_3   0.682150 0.344839 0.780394 -0.666892
H23   H     H_    0.681262 0.357080 0.827142 0.204983
H24   H     H_    0.655862 0.243180 0.772873 0.259280
H25   H     H_    0.786388 0.372199 0.759114 0.266727
C44   C     C_3   0.762447 0.548812 0.189140 -0.647511
H26   H     H_    0.754800 0.538718 0.142960 0.200905
H27   H     H_    0.810678 0.644734 0.195238 0.260906
H28   H     H_    0.828665 0.476981 0.199149 0.272735
N5    N     N_R   0.658031 0.334013 0.661272 0.230376
O13   O     O_R   0.788000 0.351365 0.650180 -0.382509
O14   O     O_R   0.595925 0.242018 0.636886 -0.369822
N6    N     N_R   0.746779 0.568700 0.310530 0.237730
O15   O     O_R   0.840974 0.492478 0.307485 -0.327545
O16   O     O_R   0.761364 0.677618 0.335027 -0.355652
N7    N     N_R   0.342408 0.666678 0.683860 0.250653
O17   O     O_R   0.400869 0.753988 0.647036 -0.384259
O18   O     O_R   0.213790 0.662489 0.700990 -0.325786
N8    N     N_R   0.257777 0.445962 0.340518 0.246803
O19   O     O_R   0.236295 0.337395 0.367790 -0.400261
O20   O     O_R   0.161286 0.519408 0.342597 -0.328515
N9    N     N_R   0.335691 0.657355 0.804559 0.243308
O21   O     O_R   0.258428 0.610423 0.850648 -0.361212
O22   O     O_R   0.340747 0.777914 0.793249 -0.290567
N10   N     N_R   0.262313 0.464053 0.220825 0.244380
O23   O     O_R   0.234644 0.542207 0.182633 -0.360306
O24   O     O_R   0.179480 0.364953 0.236678 -0.293735
C45   C     C_3   0.279706 0.066637 0.525175 -0.812736
H29   H     H_    0.218133 0.134407 0.550732 0.256646
H30   H     H_    0.221843 0.024061 0.492740 0.242348
H31   H     H_    0.298129 0.991325 0.555053 0.269415
C46   C     C_3   0.719967 0.933178 0.495294 -0.810478
H32   H     H_    0.781161 0.865007 0.512453 0.242626
H33   H     H_    0.778559 0.976612 0.454983 0.249005
H34   H     H_    0.700778 0.007782 0.527796 0.270668

loop_
_geom_bond_atom_site_label_1
_geom_bond_atom_site_label_2
_geom_bond_distance
_ccdc_geom_bond_type
C31   C46   1.512231 S    
C44   H26   1.106810 S    
C38   H9    1.108516 S    
C15   C17   1.410360 A    
O7    Zn2   2.008593 S    
N7    O17   1.301359 A    
C23   C25   1.412151 A    
O5    C3    1.296553 A    
O1    C1    1.293078 A    
C7    C9    1.407395 A    
C12   C14   1.419440 A    
C45   H30   1.110357 S    
C5    C13   1.405865 A    
N10   O23   1.301237 A    
O4    Zn1   1.924314 S    
C25   N7    1.435772 S    
C40   H16   1.111424 S    
H2    C33   1.087670 S    
C31   C33   1.342619 D    
C32   C34   1.342607 D    
C11   C12   1.406415 A    
C20   C30   1.409501 A    
O7    C3    1.294328 A    
C46   H34   1.110752 S    
C8    O12   1.348789 S    
C24   C26   1.415019 A    
Zn2   N3    2.015720 S    
C9    C15   1.419983 A    
C38   H10   1.110004 S    
C37   H5    1.110464 S    
C10   C16   1.422032 A    
C25   C27   1.399539 A    
C1    C31   1.453215 S    
O2    C2    1.293110 A    
C26   C28   1.398654 A    
N7    O18   1.301182 A    
C28   C30   1.405583 A    
C20   C44   1.514880 S    
C6    C14   1.406965 A    
C37   H6    1.109575 S    
C21   N5    1.436461 S    
C33   C34   1.443325 S    
N1    C30   1.428975 S    
O4    C2    1.292076 A    
C7    O11   1.349011 S    
C45   H31   1.110835 S    
N5    O13   1.300938 A    
C42   H21   1.110371 S    
C19   C43   1.514400 S    
C32   C45   1.512236 S    
C39   H11   1.107317 S    
C39   H12   1.111525 S    
C4    C24   1.475372 S    
N6    O16   1.301191 A    
C41   H17   1.108523 S    
C26   N8    1.432447 S    
N5    O14   1.301144 A    
C41   H18   1.110026 S    
C43   H23   1.106832 S    
O6    C4    1.297043 A    
C22   N6    1.435577 S    
N8    O20   1.301172 A    
N9    O22   1.301250 A    
C2    C32   1.453458 S    
C3    C23   1.464151 S    
C27   C29   1.407061 A    
O3    Zn2   1.924313 S    
O8    C4    1.300089 A    
C18   C42   1.520058 S    
C43   H24   1.110355 S    
C8    C10   1.407502 A    
N3    C35   1.289826 D    
C10   C12   1.420488 A    
C42   H20   1.109793 S    
O1    Zn1   1.906319 S    
C20   C22   1.402511 A    
C19   C29   1.410838 A    
N2    C29   1.428674 S    
C40   H15   1.108417 S    
C46   H32   1.110336 S    
C13   C18   1.419225 A    
C5    N1    1.360201 A    
C37   H7    1.110358 S    
O6    Zn2   2.009896 S    
C19   C21   1.401787 A    
O3    C1    1.291998 A    
O8    Zn1   2.008595 S    
C42   H22   1.110462 S    
H3    C36   1.081877 S    
C5    O9    1.349289 S    
H1    C34   1.087478 S    
C17   C41   1.520096 S    
C28   N10   1.438900 S    
C6    O10   1.348940 S    
N4    C39   1.449564 S    
C39   H13   1.111359 S    
Zn1   N4    2.015721 S    
C9    C11   1.419157 A    
C40   H14   1.108370 S    
C21   C23   1.413478 A    
C15   C37   1.520102 S    
C45   H29   1.110182 S    
C22   C24   1.418364 A    
C35   C36   1.498163 S    
N10   O24   1.301337 A    
C16   C18   1.410015 A    
N8    O19   1.301156 A    
N1    C7    1.360611 A    
N4    C36   1.290156 D    
N2    C8    1.360272 A    
C11   C13   1.417953 A    
N6    O15   1.301016 A    
O2    Zn2   1.906320 S    
C41   H19   1.110665 S    
C27   N9    1.437983 S    
C38   H8    1.110649 S    
C16   C38   1.520291 S    
O5    Zn1   2.009895 S    
C43   H25   1.109401 S    
C14   C17   1.421423 A    
C6    N2    1.360037 A    
C44   H28   1.109620 S    
N9    O21   1.301161 A    
C44   H27   1.110405 S    
N3    C40   1.449267 S    
C46   H33   1.110376 S    
H4    C35   1.083186 S    
