data_mof_unit_64062.cif
_audit_creation_date              2012-10-26T20:36:24-0400
_audit_creation_method            fapswitch 2.2
_symmetry_space_group_name_H-M    P1
_symmetry_Int_Tables_number       1
_space_group_crystal_system       triclinic
_cell_length_a                    15.854009
_cell_length_b                    17.084501
_cell_length_c                    19.486654
_cell_angle_alpha                 91.794046
_cell_angle_beta                  92.695128
_cell_angle_gamma                 95.646942
_cell_volume                      5243.25972705

loop_
_atom_site_label
_atom_site_type_symbol
_atom_type_description
_atom_site_fract_x
_atom_site_fract_y
_atom_site_fract_z
_atom_type_partial_charge
C1    C     C_R   0.490018 0.348959 0.498781 0.590092
C2    C     C_R   0.519683 0.901523 0.514608 0.195646
C3    C     C_R   0.436610 0.138170 0.435249 0.244834
C4    C     C_R   0.563383 0.861829 0.564756 0.244834
C5    C     C_R   0.439117 0.220499 0.439407 -0.068126
C6    C     C_R   0.560877 0.779499 0.560597 -0.068126
C7    C     C_R   0.750813 0.459172 0.466465 0.124599
C8    C     C_R   0.249187 0.540828 0.533535 0.124598
C9    C     C_R   0.840059 0.464287 0.463531 0.213963
C10   C     C_R   0.159941 0.535713 0.536469 0.213963
C11   C     C_R   0.891155 0.520678 0.506012 0.210123
C12   C     C_R   0.509982 0.651041 0.501219 0.590095
C13   C     C_R   0.108844 0.479322 0.493988 0.210123
C14   C     C_R   0.849349 0.573164 0.546881 -0.059768
C15   C     C_R   0.150651 0.426836 0.453119 -0.059768
C16   C     C_R   0.499957 0.501286 0.367036 0.558671
C17   C     C_R   0.500043 0.498714 0.632964 0.558670
C18   C     C_R   0.760059 0.566778 0.546806 0.022600
C19   C     C_R   0.239941 0.433221 0.453194 0.022600
C20   C     C_R   0.423501 0.485186 0.248705 -0.035409
C21   C     C_R   0.576500 0.514814 0.751295 -0.035408
C22   C     C_R   0.425069 0.483906 0.176564 -0.064594
C23   C     C_R   0.485228 0.263124 0.494638 -0.030898
C24   C     C_R   0.574932 0.516094 0.823436 -0.064594
C25   C     C_R   0.501873 0.501877 0.144689 0.013111
C26   C     C_R   0.498127 0.498124 0.855311 0.013111
C27   C     C_R   0.577225 0.522750 0.184556 0.225201
C28   C     C_R   0.422776 0.477252 0.815444 0.225201
C29   C     C_R   0.576575 0.524586 0.256663 -0.018317
C30   C     C_R   0.423425 0.475415 0.743337 -0.018318
C31   C     C_R   0.499942 0.503619 0.290124 -0.046648
C32   C     C_R   0.500058 0.496381 0.709876 -0.046649
C33   C     C_R   0.497312 0.499509 0.930636 0.373987
C34   C     C_R   0.514772 0.736875 0.505363 -0.030897
C35   C     C_R   0.502688 0.500492 0.069364 0.373987
C36   C     C_1   0.341577 0.468911 0.278168 0.301574
C37   C     C_1   0.658423 0.531088 0.721832 0.301576
C38   C     C_1   0.896950 0.634941 0.588697 0.298444
C39   C     C_1   0.103050 0.365059 0.411302 0.298445
C40   C     C_1   0.346607 0.466245 0.134770 0.270556
C41   C     C_1   0.653393 0.533755 0.865230 0.270556
C42   C     C_1   0.655387 0.551117 0.294867 0.334448
C43   C     C_1   0.344613 0.448884 0.705133 0.334447
C44   C     C_1   0.397456 0.260845 0.385215 0.291065
C45   C     C_R   0.528325 0.223201 0.545187 0.193727
C46   C     C_1   0.602535 0.739153 0.614790 0.291065
C47   C     C_1   0.299490 0.597824 0.578544 0.360893
C48   C     C_1   0.700510 0.402176 0.421456 0.360894
C49   C     C_R   0.471680 0.776799 0.454812 0.193727
C50   C     C_R   0.525678 0.141672 0.540548 -0.061449
C51   C     C_R   0.474326 0.858328 0.459451 -0.061448
C52   C     C_R   0.480315 0.098477 0.485395 0.195646
Cl1   Cl    Cl    0.115289 0.595003 0.598778 -0.471720
Cl2   Cl    Cl    0.884711 0.404997 0.401222 -0.471721
Cl3   Cl    Cl    0.674160 0.544450 0.143803 -0.439458
Cl4   Cl    Cl    0.325840 0.455552 0.856197 -0.439458
Cl5   Cl    Cl    0.415676 0.726718 0.383479 -0.496484
Cl6   Cl    Cl    0.584336 0.273284 0.616516 -0.496482
Cl7   Cl    Cl    0.379770 0.083637 0.366275 -0.441007
Cl8   Cl    Cl    0.620215 0.916359 0.633735 -0.441006
Cu1   Cu    Cu3+1 0.415220 0.496180 0.496660 1.046772
Cu2   Cu    Cu3+1 0.584780 0.503820 0.503340 1.046774
H1    H     H_    0.728634 0.608510 0.576806 0.166302
H2    H     H_    0.271365 0.391490 0.423194 0.166304
H3    H     H_    0.440906 0.887607 0.419577 0.218826
H4    H     H_    0.559103 0.112395 0.580421 0.218826
N1    N     N_R   0.528467 0.566541 0.036207 -0.127083
N2    N     N_2   0.017578 0.469159 0.495059 -0.127146
N3    N     N_1   0.275374 0.456240 0.300282 -0.234749
N4    N     N_1   0.724626 0.543758 0.699718 -0.234749
N5    N     N_1   0.934854 0.684653 0.622310 -0.130128
N6    N     N_1   0.065145 0.315347 0.377689 -0.130126
N7    N     N_1   0.284193 0.452221 0.101525 -0.146289
N8    N     N_1   0.715808 0.547779 0.898475 -0.146289
N9    N     N_1   0.718484 0.572524 0.325084 -0.199102
N10   N     N_1   0.281516 0.427478 0.674917 -0.199102
N11   N     N_1   0.364299 0.292887 0.341703 -0.239162
N12   N     N_R   0.471533 0.433460 0.963793 -0.127085
N13   N     N_1   0.635689 0.707110 0.658303 -0.239162
N14   N     N_1   0.338926 0.643755 0.615110 -0.229505
N15   N     N_1   0.661074 0.356245 0.384890 -0.229506
N16   N     N_R   0.526126 0.565959 0.967902 -0.170754
N17   N     N_R   0.473874 0.434042 0.032098 -0.170756
N18   N     N_2   0.477098 0.015277 0.478419 -0.170621
N19   N     N_2   0.522899 0.984722 0.521585 -0.170622
N20   N     N_R   0.712130 0.509560 0.508360 -0.277882
N21   N     N_R   0.287870 0.490440 0.491640 -0.277883
N22   N     N_2   0.982422 0.530841 0.504941 -0.127146
O1    O     O_R   0.420530 0.382500 0.496880 -0.512634
O2    O     O_R   0.579470 0.617500 0.503120 -0.512632
O3    O     O_R   0.563720 0.388950 0.502520 -0.464282
O4    O     O_R   0.436280 0.611050 0.497480 -0.464285
O5    O     O_R   0.428380 0.496760 0.397320 -0.476949
O6    O     O_R   0.571620 0.503240 0.602680 -0.476948
O7    O     O_R   0.571570 0.503220 0.402960 -0.515274
O8    O     O_R   0.428430 0.496780 0.597040 -0.515274

loop_
_geom_bond_atom_site_label_1
_geom_bond_atom_site_label_2
_ccdc_geom_bond_type
C23   C45   A    
C29   C42   S    
C27   C29   A    
C14   C18   A    
C28   Cl4   S    
Cu1   O8    S    
C40   N7    T    
C16   C31   S    
C15   C19   A    
Cu2   N20   S    
C42   N9    T    
C18   N20   A    
C12   O2    A    
C44   N11   T    
C24   C26   A    
C19   N21   A    
C46   N13   T    
C11   C14   A    
C27   Cl3   S    
C33   N12   A    
C7    N20   A    
C49   Cl5   S    
C48   N15   T    
C2    N19   S    
C51   H3    S    
C52   N18   S    
C10   Cl1   S    
Cu1   N21   S    
C41   N8    T    
N12   N17   A    
C16   O7    A    
C22   C25   A    
C50   C52   A    
C39   N6    T    
C33   N16   A    
C19   H2    S    
Cu1   O4    S    
C1    O3    A    
C37   N4    T    
C24   C41   S    
C47   N14   T    
Cu1   O1    S    
C21   C32   A    
C45   Cl6   S    
N18   N19   D    
C4    C6    A    
C35   N17   A    
C49   C51   A    
C6    C34   A    
C2    C4    A    
C14   C38   S    
C9    C11   A    
C26   C33   S    
C5    C23   A    
C35   N1    A    
C11   N22   S    
C22   C40   S    
Cu2   O3    S    
C4    Cl8   S    
C16   O5    A    
C17   O8    A    
C50   H4    S    
C15   C39   S    
C25   C35   S    
C5    C44   S    
C20   C22   A    
C1    C23   S    
C13   C15   A    
N2    N22   D    
C30   C43   S    
C12   C34   S    
C36   N3    T    
C43   N10   T    
C7    C9    A    
C38   N5    T    
C34   C49   A    
C1    O1    A    
C6    C46   S    
C12   O4    A    
C3    C5    A    
C10   C13   A    
C3    C52   A    
C17   O6    A    
C25   C27   A    
C26   C28   A    
C8    N21   A    
C7    C48   S    
Cu2   O6    S    
C8    C47   S    
C29   C31   A    
C30   C32   A    
C45   C50   A    
Cu2   O2    S    
C28   C30   A    
Cu1   O5    S    
Cu1   Cu2   S    
C18   H1    S    
C2    C51   A    
C20   C36   S    
C21   C37   S    
N1    N16   A    
C8    C10   A    
C21   C24   A    
C17   C32   S    
C9    Cl2   S    
Cu2   O7    S    
C13   N2    S    
C20   C31   A    
C3    Cl7   S    
