data_mof_unit_68115.cif
_audit_creation_date              2013-03-05T15:58:26-0500
_audit_creation_method            fapswitch 2.2
_symmetry_space_group_name_H-M    P1
_symmetry_Int_Tables_number       1
_space_group_crystal_system       triclinic
_cell_length_a                    7.385207
_cell_length_b                    15.914548
_cell_length_c                    14.766917
_cell_angle_alpha                 89.999738
_cell_angle_beta                  90.001064
_cell_angle_gamma                 90.00106
_cell_volume                      1735.58870369

loop_
_atom_site_label
_atom_site_type_symbol
_atom_site_description
_atom_site_fract_x
_atom_site_fract_y
_atom_site_fract_z
_atom_type_partial_charge
O1    O     O_R   0.388780 0.834790 0.412340 -0.556541
O2    O     O_R   0.111220 0.165210 0.912340 -0.556578
O3    O     O_R   0.888780 0.665210 0.587660 -0.556556
O4    O     O_R   0.611220 0.334790 0.087660 -0.556548
O5    O     O_R   0.059040 0.845930 0.587040 -0.554950
O6    O     O_R   0.440960 0.154070 0.087040 -0.554951
O7    O     O_R   0.559040 0.654070 0.412960 -0.554957
O8    O     O_R   0.940960 0.345930 0.912960 -0.554977
C1    C     C_R   0.227614 0.866257 0.616179 1.021864
C2    C     C_R   0.272388 0.133739 0.116176 1.021853
C3    C     C_R   0.727610 0.633739 0.383824 1.021854
C4    C     C_R   0.772388 0.366262 0.883825 1.021811
O9    O     O_R   0.059070 0.845930 0.412970 -0.530851
O10   O     O_R   0.440930 0.154070 0.912970 -0.530860
O11   O     O_R   0.559070 0.654070 0.587030 -0.530859
O12   O     O_R   0.940930 0.345930 0.087030 -0.530849
O13   O     O_R   0.888760 0.665210 0.412340 -0.588410
O14   O     O_R   0.611240 0.334790 0.912340 -0.588404
O15   O     O_R   0.388760 0.834790 0.587660 -0.588437
O16   O     O_R   0.111240 0.165210 0.087660 -0.588413
C5    C     C_R   0.226106 0.864127 0.380882 0.985736
C6    C     C_R   0.273890 0.135876 0.880879 0.985769
C7    C     C_R   0.726108 0.635874 0.619119 0.985725
C8    C     C_R   0.773894 0.364128 0.119117 0.985743
O17   O     O_3   0.222280 0.690700 0.500000 -0.262659
O18   O     O_3   0.277720 0.309300 0.000000 -0.262655
O19   O     O_3   0.722280 0.809300 0.500000 -0.262652
O20   O     O_3   0.777720 0.190700 0.000000 -0.262668
V1    V     V_3+5 0.947430 0.761000 0.500000 1.384427
V2    V     V_3+5 0.552570 0.239000 0.000000 1.384425
V3    V     V_3+5 0.447430 0.739000 0.500000 1.384427
V4    V     V_3+5 0.052570 0.261000 0.000000 1.384419
C9    C     C_3   0.854132 0.591799 0.778665 0.696718
C10   C     C_3   0.645872 0.408203 0.278659 0.696733
C11   C     C_3   0.354116 0.908203 0.221336 0.696710
C12   C     C_3   0.145904 0.091804 0.721319 0.696877
C13   C     C_3   0.896890 0.510243 0.835862 -0.508150
C14   C     C_3   0.603118 0.489756 0.335860 -0.508149
C15   C     C_3   0.396871 0.989756 0.164135 -0.508142
C16   C     C_3   0.103154 0.010242 0.664122 -0.508529
H1    H     H_    0.890550 0.524269 0.909612 0.189722
H2    H     H_    0.609475 0.475727 0.409610 0.189717
H3    H     H_    0.390507 0.975728 0.090385 0.189732
H4    H     H_    0.109519 0.024251 0.590369 0.189604
H5    H     H_    0.038169 0.489277 0.823545 0.267095
H6    H     H_    0.461835 0.510719 0.323549 0.267103
H7    H     H_    0.538157 0.010719 0.176444 0.267096
H8    H     H_    0.961864 0.989284 0.676430 0.267147
H9    H     H_    0.951805 0.496147 0.625827 0.271778
H10   H     H_    0.548209 0.503856 0.125807 0.271765
H11   H     H_    0.451799 0.003854 0.374188 0.271771
H12   H     H_    0.048154 0.996160 0.874157 0.271784
C17   C     C_3   0.812051 0.485409 0.649357 -0.651112
C18   C     C_3   0.687953 0.514595 0.149351 -0.651133
C19   C     C_3   0.312054 0.014594 0.350646 -0.651111
C20   C     C_3   0.187911 0.985414 0.850638 -0.651016
C21   C     C_3   0.536137 0.540975 0.736236 0.568917
C22   C     C_3   0.963864 0.459031 0.236235 0.568922
C23   C     C_3   0.036132 0.959028 0.263767 0.568925
C24   C     C_3   0.463865 0.040973 0.763774 0.568891
C25   C     C_3   0.730778 0.566614 0.694160 -0.347478
C26   C     C_3   0.769225 0.433389 0.194157 -0.347481
C27   C     C_3   0.230774 0.933388 0.305842 -0.347473
C28   C     C_3   0.269218 0.066616 0.805838 -0.347564
C29   C     C_3   0.761239 0.437367 0.812837 -0.222921
C30   C     C_3   0.738758 0.562635 0.312835 -0.222943
C31   C     C_3   0.261239 0.062635 0.187164 -0.222942
C32   C     C_3   0.238769 0.937361 0.687167 -0.222831
C33   C     C_3   0.806727 0.407095 0.713538 0.754571
C34   C     C_3   0.693253 0.592906 0.213536 0.754629
C35   C     C_3   0.306756 0.092905 0.286462 0.754622
C36   C     C_3   0.193230 0.907097 0.786464 0.754617
C37   C     C_3   0.571584 0.478274 0.816582 -0.556499
C38   C     C_3   0.928417 0.521732 0.316578 -0.556500
C39   C     C_3   0.071576 0.021732 0.183424 -0.556497
C40   C     C_3   0.428435 0.978258 0.683438 -0.556556
H13   H     H_    0.567119 0.510684 0.883344 0.223557
H14   H     H_    0.932893 0.489323 0.383341 0.223555
H15   H     H_    0.067094 0.989326 0.116660 0.223556
H16   H     H_    0.432933 0.010652 0.616667 0.223499
H17   H     H_    0.459270 0.432907 0.823502 0.262624
H18   H     H_    0.040726 0.567102 0.323497 0.262630
H19   H     H_    0.959271 0.067102 0.176509 0.262629
H20   H     H_    0.540737 0.932883 0.676539 0.262651
H21   H     H_    0.743246 0.471094 0.584544 0.210386
H22   H     H_    0.756775 0.528916 0.084545 0.210379
H23   H     H_    0.243237 0.028914 0.415453 0.210342
H24   H     H_    0.256688 0.971098 0.915458 0.210374
N1    N     N_R   0.022736 0.632580 0.750243 0.252174
O21   O     O_R   0.063352 0.706843 0.780165 -0.290838
O22   O     O_R   0.123455 0.600262 0.687566 -0.351616
N2    N     N_R   0.477266 0.367426 0.250232 0.252185
O23   O     O_R   0.436667 0.293154 0.280132 -0.290845
O24   O     O_R   0.376548 0.399752 0.187558 -0.351599
N3    N     N_R   0.522721 0.867425 0.249758 0.252178
O25   O     O_R   0.563320 0.793157 0.219850 -0.290832
O26   O     O_R   0.623440 0.899747 0.312435 -0.351599
N4    N     N_R   0.977294 0.132585 0.749709 0.252242
O27   O     O_R   0.936612 0.206804 0.719684 -0.290553
O28   O     O_R   0.876580 0.100301 0.812409 -0.351646
N5    N     N_R   0.676829 0.345419 0.676180 0.263821
O29   O     O_R   0.710137 0.310361 0.598249 -0.298409
O30   O     O_R   0.520875 0.331113 0.713553 -0.299856
N6    N     N_R   0.823124 0.654596 0.176181 0.263803
O31   O     O_R   0.789767 0.689672 0.098264 -0.298448
O32   O     O_R   0.979109 0.668885 0.213533 -0.299878
N7    N     N_R   0.176896 0.154596 0.323819 0.263800
O33   O     O_R   0.210268 0.189675 0.401733 -0.298508
O34   O     O_R   0.020899 0.168876 0.286480 -0.299867
N8    N     N_R   0.323086 0.845412 0.823840 0.263811
O35   O     O_R   0.289695 0.810342 0.901757 -0.298461
O36   O     O_R   0.479096 0.831131 0.786517 -0.299874
O37   O     O_3   0.758174 0.649133 0.833823 -0.690189
H25   H     H_    0.830973 0.660835 0.888967 0.376197
O38   O     O_3   0.741829 0.350864 0.333815 -0.690186
H26   H     H_    0.669036 0.339162 0.388959 0.376199
O39   O     O_3   0.258150 0.850864 0.166182 -0.690173
H27   H     H_    0.330945 0.839161 0.111037 0.376200
O40   O     O_3   0.241884 0.149156 0.666190 -0.690011
H28   H     H_    0.169341 0.160680 0.610900 0.376053
O41   O     O_3   0.979017 0.369530 0.715865 -0.671372
H29   H     H_    0.013849 0.354532 0.652914 0.391134
O42   O     O_3   0.520950 0.630456 0.215864 -0.671353
H30   H     H_    0.486110 0.645458 0.152912 0.391089
O43   O     O_3   0.479065 0.130454 0.284130 -0.671370
H31   H     H_    0.513904 0.145464 0.347076 0.391095
O44   O     O_3   0.020925 0.869546 0.784121 -0.671389
H32   H     H_    0.986068 0.854545 0.847070 0.391099
N9    N     N_R   0.417083 0.498708 0.669157 0.263533
O45   O     O_R   0.436955 0.507094 0.582138 -0.377705
O46   O     O_R   0.278274 0.455925 0.697065 -0.328866
N10   N     N_R   0.082912 0.501298 0.169155 0.263534
O47   O     O_R   0.063055 0.492901 0.082136 -0.377716
O48   O     O_R   0.221717 0.544084 0.197064 -0.328852
N11   N     N_R   0.917089 0.001293 0.330848 0.263538
O49   O     O_R   0.936956 0.992899 0.417867 -0.377717
O50   O     O_R   0.778282 0.044076 0.302941 -0.328851
N12   N     N_R   0.582912 0.998720 0.830864 0.263562
O51   O     O_R   0.562976 0.007081 0.917882 -0.377756
O52   O     O_R   0.721755 0.955958 0.802966 -0.328915
N13   N     N_R   0.437180 0.613636 0.775179 0.287499
O53   O     O_R   0.423955 0.683963 0.731781 -0.268532
O54   O     O_R   0.345572 0.606534 0.850298 -0.314714
N14   N     N_R   0.062828 0.386373 0.275180 0.287496
O55   O     O_R   0.076063 0.316047 0.231781 -0.268503
O56   O     O_R   0.154453 0.393480 0.350294 -0.314728
N15   N     N_R   0.937165 0.886368 0.224824 0.287497
O57   O     O_R   0.923897 0.816048 0.268233 -0.268508
O58   O     O_R   0.845570 0.893467 0.149699 -0.314708
N16   N     N_R   0.562826 0.113632 0.724826 0.287480
O59   O     O_R   0.576120 0.183949 0.768239 -0.268502
O60   O     O_R   0.654358 0.106544 0.649683 -0.314657

loop_
_geom_bond_atom_site_label_1
_geom_bond_atom_site_label_2
_geom_bond_distance
_ccdc_geom_bond_type
O17   V3    1.831842 S    
H9    C17   1.102359 S    
C22   C26   1.618278 S    
N5    O29   1.302360 A    
C35   N7    1.479199 S    
O19   V1    1.831867 S    
O13   V1    2.046297 S    
O12   C8    1.352843 A    
O3    C7    1.370059 A    
N3    O25   1.296904 A    
C10   C26   1.596151 S    
C17   C33   1.566240 S    
C40   H20   1.104402 S    
N6    O32   1.297301 A    
O4    V2    2.046263 S    
O42   H30   0.993649 S    
C2    C31   1.544723 S    
O1    C5    1.370067 A    
H10   C18   1.102355 S    
O9    V1    2.039188 S    
N15   O58   1.304222 A    
O10   V2    2.039178 S    
C14   H2    1.112695 S    
N13   O54   1.304221 A    
O4    C8    1.370058 A    
C34   N6    1.479198 S    
C20   H24   1.107297 S    
O38   H26   0.993374 S    
C30   C38   1.545543 S    
O1    V3    2.046267 S    
C29   C37   1.545544 S    
O2    V4    2.046288 S    
C21   C37   1.572232 S    
O3    V1    2.046266 S    
C12   O40   1.413599 S    
N8    O35   1.302368 A    
C12   C16   1.580470 S    
C17   C25   1.571046 S    
C34   O42   1.406262 S    
C1    O15   1.358130 A    
N15   O57   1.293406 A    
C5    C27   1.563348 S    
C2    O16   1.358136 A    
N10   O47   1.300226 A    
C20   C36   1.566230 S    
C13   C29   1.569808 S    
O2    C6    1.370062 A    
N7    O33   1.302364 A    
C20   C28   1.571055 S    
O14   V2    2.046297 S    
N1    O22   1.294016 A    
C16   H4    1.112685 S    
H11   C19   1.102356 S    
C3    C30   1.544734 S    
C32   C36   1.579599 S    
O11   C7    1.352840 A    
O15   V3    2.046317 S    
N5    O30   1.297286 A    
N11   O50   1.297804 A    
C19   H23   1.107296 S    
C17   H21   1.107303 S    
N7    O34   1.297281 A    
C15   C31   1.569800 S    
C38   H18   1.104400 S    
C37   H17   1.104404 S    
N6    O31   1.302367 A    
O7    C3    1.356349 A    
O5    V1    2.039179 S    
C36   N8    1.479208 S    
O7    V3    2.039221 S    
C36   O44   1.406269 S    
O8    V4    2.039193 S    
C14   C30   1.569798 S    
N11   O49   1.300224 A    
N14   O56   1.304217 A    
C22   N10   1.485486 S    
C18   H22   1.107297 S    
O18   V4    1.831841 S    
C15   H3    1.112693 S    
C18   C26   1.571049 S    
C10   O38   1.413603 S    
C24   C40   1.572248 S    
C9    C13   1.580409 S    
C19   C27   1.571051 S    
C11   C15   1.580403 S    
O5    C1    1.356351 A    
C9    N1    1.465544 S    
C18   C34   1.566237 S    
C33   O41   1.406271 S    
O8    C4    1.356344 A    
N2    O24   1.294017 A    
O9    C5    1.352837 A    
C24   N16   1.483923 S    
C32   C40   1.545522 S    
O11   V3    2.039190 S    
O41   H29   0.993627 S    
N12   O52   1.297801 A    
C9    C25   1.596155 S    
O6    V2    2.039192 S    
C33   N5    1.479200 S    
N13   O53   1.293410 A    
C38   H14   1.113137 S    
O43   H31   0.993613 S    
N16   O60   1.304220 A    
C11   O39   1.413605 S    
C31   C39   1.545542 S    
C13   H5    1.110429 S    
O44   H32   0.993645 S    
C23   C39   1.572235 S    
C22   C38   1.572230 S    
C15   H7    1.110431 S    
O37   H25   0.993382 S    
O16   V4    2.046299 S    
C21   N9    1.485490 S    
C16   H8    1.110437 S    
C3    O13   1.358132 A    
C8    C26   1.563354 S    
C10   C14   1.580409 S    
C23   C27   1.618282 S    
C40   H16   1.113129 S    
N14   O55   1.293410 A    
O6    C2    1.356345 A    
C11   C27   1.596153 S    
O40   H28   0.993612 S    
N3    O26   1.294015 A    
C21   C25   1.618289 S    
C11   N3    1.465534 S    
O12   V4    2.039216 S    
C4    C29   1.544725 S    
C9    O37   1.413606 S    
C21   N13   1.483915 S    
C24   C28   1.618295 S    
O10   C6    1.352846 A    
O20   V2    1.831868 S    
N9    O45   1.300232 A    
C1    C32   1.544727 S    
O39   H27   0.993398 S    
C39   H19   1.104401 S    
C30   C34   1.579607 S    
C29   C33   1.579606 S    
C23   N11   1.485485 S    
N2    O23   1.296907 A    
C31   C35   1.579605 S    
C13   H1    1.112694 S    
N4    O28   1.294016 A    
N8    O36   1.297291 A    
C14   H6    1.110429 S    
N12   O51   1.300226 A    
C6    C28   1.563350 S    
C22   N14   1.483910 S    
C7    C25   1.563345 S    
N10   O48   1.297804 A    
N4    O27   1.296923 A    
C16   C32   1.569780 S    
C4    O14   1.358132 A    
C37   H13   1.113138 S    
N16   O59   1.293411 A    
C35   O43   1.406267 S    
C12   N4    1.465466 S    
N1    O21   1.296926 A    
C12   C28   1.596160 S    
C39   H15   1.113135 S    
C19   C35   1.566231 S    
H12   C20   1.102353 S    
C24   N12   1.485478 S    
N9    O46   1.297812 A    
C10   N2    1.465540 S    
C23   N15   1.483918 S    
