data_mof_unit_38140.cif
_audit_creation_date              2013-03-05T16:04:07-0500
_audit_creation_method            fapswitch 2.2
_symmetry_space_group_name_H-M    P1
_symmetry_Int_Tables_number       1
_space_group_crystal_system       triclinic
_cell_length_a                    10.87099
_cell_length_b                    9.534934
_cell_length_c                    10.844818
_cell_angle_alpha                 91.581736
_cell_angle_beta                  90.81385
_cell_angle_gamma                 90.629626
_cell_volume                      1123.49611138

loop_
_atom_site_label
_atom_site_type_symbol
_atom_site_description
_atom_site_fract_x
_atom_site_fract_y
_atom_site_fract_z
_atom_type_partial_charge
O1    O     O_R   0.319640 0.618740 0.499990 -0.585766
O2    O     O_R   0.680360 0.618740 0.500010 -0.577235
O3    O     O_R   0.319620 0.381170 0.499990 -0.570214
O4    O     O_R   0.680380 0.381170 0.500010 -0.556459
C1    C     C_R   0.261998 0.499006 0.499882 0.876114
C2    C     C_R   0.737581 0.500606 0.496460 0.875535
O5    O     O_R   0.500000 0.618810 0.319650 -0.598153
O6    O     O_R   0.500000 0.618810 0.680350 -0.551995
O7    O     O_R   0.499970 0.381240 0.319640 -0.594533
O8    O     O_R   0.500030 0.381240 0.680360 -0.597325
C3    C     C_R   0.494187 0.497371 0.262114 0.875214
C4    C     C_R   0.506794 0.503063 0.738460 0.786099
Cu1   Cu    Cu3+1 0.500000 0.640660 0.500000 1.011802
Cu2   Cu    Cu3+1 0.500000 0.359340 0.500000 1.002845
H1    H     H_    0.583174 0.295541 0.108774 0.189802
H2    H     H_    0.588812 0.300330 0.884120 0.197259
C5    C     C_R   0.335375 0.684251 0.114927 0.178853
C6    C     C_R   0.467763 0.769127 0.907077 0.196112
C7    C     C_R   0.318399 0.819381 0.068802 0.282837
C8    C     C_R   0.385124 0.863016 0.965841 0.249805
C9    C     C_R   0.470307 0.627281 0.944930 -0.107669
C10   C     C_R   0.428417 0.600001 0.063509 -0.118818
C11   C     C_R   0.483775 0.490474 0.127595 -0.010696
C12   C     C_R   0.514913 0.510458 0.874013 -0.016396
C13   C     C_R   0.543334 0.383423 0.061983 -0.139443
C14   C     C_R   0.551051 0.389079 0.934716 -0.154992
C15   C     C_R   0.061122 0.383344 0.441603 0.320997
C16   C     C_R   0.932899 0.387883 0.434046 0.280935
C17   C     C_R   0.871085 0.501629 0.489649 -0.205254
C18   C     C_R   0.127726 0.496841 0.497107 -0.166082
C19   C     C_R   0.937647 0.614388 0.543661 -0.167686
C20   C     C_R   0.065104 0.612661 0.546167 -0.170633
H3    H     H_    0.891001 0.702855 0.586007 0.202076
H4    H     H_    0.114799 0.700877 0.588781 0.165152
C21   C     C_R   0.410499 0.074876 0.558859 0.054953
C22   C     C_R   0.587413 0.073319 0.438138 -0.007474
H5    H     H_    0.338943 0.131154 0.606102 0.153451
H6    H     H_    0.655223 0.128117 0.386001 0.205681
C23   C     C_R   0.409502 0.926179 0.557394 0.048944
C24   C     C_R   0.588352 0.924813 0.439146 0.008169
H7    H     H_    0.336917 0.870357 0.602829 0.105785
H8    H     H_    0.658872 0.868431 0.389661 0.156765
N1    N     N_R   0.500000 0.852070 0.500000 -0.176790
N2    N     N_R   0.500000 0.147940 0.500000 -0.196452
N3    N     N_R   0.250069 0.625567 0.201321 0.136689
O9    O     O_R   0.177839 0.704848 0.266779 -0.325754
O10   O     O_R   0.228856 0.490989 0.198426 -0.364270
N4    N     N_R   0.566370 0.823845 0.833567 0.177943
O11   O     O_R   0.559910 0.947673 0.786700 -0.327030
O12   O     O_R   0.671454 0.759708 0.830040 -0.343241
O13   O     O_3   0.239232 0.912116 0.125765 -0.535168
C25   C     C_3   0.296439 0.970628 0.233505 0.193719
H9    H     H_    0.361361 0.898821 0.280334 0.110695
H10   H     H_    0.222985 0.992421 0.300641 0.251202
C26   C     C_3   0.362380 0.107351 0.205824 -0.689138
H11   H     H_    0.307153 0.170106 0.141313 0.297516
H12   H     H_    0.374911 0.168933 0.292839 0.246473
H13   H     H_    0.453687 0.085585 0.165412 0.220730
O14   O     O_3   0.381950 0.002705 0.934189 -0.530529
C27   C     C_3   0.270611 0.029665 0.870657 0.134420
H14   H     H_    0.188003 0.995095 0.921422 0.199048
H15   H     H_    0.269414 0.975005 0.779208 0.107142
C28   C     C_3   0.259944 0.186818 0.852317 -0.739332
H16   H     H_    0.344658 0.227948 0.809915 0.254497
H17   H     H_    0.179945 0.208005 0.791071 0.211864
H18   H     H_    0.246933 0.242661 0.942201 0.262414
N5    N     N_R   0.122416 0.264724 0.389120 0.147140
O15   O     O_R   0.151026 0.162676 0.460817 -0.417220
O16   O     O_R   0.113794 0.240114 0.270741 -0.285870
N6    N     N_R   0.866689 0.279965 0.364991 0.141735
O17   O     O_R   0.795860 0.313318 0.272848 -0.375366
O18   O     O_R   0.886826 0.148233 0.385341 -0.315431

loop_
_geom_bond_atom_site_label_1
_geom_bond_atom_site_label_2
_geom_bond_distance
_ccdc_geom_bond_type
C7    C8    1.409989 A    
O5    C3    1.300569 A    
O7    Cu2   1.972805 S    
C19   H3    1.083603 S    
C20   H4    1.083696 S    
N6    O17   1.301389 A    
O13   C25   1.413845 S    
N5    O15   1.299859 A    
N3    O10   1.300702 A    
C6    C9    1.424673 A    
C4    C12   1.471151 S    
C21   C23   1.417395 A    
C5    C10   1.410121 A    
C25   C26   1.520087 S    
O5    Cu1   1.961202 S    
O6    C4    1.288207 A    
C28   H17   1.110479 S    
C2    C17   1.454183 S    
C26   H11   1.107712 S    
C22   H6    1.075083 S    
C28   H18   1.109328 S    
O14   C27   1.413749 S    
C17   C19   1.399547 A    
N3    O9    1.300464 A    
C15   C18   1.411429 A    
C18   C20   1.400159 A    
C21   N2    1.366281 A    
O7    C3    1.287563 A    
C12   C14   1.404226 A    
O2    C2    1.292626 A    
O3    Cu2   1.974197 S    
O8    C4    1.306929 A    
C27   C28   1.522486 S    
O1    C1    1.296237 A    
C24   H8    1.081458 S    
N4    O11   1.300471 A    
C5    C7    1.408039 A    
C25   H10   1.105764 S    
C9    C10   1.400445 A    
N4    O12   1.302211 A    
C6    C8    1.420228 A    
C26   H12   1.103554 S    
O4    Cu2   1.969647 S    
C27   H15   1.107386 S    
C22   N2    1.365996 A    
O4    C2    1.293288 A    
C15   N5    1.427934 S    
N5    O16   1.300555 A    
C28   H16   1.107890 S    
O6    Cu1   1.972638 S    
C7    O13   1.380511 S    
Cu1   N1    2.015780 S    
C11   C13   1.398181 A    
O1    Cu1   1.969513 S    
C25   H9    1.115541 S    
C23   H7    1.079362 S    
H1    C13   1.082790 S    
Cu2   N2    2.015685 S    
C1    C18   1.459451 S    
O8    Cu2   1.961340 S    
C9    C12   1.429182 A    
C3    C11   1.461227 S    
C15   C16   1.396370 A    
O2    Cu1   1.974081 S    
C26   H13   1.110071 S    
C10   C11   1.406350 A    
C16   C17   1.408151 A    
C22   C24   1.416486 A    
C23   N1    1.364911 A    
C21   H5    1.077435 S    
C13   C14   1.386418 A    
Cu1   Cu2   2.682368 S    
N6    O18   1.301648 A    
C24   N1    1.366658 A    
C16   N6    1.436515 S    
C19   C20   1.385760 A    
C8    O14   1.385268 S    
C5    N3    1.446772 S    
C27   H14   1.111647 S    
O3    C1    1.292398 A    
H2    C14   1.083547 S    
C6    N4    1.446305 S    
