data_mof_unit_63688.cif
_audit_creation_date              2013-03-05T16:01:04-0500
_audit_creation_method            fapswitch 2.2
_symmetry_space_group_name_H-M    P1
_symmetry_Int_Tables_number       1
_space_group_crystal_system       triclinic
_cell_length_a                    18.702649
_cell_length_b                    18.504592
_cell_length_c                    19.26148
_cell_angle_alpha                 109.706477
_cell_angle_beta                  109.943531
_cell_angle_gamma                 108.087818
_cell_volume                      5172.72646469

loop_
_atom_site_label
_atom_site_type_symbol
_atom_site_description
_atom_site_fract_x
_atom_site_fract_y
_atom_site_fract_z
_atom_type_partial_charge
O1    O     O_R   0.591120 0.552750 0.643890 -0.541261
O2    O     O_R   0.408880 0.447250 0.356110 -0.560593
O3    O     O_R   0.591210 0.447270 0.538420 -0.506397
O4    O     O_R   0.408790 0.552730 0.461580 -0.506250
C1    C     C_R   0.621606 0.500534 0.618997 0.889731
C2    C     C_R   0.377831 0.499024 0.381180 0.902623
O5    O     O_R   0.408810 0.461590 0.552740 -0.577323
O6    O     O_R   0.591190 0.538410 0.447260 -0.579263
O7    O     O_R   0.408900 0.356100 0.447280 -0.514282
O8    O     O_R   0.591100 0.643900 0.552720 -0.529208
C3    C     C_R   0.381334 0.379152 0.500328 0.881852
C4    C     C_R   0.618379 0.620395 0.499228 0.875650
Cu1   Cu    Cu3+1 0.499950 0.562450 0.562440 1.259958
Cu2   Cu    Cu3+1 0.500050 0.437550 0.437560 1.258361
C5    C     C_3   0.029672 0.348814 0.757185 0.116423
C6    C     C_3   0.972112 0.652371 0.243770 0.129611
C7    C     C_3   0.904739 0.230711 0.748047 0.046351
C8    C     C_3   0.093258 0.771233 0.248475 0.052467
C9    C     C_3   0.995922 0.189491 0.685228 -0.186985
C10   C     C_3   0.004123 0.811259 0.314060 -0.185644
H1    H     H_    0.997215 0.272948 0.625219 0.295768
H2    H     H_    0.006139 0.729818 0.375982 0.294210
C11   C     C_3   0.031916 0.278408 0.687616 -0.314946
C12   C     C_3   0.969938 0.723042 0.313279 -0.327184
C13   C     C_3   0.349184 0.303075 0.579892 -0.424980
C14   C     C_3   0.659751 0.678463 0.410970 -0.387584
C15   C     C_3   0.275489 0.241811 0.585201 0.123276
C16   C     C_3   0.725221 0.757955 0.415813 0.122691
H3    H     H_    0.266805 0.392105 0.554826 0.260418
H4    H     H_    0.752604 0.610888 0.492951 0.276611
C17   C     C_3   0.238565 0.331388 0.493865 -0.419808
C18   C     C_3   0.769692 0.680300 0.528599 -0.441004
C19   C     C_3   0.271493 0.214761 0.418556 0.068631
C20   C     C_3   0.710472 0.784517 0.565636 0.050104
C21   C     C_3   0.312091 0.307625 0.497713 -0.221998
C22   C     C_3   0.687490 0.690532 0.500822 -0.238813
C23   C     C_3   0.187220 0.187163 0.496248 -0.357374
C24   C     C_3   0.813753 0.812526 0.505066 -0.356335
C25   C     C_3   0.158040 0.256408 0.480393 0.457976
C26   C     C_3   0.842808 0.742562 0.522044 0.474388
C27   C     C_3   0.205380 0.139189 0.421446 0.312930
C28   C     C_3   0.791704 0.858738 0.576719 0.314879
H5    H     H_    0.218760 0.351259 0.445715 0.272338
H6    H     H_    0.794400 0.695056 0.595294 0.263295
C29   C     C_3   0.761750 0.600054 0.764001 0.355217
C30   C     C_3   0.233226 0.400683 0.241249 0.346125
C31   C     C_3   0.836920 0.595650 0.829461 0.008153
C32   C     C_3   0.158140 0.405971 0.177653 0.033402
H7    H     H_    0.612022 0.475247 0.748079 0.179672
H8    H     H_    0.378601 0.503263 0.243385 0.170735
C33   C     C_3   0.647005 0.445990 0.723776 -0.000733
C34   C     C_3   0.350278 0.542500 0.268946 0.005214
C35   C     C_3   0.743216 0.453848 0.651961 0.479356
C36   C     C_3   0.262154 0.553517 0.349960 0.481468
C37   C     C_3   0.691441 0.499390 0.687009 -0.387423
C38   C     C_3   0.307625 0.500303 0.313560 -0.399671
C39   C     C_3   0.810941 0.499552 0.811697 -0.305491
C40   C     C_3   0.188796 0.500510 0.188583 -0.298511
C41   C     C_3   0.718506 0.453440 0.801367 0.125354
C42   C     C_3   0.278728 0.536032 0.191696 0.129259
C43   C     C_3   0.808985 0.451423 0.727595 -0.476976
C44   C     C_3   0.199213 0.558736 0.274655 -0.491376
C45   C     C_3   0.999248 0.311259 0.810446 -0.266889
C46   C     C_3   0.999553 0.688686 0.188546 -0.264218
O9    O     O_R   0.052750 0.091090 0.643890 -0.563810
O10   O     O_R   0.947250 0.908910 0.356110 -0.559451
O11   O     O_R   0.947230 0.091150 0.538450 -0.514348
O12   O     O_R   0.052770 0.908850 0.461550 -0.522306
C47   C     C_R   0.998728 0.120122 0.618692 0.853864
C48   C     C_R   0.001504 0.880240 0.381177 0.841571
O13   O     O_R   0.143910 0.091120 0.552710 -0.541741
O14   O     O_R   0.856090 0.908880 0.447290 -0.527832
O15   O     O_R   0.038380 0.091180 0.447270 -0.505217
O16   O     O_R   0.961620 0.908820 0.552730 -0.516338
C49   C     C_R   0.119645 0.119217 0.499114 0.906842
C50   C     C_R   0.880639 0.880334 0.500989 0.868316
Cu3   Cu    Cu3+1 0.062480 0.999960 0.562430 1.259278
Cu4   Cu    Cu3+1 0.937520 0.000040 0.437570 1.277277
O17   O     O_R   0.052740 0.643910 0.091070 -0.542139
O18   O     O_R   0.947260 0.356090 0.908930 -0.540686
O19   O     O_R   0.947240 0.538460 0.091150 -0.533120
O20   O     O_R   0.052760 0.461540 0.908850 -0.531042
C51   C     C_R   0.999954 0.620054 0.119509 0.794373
C52   C     C_R   0.999667 0.379934 0.880152 0.818232
O21   O     O_R   0.961590 0.552710 0.908800 -0.562997
O22   O     O_R   0.038410 0.447290 0.091200 -0.562862
O23   O     O_R   0.856080 0.447270 0.908890 -0.528300
O24   O     O_R   0.143920 0.552730 0.091110 -0.530459
C53   C     C_R   0.880068 0.500374 0.881008 0.844955
C54   C     C_R   0.119848 0.500385 0.119741 0.869044
Cu5   Cu    Cu3+1 0.062470 0.562430 0.999950 1.247929
Cu6   Cu    Cu3+1 0.937530 0.437570 0.000050 1.243909
C55   C     C_3   0.902505 0.160733 0.673368 0.107663
C56   C     C_3   0.097009 0.840906 0.324622 0.109348
C57   C     C_3   0.056214 0.204459 0.773828 -0.434954
C58   C     C_3   0.942547 0.794987 0.224790 -0.411558
H9    H     H_    0.121914 0.219821 0.781692 0.264789
H10   H     H_    0.878678 0.784100 0.219562 0.264405
H11   H     H_    0.032075 0.143339 0.776996 0.252875
H12   H     H_    0.967951 0.854496 0.219453 0.256655
C59   C     C_3   0.063164 0.278510 0.847775 0.125052
C60   C     C_3   0.931331 0.716839 0.150234 0.114108
H13   H     H_    0.097521 0.402710 0.799550 0.218725
H14   H     H_    0.904454 0.597382 0.202034 0.212272
H15   H     H_    0.234786 0.221445 0.364599 0.227570
H16   H     H_    0.726607 0.785651 0.627023 0.214959
N1    N     N_R   0.335348 0.193255 0.401099 0.196272
O25   O     O_R   0.329900 0.174576 0.327370 -0.181956
O26   O     O_R   0.394571 0.187930 0.455855 -0.189417
N2    N     N_R   0.634103 0.798722 0.543490 0.198650
O27   O     O_R   0.603159 0.810550 0.595091 -0.182767
O28   O     O_R   0.603359 0.810511 0.479001 -0.199244
N3    N     N_R   0.241274 0.080821 0.435316 0.135237
O29   O     O_R   0.245146 0.060538 0.494323 -0.319773
O30   O     O_R   0.251526 0.033222 0.375865 -0.186262
N4    N     N_R   0.770389 0.928198 0.571306 0.126259
O31   O     O_R   0.766157 0.948569 0.512284 -0.308466
O32   O     O_R   0.754467 0.970811 0.628247 -0.200819
N5    N     N_R   0.125265 0.082704 0.336677 0.147065
O33   O     O_R   0.060776 0.017728 0.324945 -0.362743
O34   O     O_R   0.128252 0.077792 0.268690 -0.183979
N6    N     N_R   0.867518 0.902308 0.662637 0.156156
O35   O     O_R   0.930725 0.978695 0.691127 -0.316723
O36   O     O_R   0.870752 0.871124 0.714369 -0.226917
N7    N     N_R   0.083159 0.214607 0.393814 0.156777
O37   O     O_R   0.004906 0.189677 0.382444 -0.186605
O38   O     O_R   0.094076 0.216932 0.331346 -0.236061
N8    N     N_R   0.925067 0.775189 0.600155 0.172429
O39   O     O_R   0.944815 0.717340 0.612593 -0.184640
O40   O     O_R   0.982424 0.856811 0.653300 -0.207321
N9    N     N_R   0.728051 0.649165 0.811268 0.196110
O41   O     O_R   0.652440 0.614440 0.804568 -0.305631
O42   O     O_R   0.775507 0.733899 0.859428 -0.149444
N10   N     N_R   0.267196 0.350697 0.195203 0.161188
O43   O     O_R   0.279405 0.360628 0.135715 -0.291192
O44   O     O_R   0.273856 0.286296 0.204912 -0.169493
N11   N     N_R   0.795845 0.653135 0.728480 0.137081
O45   O     O_R   0.748517 0.682236 0.692169 -0.338698
O46   O     O_R   0.877013 0.688018 0.748286 -0.236220
N12   N     N_R   0.197905 0.351934 0.279257 0.155444
O47   O     O_R   0.249730 0.341760 0.335351 -0.378990
O48   O     O_R   0.114963 0.300826 0.243457 -0.193930
H17   H     H_    0.893828 0.615285 0.820169 0.210933
H18   H     H_    0.105448 0.395922 0.193766 0.201280
N13   N     N_R   0.869292 0.657281 0.918713 0.143964
O49   O     O_R   0.819642 0.649701 0.952137 -0.289921
O50   O     O_R   0.948017 0.722437 0.964549 -0.239736
N14   N     N_R   0.116478 0.334729 0.090368 0.181926
O51   O     O_R   0.123887 0.350565 0.032022 -0.354923
O52   O     O_R   0.070796 0.254341 0.070482 -0.180173
H19   H     H_    0.100763 0.300477 0.703534 0.229505
H20   H     H_    0.901504 0.700778 0.298982 0.224962
H21   H     H_    0.720199 0.497329 0.858572 0.194106
H22   H     H_    0.270101 0.486190 0.133161 0.208695
N15   N     N_R   0.684736 0.363188 0.578584 0.199895
O53   O     O_R   0.666597 0.295288 0.589362 -0.193361
O54   O     O_R   0.665021 0.348626 0.501717 -0.186445
N16   N     N_R   0.325727 0.644422 0.421598 0.193893
O55   O     O_R   0.352125 0.709465 0.407890 -0.190283
O56   O     O_R   0.343137 0.664216 0.499143 -0.185715
N17   N     N_R   0.792554 0.505028 0.623414 0.147339
O57   O     O_R   0.860553 0.500288 0.623254 -0.193962
O58   O     O_R   0.754119 0.529464 0.572936 -0.327116
N18   N     N_R   0.212317 0.506399 0.381288 0.146318
O59   O     O_R   0.252370 0.497142 0.445050 -0.283643
O60   O     O_R   0.129040 0.476861 0.349774 -0.235918
H23   H     H_    0.875937 0.482414 0.738957 0.247406
H24   H     H_    0.134217 0.539556 0.268202 0.252009
H25   H     H_    0.797540 0.384694 0.714100 0.259446
H26   H     H_    0.218764 0.626089 0.285760 0.259020
N19   N     N_R   0.577070 0.355134 0.661325 0.176004
O61   O     O_R   0.536344 0.309788 0.687682 -0.248352
O62   O     O_R   0.536715 0.330388 0.581077 -0.298948
N20   N     N_R   0.425521 0.630983 0.326038 0.179271
O63   O     O_R   0.468453 0.659528 0.406969 -0.309847
O64   O     O_R   0.465316 0.668499 0.294045 -0.235733
N21   N     N_R   0.696598 0.368980 0.799985 0.209532
O65   O     O_R   0.675950 0.357633 0.855005 -0.213618
O66   O     O_R   0.696654 0.304842 0.744693 -0.219141
N22   N     N_R   0.305311 0.618029 0.188111 0.204646
O67   O     O_R   0.320627 0.620168 0.127573 -0.208614
O68   O     O_R   0.315656 0.689197 0.244828 -0.215499
N23   N     N_R   0.867225 0.189679 0.789684 0.161142
O69   O     O_R   0.895272 0.143321 0.817443 -0.266303
O70   O     O_R   0.797226 0.189637 0.788557 -0.189417
N24   N     N_R   0.125272 0.812098 0.203921 0.162054
O71   O     O_R   0.091358 0.854371 0.174641 -0.258179
O72   O     O_R   0.195769 0.816023 0.203377 -0.191526
H27   H     H_    0.884457 0.099412 0.676101 0.200299
H28   H     H_    0.114970 0.902763 0.322572 0.200398
N25   N     N_R   0.833865 0.140328 0.591834 0.181237
O73   O     O_R   0.850493 0.164485 0.540629 -0.228428
O74   O     O_R   0.753691 0.105427 0.574829 -0.156075
N26   N     N_R   0.166870 0.860988 0.405248 0.178502
O75   O     O_R   0.152059 0.839388 0.458480 -0.231766
O76   O     O_R   0.246469 0.895243 0.420560 -0.164334
H29   H     H_    0.862480 0.256671 0.722057 0.196983
H30   H     H_    0.138211 0.747188 0.273347 0.193716
N27   N     N_R   0.978627 0.386825 0.721810 0.118020
O77   O     O_R   0.015730 0.470763 0.750035 -0.262772
O78   O     O_R   0.901582 0.337626 0.654984 -0.284495
N28   N     N_R   0.025437 0.616608 0.279807 0.116651
O79   O     O_R   0.989594 0.533393 0.255043 -0.260226
O80   O     O_R   0.103964 0.667600 0.344088 -0.294509
H31   H     H_    0.041947 0.250087 0.883796 0.233632
H32   H     H_    0.945117 0.738948 0.107323 0.231343
N29   N     N_R   0.155642 0.345689 0.906078 0.162209
O81   O     O_R   0.211448 0.321617 0.937654 -0.208155
O82   O     O_R   0.181913 0.429110 0.936799 -0.294155
N30   N     N_R   0.839566 0.646441 0.099741 0.153028
O83   O     O_R   0.818478 0.565783 0.052231 -0.297074
O84   O     O_R   0.777718 0.667278 0.082970 -0.214256
H33   H     H_    0.388847 0.369630 0.636708 0.243250
H34   H     H_    0.655018 0.616262 0.369783 0.258285
H35   H     H_    0.394417 0.276657 0.579918 0.265340
H36   H     H_    0.594306 0.670851 0.381213 0.248372
H37   H     H_    0.297953 0.197917 0.601100 0.224022
H38   H     H_    0.694229 0.799692 0.413119 0.237517
N31   N     N_R   0.266057 0.289949 0.657225 0.165895
O85   O     O_R   0.290917 0.373361 0.688964 -0.274747
O86   O     O_R   0.243871 0.251845 0.697840 -0.292237
N32   N     N_R   0.734769 0.732943 0.339288 0.151625
O87   O     O_R   0.732863 0.658838 0.301394 -0.262319
O88   O     O_R   0.722575 0.773863 0.296746 -0.248791
N33   N     N_R   0.132502 0.297626 0.541107 0.170338
O89   O     O_R   0.088558 0.251575 0.564359 -0.385649
O90   O     O_R   0.129002 0.369226 0.549962 -0.217312
N34   N     N_R   0.852551 0.693670 0.450788 0.163441
O91   O     O_R   0.812629 0.608431 0.407704 -0.243203
O92   O     O_R   0.916552 0.735667 0.442989 -0.362784

loop_
_geom_bond_atom_site_label_1
_geom_bond_atom_site_label_2
_geom_bond_distance
_ccdc_geom_bond_type
C40   C44   1.546623 S    
O5    Cu1   1.998975 S    
N26   O76   1.301335 A    
N19   O61   1.302378 A    
C31   N13   1.470232 S    
C15   N31   1.476587 S    
C25   N7    1.484862 S    
C58   C60   1.550185 S    
N15   O54   1.302869 A    
O15   C49   1.304593 A    
C17   H5    1.101251 S    
C43   H25   1.104346 S    
C44   H24   1.103809 S    
C19   N1    1.475284 S    
O18   C52   1.315163 A    
N29   O82   1.299663 A    
C35   N17   1.485059 S    
N8    O39   1.303019 A    
N34   O92   1.297318 A    
N13   O49   1.297803 A    
C41   H21   1.109673 S    
C56   H28   1.106971 S    
C46   C51   1.501659 S    
C24   C50   1.517986 S    
Cu3   Cu4   2.723257 S    
C46   C60   1.572785 S    
N19   O62   1.296439 A    
N18   O60   1.302190 A    
C39   C43   1.544362 S    
N28   O80   1.300546 A    
C13   H33   1.111153 S    
O1    C1    1.305657 A    
C18   C22   1.540650 S    
C30   N12   1.480325 S    
N18   O59   1.301073 A    
C24   C26   1.636930 S    
C16   H38   1.104379 S    
N14   O52   1.301076 A    
C24   C28   1.617825 S    
N33   O90   1.303028 A    
N23   O70   1.301666 A    
C57   H11   1.111297 S    
C39   C41   1.578369 S    
C36   N16   1.490232 S    
C40   C42   1.575698 S    
C26   N8    1.492168 S    
C31   H17   1.109292 S    
C5    N27   1.472033 S    
N4    O31   1.298822 A    
C32   H18   1.111702 S    
C14   H36   1.098368 S    
C9    C55   1.567240 S    
C29   C31   1.582417 S    
O4    Cu1   2.006907 S    
N20   O63   1.296625 A    
O20   C52   1.305149 A    
O14   Cu4   2.003065 S    
C59   N29   1.482002 S    
N9    O42   1.303851 A    
N17   O58   1.299240 A    
N2    O27   1.301941 A    
O19   Cu6   1.990033 S    
C35   C43   1.579005 S    
C3    C21   1.509204 S    
C6    H14   1.112522 S    
C10   C12   1.550038 S    
N4    O32   1.303360 A    
C20   C28   1.589138 S    
N21   O66   1.300735 A    
O16   Cu3   2.002285 S    
C58   H10   1.110148 S    
C8    H30   1.111561 S    
H8    C34   1.107175 S    
N1    O25   1.301927 A    
C7    H29   1.110883 S    
O6    C4    1.308324 A    
C4    C22   1.503493 S    
C8    C56   1.554585 S    
C12   H20   1.113239 S    
O17   Cu5   1.997608 S    
Cu5   Cu6   2.729864 S    
O14   C50   1.324676 A    
O7    C3    1.301451 A    
C35   C37   1.634810 S    
N26   O75   1.299684 A    
C10   C58   1.567834 S    
N27   O77   1.301349 A    
C6    C12   1.547169 S    
Cu1   Cu2   2.717368 S    
C23   C49   1.512888 S    
N16   O56   1.302440 A    
N1    O26   1.299929 A    
C10   C48   1.507362 S    
O2    C2    1.308815 A    
O11   Cu4   2.002719 S    
C6    N28   1.470307 S    
O8    C4    1.305846 A    
N34   O91   1.302814 A    
O19   C51   1.304667 A    
N22   O68   1.300968 A    
N17   O57   1.302650 A    
C35   N15   1.488375 S    
C42   H22   1.109070 S    
C55   N25   1.476722 S    
H1    C11   1.105063 S    
O21   Cu5   1.997767 S    
C44   H26   1.103030 S    
C30   C32   1.573155 S    
O13   C49   1.315638 A    
O9    Cu3   1.984845 S    
N28   O79   1.301384 A    
N13   O50   1.301538 A    
N29   O81   1.302321 A    
C20   H16   1.107024 S    
C13   H35   1.100605 S    
C19   H15   1.104262 S    
N12   O47   1.295514 A    
C43   H23   1.107810 S    
O4    C2    1.309279 A    
O22   C54   1.312510 A    
C2    C38   1.514749 S    
N31   O85   1.302455 A    
O23   Cu6   1.998371 S    
O21   C53   1.313706 A    
C60   N30   1.485603 S    
N10   O44   1.302789 A    
C36   C44   1.580891 S    
C33   C37   1.591269 S    
H7    C33   1.094651 S    
C8    N24   1.474378 S    
O20   Cu5   1.990033 S    
N25   O73   1.299821 A    
O11   C47   1.307262 A    
O18   Cu6   1.997608 S    
O1    Cu1   1.988966 S    
C9    C11   1.550025 S    
O7    Cu2   2.006350 S    
N25   O74   1.301434 A    
N23   O69   1.301661 A    
C30   N10   1.497285 S    
N11   O46   1.302725 A    
C7    N23   1.475033 S    
O5    C3    1.315697 A    
O24   Cu5   1.998374 S    
C16   C24   1.601845 S    
O15   Cu4   2.002285 S    
C29   N11   1.483719 S    
N33   O89   1.294545 A    
C18   H6    1.103877 S    
C32   N14   1.464712 S    
C27   N5    1.486989 S    
N32   O88   1.301942 A    
C60   H32   1.106780 S    
N5    O34   1.303468 A    
C39   C53   1.500213 S    
C40   C54   1.500232 S    
O10   Cu4   1.984847 S    
C14   C22   1.539197 S    
C13   C21   1.539774 S    
C29   N9    1.497052 S    
N30   O84   1.302713 A    
O23   C53   1.304548 A    
N7    O37   1.302584 A    
C20   N2    1.477910 S    
H2    C12   1.104588 S    
C9    C47   1.507066 S    
C7    C55   1.554618 S    
O16   C50   1.298161 A    
N6    O36   1.303016 A    
N9    O41   1.297934 A    
C34   N20   1.473021 S    
O13   Cu3   2.003065 S    
C9    C57   1.560495 S    
N22   O67   1.302007 A    
C28   N6    1.479456 S    
N27   O78   1.300689 A    
N3    O29   1.298562 A    
C28   N4    1.483936 S    
O12   Cu3   2.002718 S    
C10   C56   1.565925 S    
O6    Cu2   1.998975 S    
C55   H27   1.104048 S    
C56   N26   1.477184 S    
C1    C37   1.513632 S    
C16   N32   1.479723 S    
C42   N22   1.476423 S    
C27   N3    1.486970 S    
O3    C1    1.312242 A    
O8    Cu1   2.006349 S    
N8    O40   1.296909 A    
C59   H31   1.104445 S    
N5    O33   1.296841 A    
C57   H9    1.113872 S    
C36   C38   1.626528 S    
C32   C40   1.574770 S    
N10   O43   1.301258 A    
N12   O48   1.302210 A    
O3    Cu2   2.006905 S    
C13   C15   1.549011 S    
N11   O45   1.300112 A    
O10   C48   1.310345 A    
C14   C16   1.543650 S    
C45   C52   1.501219 S    
C14   H34   1.111327 S    
C5    H13   1.108909 S    
C33   N19   1.477048 S    
O24   C54   1.305338 A    
N6    O35   1.301293 A    
C19   C27   1.585363 S    
C45   C59   1.571799 S    
H3    C17   1.113000 S    
O22   Cu6   1.997766 S    
C7    C45   1.580221 S    
C41   N21   1.475833 S    
H4    C18   1.106342 S    
C8    C46   1.582915 S    
N16   O55   1.302448 A    
C15   C23   1.596517 S    
O9    C47   1.312756 A    
C58   H12   1.110739 S    
C17   C21   1.554927 S    
C5    C11   1.545866 S    
C19   C21   1.577090 S    
N20   O64   1.302364 A    
C17   C25   1.566405 S    
C26   N34   1.473441 S    
C20   C22   1.572722 S    
N31   O86   1.301212 A    
C18   C26   1.565534 S    
C23   C27   1.624126 S    
N32   O87   1.300499 A    
O2    Cu2   1.988970 S    
N2    O28   1.301750 A    
C25   N33   1.477564 S    
C15   H37   1.105401 S    
N21   O65   1.302011 A    
C11   H19   1.112869 S    
O17   C51   1.315655 A    
C34   C38   1.586773 S    
C23   C25   1.617826 S    
C33   C41   1.556934 S    
C29   C37   1.638266 S    
C34   C42   1.562421 S    
N30   O83   1.299145 A    
C30   C38   1.621084 S    
C31   C39   1.566881 S    
N7    O38   1.299359 A    
O12   C48   1.309843 A    
C5    C45   1.578806 S    
C6    C46   1.576940 S    
C36   N18   1.492314 S    
N24   O71   1.301483 A    
N15   O53   1.302369 A    
N24   O72   1.301633 A    
N14   O51   1.292735 A    
C57   C59   1.539527 S    
N3    O30   1.303187 A    
