data_mof_unit_12437.cif
_audit_creation_date              2012-12-10T19:45:41-0500
_audit_creation_method            fapswitch 2.2
_symmetry_space_group_name_H-M    P1
_symmetry_Int_Tables_number       1
_space_group_crystal_system       triclinic
_cell_length_a                    10.879664
_cell_length_b                    14.677762
_cell_length_c                    14.561841
_cell_angle_alpha                 65.786317
_cell_angle_beta                  102.76712
_cell_angle_gamma                 102.104056
_cell_volume                      2049.74284934

loop_
_atom_site_label
_atom_site_type_symbol
_atom_type_description
_atom_site_fract_x
_atom_site_fract_y
_atom_site_fract_z
_atom_type_partial_charge
C1    C     C_R   0.478911 0.119228 0.311520 0.830044
C2    C     C_R   0.521090 0.880772 0.688480 0.830045
C3    C     C_R   0.870180 0.998996 0.496104 -0.084762
C4    C     C_R   0.129821 0.001005 0.503894 -0.084765
C5    C     C_R   0.909988 0.936930 0.458419 -0.002532
C6    C     C_R   0.090013 0.063067 0.541584 -0.002534
C7    C     C_R   0.470785 0.185902 0.202389 -0.139237
C8    C     C_R   0.529228 0.814098 0.797612 -0.139243
C9    C     C_R   0.467925 0.219633 0.024339 -0.216529
C10   C     C_R   0.532154 0.780373 0.975670 -0.216518
C11   C     C_R   0.460441 0.150622 0.123688 0.377416
C12   C     C_R   0.539617 0.849382 0.876317 0.377416
C13   C     C_R   0.479773 0.289759 0.177536 -0.311934
C14   C     C_R   0.520216 0.710238 0.822464 -0.311952
C15   C     C_R   0.483889 0.360278 0.077207 0.092828
C16   C     C_R   0.516150 0.639724 0.922800 0.092824
C17   C     C_R   0.482349 0.323377 0.001102 0.088802
C18   C     C_R   0.517721 0.676628 0.998908 0.088804
C19   C     C_R   0.493275 0.466224 0.050974 0.082337
C20   C     C_R   0.506779 0.533779 0.949036 0.082338
C21   C     C_R   0.511490 0.493134 0.877104 -0.215825
C22   C     C_R   0.488597 0.506872 0.122912 -0.215828
C23   C     C_R   0.262964 0.000059 0.502235 0.787794
C24   C     C_R   0.737036 0.999941 0.497764 0.787799
C25   C     C_R   0.497683 0.390140 0.902613 -0.207423
C26   C     C_R   0.502413 0.609867 0.097403 -0.207411
C27   C     C_R   0.704448 0.281434 0.674428 -0.301160
C28   C     C_R   0.295551 0.718566 0.325573 -0.301170
C29   C     C_R   0.675057 0.201222 0.642319 0.128937
C30   C     C_R   0.324946 0.798779 0.357679 0.128924
C31   C     C_R   0.521669 0.286453 0.507098 0.026593
C32   C     C_R   0.478324 0.713544 0.492907 0.026596
C33   C     C_R   0.548621 0.371657 0.534779 -0.015680
C34   C     C_R   0.451368 0.628338 0.465228 -0.015682
C35   C     C_R   0.640757 0.366321 0.621724 0.144058
C36   C     C_R   0.359234 0.633675 0.378282 0.144053
C37   C     C_R   0.485765 0.459933 0.481568 0.072278
C38   C     C_R   0.514220 0.540061 0.518441 0.072300
C39   C     C_R   0.604692 0.529318 0.607002 -0.254191
C40   C     C_R   0.395293 0.470675 0.393008 -0.254210
C41   C     C_R   0.667291 0.444727 0.656669 -0.218047
C42   C     C_R   0.332697 0.555268 0.343339 -0.218014
C43   C     C_R   0.326293 0.152320 0.730982 -0.085064
C44   C     C_R   0.673691 0.847591 0.269087 -0.085093
C45   C     C_R   0.254586 0.089109 0.682503 -0.065903
C46   C     C_R   0.745394 0.910829 0.317535 -0.065850
C47   C     C_R   0.176996 0.129827 0.588444 0.110911
C48   C     C_R   0.823010 0.870143 0.411589 0.110885
C49   C     C_R   0.171431 0.234156 0.544382 -0.173320
C50   C     C_R   0.828608 0.765819 0.455674 -0.173327
C51   C     C_R   0.242250 0.296684 0.593634 -0.134498
C52   C     C_R   0.757797 0.703264 0.406451 -0.134494
C53   C     C_R   0.319983 0.255870 0.686586 -0.128667
C54   C     C_R   0.680036 0.744045 0.313506 -0.128705
C55   C     C_R   0.960808 0.061165 0.536724 -0.226700
C56   C     C_R   0.039193 0.938839 0.463272 -0.226706
Cu1   Cu    Cu3+1 0.466270 0.918260 0.475690 0.964885
Cu2   Cu    Cu3+1 0.533730 0.081740 0.524310 0.964893
H1    H     H_    0.374961 0.304590 0.724164 0.130567
H2    H     H_    0.625061 0.695303 0.275954 0.130573
H3    H     H_    0.463857 0.191985 0.964987 0.172949
H4    H     H_    0.536250 0.808023 0.035025 0.172949
H5    H     H_    0.527193 0.538374 0.800036 0.137084
H6    H     H_    0.472933 0.461637 0.199989 0.137088
H7    H     H_    0.736562 0.440241 0.724028 0.150585
H8    H     H_    0.263427 0.559754 0.275980 0.150587
H9    H     H_    0.551202 0.718155 0.554727 0.124543
H10   H     H_    0.448789 0.281840 0.445279 0.124537
H11   H     H_    0.277149 0.864934 0.316221 0.156213
H12   H     H_    0.722859 0.135070 0.683774 0.156226
H13   H     H_    0.775478 0.276597 0.740868 0.151792
H14   H     H_    0.224522 0.723404 0.259132 0.151789
H15   H     H_    0.629834 0.585372 0.640186 0.132691
H16   H     H_    0.370150 0.414621 0.359823 0.132695
H17   H     H_    0.385148 0.121081 0.803785 0.189565
H18   H     H_    0.614810 0.878803 0.196291 0.189550
H19   H     H_    0.257864 0.008621 0.718752 0.135521
H20   H     H_    0.742090 0.991314 0.281268 0.135572
H21   H     H_    0.110461 0.266664 0.472800 0.134328
H22   H     H_    0.889599 0.733336 0.527252 0.134332
H23   H     H_    0.236450 0.376783 0.559967 0.150563
H24   H     H_    0.763624 0.623169 0.440135 0.150569
H25   H     H_    0.931403 0.107844 0.567375 0.165329
H26   H     H_    0.068598 0.892159 0.432622 0.165332
H27   H     H_    0.501963 0.362612 0.845025 0.143170
H28   H     H_    0.498162 0.637398 0.154995 0.143157
H29   H     H_    0.512736 0.686083 0.760919 0.163878
H30   H     H_    0.487185 0.313906 0.239075 0.163858
N1    N     N_R   0.584450 0.204570 0.560790 -0.184661
N2    N     N_R   0.415550 0.795430 0.439210 -0.184661
O1    O     O_R   0.455540 0.022090 0.338120 -0.533117
O2    O     O_R   0.544460 0.977910 0.661880 -0.533110
O3    O     O_R   0.512510 0.160150 0.379180 -0.603788
O4    O     O_R   0.487490 0.839850 0.620820 -0.603793
O5    O     O_R   0.291160 0.930970 0.479480 -0.595269
O6    O     O_R   0.708840 0.069030 0.520520 -0.595266
O7    O     O_R   0.348130 0.069020 0.520540 -0.576210
O8    O     O_R   0.651870 0.930980 0.479460 -0.576212
Cl1   Cl    Cl    0.558945 0.977927 0.856458 -0.671139
Cl2   Cl    Cl    0.441147 0.022078 0.143550 -0.671153

loop_
_geom_bond_atom_site_label_1
_geom_bond_atom_site_label_2
_ccdc_geom_bond_type
C27   C29   A    
C5    C56   A    
C36   C42   A    
C19   C20   A    
C18   C26   A    
C6    C55   A    
C30   N2    A    
C49   C51   A    
C29   N1    A    
C53   H1    S    
C39   C41   A    
C54   H2    S    
C7    C11   A    
C23   O5    A    
C9    H3    S    
Cu2   O3    S    
C14   H29   S    
C37   C40   A    
C24   O6    A    
C38   C39   A    
C44   H18   S    
Cu2   O6    S    
C12   Cl1   S    
C3    C55   A    
C43   C53   A    
C32   N2    A    
C44   C46   A    
C31   N1    A    
C50   C52   A    
C31   C33   A    
C51   H23   S    
C34   C36   A    
C16   C20   A    
C40   C42   A    
C1    O1    A    
C1    C7    S    
C4    C56   A    
C3    C24   S    
C28   H14   S    
Cu2   O7    S    
C52   C54   A    
C56   H26   S    
C45   C47   A    
C43   H17   S    
C31   H10   S    
C2    O2    A    
C5    C48   S    
C46   C48   A    
C6    C47   S    
C2    O4    A    
C19   C22   A    
C4    C6    A    
Cu1   N2    S    
C46   H20   S    
C4    C23   S    
C41   H7    S    
C26   H28   S    
C27   C35   A    
C33   C37   A    
C49   H21   S    
C11   Cl2   S    
C51   C53   A    
C32   C34   A    
C15   C19   A    
C37   C38   A    
C9    C11   A    
C8    C12   A    
C25   H27   S    
C16   C18   A    
C52   H24   S    
C43   C45   A    
C10   C12   A    
C32   H9    S    
C9    C17   A    
C23   O7    A    
Cu1   O4    S    
C13   C15   A    
Cu1   O5    S    
C24   O8    A    
C10   H4    S    
C55   H25   S    
C30   H11   S    
C27   H13   S    
C29   H12   S    
C15   C17   A    
C21   C25   A    
C8    C14   A    
Cu1   O1    S    
C34   C38   A    
C2    C8    S    
C3    C5    A    
C50   H22   S    
C47   C49   A    
C17   C25   A    
C28   C30   A    
Cu1   Cu2   S    
C10   C18   A    
Cu1   O8    S    
C13   H30   S    
C48   C50   A    
C33   C35   A    
C40   H16   S    
C14   C16   A    
C39   H15   S    
C35   C41   A    
Cu2   N1    S    
C21   H5    S    
C22   H6    S    
C44   C54   A    
C7    C13   A    
C20   C21   A    
C28   C36   A    
C1    O3    A    
C22   C26   A    
C42   H8    S    
C45   H19   S    
Cu2   O2    S    
