data_mof_unit_31825.cif
_audit_creation_date              2013-03-05T15:54:35-0500
_audit_creation_method            fapswitch 2.2
_symmetry_space_group_name_H-M    P1
_symmetry_Int_Tables_number       1
_space_group_crystal_system       triclinic
_cell_length_a                    17.42266
_cell_length_b                    24.488386
_cell_length_c                    14.92906
_cell_angle_alpha                 90.659264
_cell_angle_beta                  125.542233
_cell_angle_gamma                 88.983413
_cell_volume                      5181.98048219

loop_
_atom_site_label
_atom_site_type_symbol
_atom_site_description
_atom_site_fract_x
_atom_site_fract_y
_atom_site_fract_z
_atom_type_partial_charge
C1    C     C_R   0.852582 0.652692 0.906403 0.714390
C2    C     C_R   0.148939 0.651070 0.094211 0.736672
C3    C     C_R   0.352606 0.152701 0.906411 0.714588
C4    C     C_R   0.648946 0.151069 0.094211 0.736690
N1    N     N_R   0.892620 0.603790 0.941770 -0.107523
N2    N     N_R   0.107380 0.603790 0.058230 -0.101296
N3    N     N_R   0.392620 0.103790 0.941770 -0.107527
N4    N     N_R   0.607380 0.103790 0.058230 -0.101314
C5    C     C_R   0.920170 0.362640 0.094751 -0.106073
C6    C     C_R   0.097177 0.378973 0.905742 -0.100524
C7    C     C_R   0.420210 0.862609 0.094747 -0.106122
C8    C     C_R   0.597166 0.878975 0.905733 -0.100664
H1    H     H_    0.955388 0.351289 0.179264 0.115085
H2    H     H_    0.072057 0.379385 0.820837 0.116753
H3    H     H_    0.455438 0.851255 0.179262 0.115134
H4    H     H_    0.572039 0.879381 0.820823 0.116800
N5    N     N_R   0.952270 0.397640 0.058010 -0.049575
N6    N     N_R   0.047730 0.397640 0.941990 -0.049174
N7    N     N_R   0.452270 0.897640 0.058010 -0.049593
N8    N     N_R   0.547730 0.897640 0.941990 -0.049183
C9    C     C_R   0.982303 0.548019 0.249453 0.021839
C10   C     C_R   0.950658 0.547275 0.697523 -0.105933
C11   C     C_R   0.482294 0.048018 0.249442 0.021858
C12   C     C_R   0.450660 0.047275 0.697523 -0.105896
H5    H     H_    0.966440 0.590456 0.251998 0.106884
H6    H     H_    0.930063 0.589153 0.671761 0.166292
H7    H     H_    0.466431 0.090455 0.251988 0.106873
H8    H     H_    0.430067 0.089153 0.671761 0.166292
N9    N     N_R   0.026310 0.529110 0.206760 -0.056483
N10   N     N_R   0.973690 0.529110 0.793240 -0.040790
N11   N     N_R   0.526310 0.029110 0.206760 -0.056461
N12   N     N_R   0.473690 0.029110 0.793240 -0.040779
C13   C     C_R   0.730352 0.456063 0.742935 0.703314
C14   C     C_R   0.263645 0.455557 0.295578 0.727661
C15   C     C_R   0.230345 0.956076 0.743007 0.704008
C16   C     C_R   0.763647 0.955545 0.295552 0.727709
N13   N     N_R   0.818570 0.472310 0.793020 -0.117136
N14   N     N_R   0.181430 0.472310 0.206980 -0.127061
N15   N     N_R   0.318570 0.972310 0.793020 -0.117294
N16   N     N_R   0.681430 0.972310 0.206980 -0.127091
C17   C     C_R   0.991190 0.456918 0.261836 -0.117803
C18   C     C_R   0.948838 0.456468 0.693111 -0.114578
C19   C     C_R   0.491165 0.956916 0.261808 -0.117563
C20   C     C_R   0.448837 0.956468 0.693110 -0.114691
H9    H     H_    0.991436 0.416188 0.287817 0.103401
H10   H     H_    0.929348 0.415226 0.662127 0.108907
H11   H     H_    0.491382 0.916183 0.287755 0.103387
H12   H     H_    0.429345 0.915227 0.662125 0.108840
N17   N     N_R   0.026930 0.472300 0.207330 -0.054029
N18   N     N_R   0.973070 0.472300 0.792670 -0.051304
N19   N     N_R   0.526930 0.972300 0.207330 -0.053997
N20   N     N_R   0.473070 0.972300 0.792670 -0.051303
C21   C     C_R   0.730928 0.547281 0.750330 -0.196440
C22   C     C_R   0.264899 0.546874 0.291490 -0.109147
C23   C     C_R   0.230941 0.047292 0.750371 -0.196938
C24   C     C_R   0.764915 0.046862 0.291495 -0.109322
H13   H     H_    0.708413 0.589497 0.734036 0.228754
H14   H     H_    0.281630 0.588892 0.318153 0.202144
H15   H     H_    0.208441 0.089511 0.734095 0.228807
H16   H     H_    0.781664 0.088876 0.318180 0.202249
N21   N     N_R   0.817960 0.529130 0.792460 -0.081420
N22   N     N_R   0.182040 0.529130 0.207540 -0.087935
N23   N     N_R   0.317960 0.029130 0.792460 -0.081429
N24   N     N_R   0.682040 0.029130 0.207540 -0.087905
C25   C     C_R   0.826225 0.361999 0.910975 -0.093321
C26   C     C_R   0.188494 0.375236 0.089298 -0.093018
C27   C     C_R   0.326281 0.861960 0.910970 -0.092760
C28   C     C_R   0.688492 0.875233 0.089289 -0.093162
H17   H     H_    0.775491 0.348338 0.828142 0.199344
H18   H     H_    0.246794 0.368283 0.173609 0.182124
H19   H     H_    0.275588 0.848281 0.828138 0.199244
H20   H     H_    0.746796 0.868272 0.173597 0.182168
N25   N     N_R   0.894850 0.397640 0.943830 -0.061580
N26   N     N_R   0.105150 0.397640 0.056170 -0.048929
N27   N     N_R   0.394850 0.897640 0.943830 -0.061652
N28   N     N_R   0.605150 0.897640 0.056170 -0.048905
C29   C     C_R   0.940446 0.653160 0.088726 -0.232730
C30   C     C_R   0.061724 0.651282 0.910776 -0.148920
C31   C     C_R   0.440459 0.153161 0.088730 -0.232911
C32   C     C_R   0.561724 0.151283 0.910776 -0.148892
H21   H     H_    0.985889 0.667616 0.172597 0.170532
H22   H     H_    0.020431 0.665029 0.826256 0.172887
H23   H     H_    0.485910 0.167612 0.172604 0.170573
H24   H     H_    0.520427 0.165034 0.826258 0.172911
N29   N     N_R   0.950040 0.603780 0.055950 -0.088308
N30   N     N_R   0.049960 0.603780 0.944050 -0.081842
N31   N     N_R   0.450040 0.103780 0.055950 -0.088303
N32   N     N_R   0.549960 0.103780 0.944050 -0.081854
C33   C     C_R   0.879398 0.684886 0.996081 -0.072256
C34   C     C_R   0.123662 0.681463 0.004595 -0.114723
C35   C     C_R   0.379427 0.184896 0.996093 -0.072271
C36   C     C_R   0.623667 0.181464 0.004595 -0.114777
C37   C     C_R   0.837478 0.342850 0.004502 0.052966
C38   C     C_R   0.185859 0.363693 0.996090 0.056516
C39   C     C_R   0.337546 0.842793 0.004491 0.052940
C40   C     C_R   0.685842 0.863690 0.996070 0.056519
C41   C     C_R   0.958863 0.503613 0.284484 0.060241
C42   C     C_R   0.934497 0.502836 0.632120 0.031470
C43   C     C_R   0.458843 0.003612 0.284462 0.060142
C44   C     C_R   0.434499 0.002836 0.632119 0.031501
C45   C     C_R   0.675138 0.502012 0.720951 -0.052671
C46   C     C_R   0.317241 0.501107 0.345980 -0.080865
C47   C     C_R   0.175143 0.002035 0.721031 -0.051963
C48   C     C_R   0.817268 0.001086 0.345957 -0.081392
Ni1   Ni    Ni4+2 0.934160 0.565860 0.869070 0.268253
Ni2   Ni    Ni4+2 0.065840 0.565860 0.130930 0.270756
Ni3   Ni    Ni4+2 0.434160 0.065860 0.869070 0.268254
Ni4   Ni    Ni4+2 0.565840 0.065860 0.130930 0.270782
Ni5   Ni    Ni4+2 0.067260 0.435560 0.132230 0.276857
Ni6   Ni    Ni4+2 0.932740 0.435560 0.867770 0.253349
Ni7   Ni    Ni4+2 0.567260 0.935560 0.132230 0.276974
Ni8   Ni    Ni4+2 0.432740 0.935560 0.867770 0.253158
C49   C     C_3   0.505151 0.457980 0.597813 0.352554
C50   C     C_3   0.484257 0.458854 0.483791 0.332903
C51   C     C_3   0.005017 0.958116 0.598128 0.352235
C52   C     C_3   0.984178 0.958711 0.484129 0.332872
C53   C     C_3   0.427516 0.501127 0.564208 -0.266491
C54   C     C_3   0.555089 0.504330 0.517026 -0.254585
C55   C     C_3   0.927471 0.001382 0.564201 -0.266714
C56   C     C_3   0.055140 0.004074 0.517118 -0.254779
H25   H     H_    0.372878 0.499300 0.580250 0.197017
H26   H     H_    0.608537 0.505401 0.498918 0.187869
H27   H     H_    0.872802 0.999759 0.580219 0.197049
H28   H     H_    0.108613 0.004938 0.499029 0.187880
C57   C     C_3   0.407804 0.501827 0.449475 -0.015513
C58   C     C_3   0.576357 0.503267 0.632892 -0.000832
C59   C     C_3   0.907820 0.001798 0.449490 -0.014979
C60   C     C_3   0.076353 0.003295 0.632972 -0.000449
C61   C     C_3   0.478195 0.548161 0.483446 -0.102464
C62   C     C_3   0.500514 0.547281 0.600246 -0.109934
C63   C     C_3   0.978349 0.048023 0.483220 -0.102794
C64   C     C_3   0.000605 0.047427 0.599998 -0.110434
H29   H     H_    0.465625 0.585267 0.434374 0.190635
H30   H     H_    0.508100 0.582798 0.651202 0.217828
H31   H     H_    0.965897 0.085017 0.433926 0.190880
H32   H     H_    0.008235 0.083069 0.650710 0.217942
C65   C     C_R   0.799148 0.289017 0.109414 0.056209
C66   C     C_R   0.238607 0.314690 0.893241 0.109520
C67   C     C_R   0.299176 0.788994 0.109399 0.056138
C68   C     C_R   0.738458 0.814624 0.893165 0.109493
C69   C     C_R   0.770860 0.312436 0.009869 0.076196
C70   C     C_R   0.258961 0.335723 0.992388 0.081825
C71   C     C_R   0.270922 0.812378 0.009841 0.076314
C72   C     C_R   0.758905 0.835706 0.992323 0.081758
C73   C     C_R   0.677873 0.305646 0.916513 -0.104090
C74   C     C_R   0.344671 0.319258 0.090412 -0.142915
C75   C     C_R   0.177945 0.805581 0.916467 -0.103781
C76   C     C_R   0.844659 0.819274 0.090325 -0.143260
H33   H     H_    0.652004 0.325944 0.839833 0.202296
H34   H     H_    0.368102 0.337235 0.168762 0.190682
H35   H     H_    0.152101 0.825845 0.839764 0.202292
H36   H     H_    0.868129 0.837281 0.168663 0.190770
C77   C     C_R   0.121312 0.766995 0.918231 -0.130917
C78   C     C_R   0.893059 0.772916 0.090402 -0.142435
C79   C     C_R   0.621271 0.267026 0.918258 -0.130752
C80   C     C_R   0.393070 0.272901 0.090481 -0.142545
H37   H     H_    0.053102 0.758341 0.842915 0.170557
H38   H     H_    0.952368 0.757562 0.168757 0.157018
H39   H     H_    0.553056 0.258374 0.842947 0.170515
H40   H     H_    0.452327 0.257520 0.168843 0.157045
C81   C     C_R   0.159763 0.734564 0.012207 0.079900
C82   C     C_R   0.855509 0.742840 0.992581 0.092042
C83   C     C_R   0.659754 0.234571 0.012212 0.079894
C84   C     C_R   0.355573 0.242860 0.992629 0.092053
C85   C     C_R   0.245636 0.749045 0.109690 0.080698
C86   C     C_R   0.784388 0.768083 0.893471 0.046764
C87   C     C_R   0.745630 0.249049 0.109691 0.080769
C88   C     C_R   0.284541 0.268153 0.893531 0.046338
C89   C     C_3   0.332235 0.715817 0.193094 0.229568
C90   C     C_3   0.696978 0.748078 0.787598 0.294400
C91   C     C_3   0.832239 0.215817 0.193050 0.229587
C92   C     C_3   0.197194 0.248225 0.787505 0.294913
C93   C     C_3   0.890527 0.261161 0.194765 -0.622615
C94   C     C_3   0.147756 0.299474 0.787066 -0.674081
C95   C     C_3   0.390543 0.761143 0.194795 -0.622585
C96   C     C_3   0.647545 0.799336 0.787124 -0.673908
H41   H     H_    0.342089 0.710740 0.273159 0.138361
H42   H     H_    0.702949 0.746079 0.717374 0.146722
H43   H     H_    0.842115 0.210716 0.273122 0.138433
H44   H     H_    0.203315 0.246290 0.717388 0.146588
H45   H     H_    0.933413 0.249321 0.164120 0.251754
H46   H     H_    0.089430 0.290803 0.794831 0.244031
H47   H     H_    0.433447 0.749281 0.164186 0.251764
H48   H     H_    0.589307 0.790691 0.795061 0.244056
H49   H     H_    0.929720 0.283894 0.274079 0.185304
H50   H     H_    0.128736 0.327827 0.719196 0.195982
H51   H     H_    0.429720 0.783895 0.274089 0.185291
H52   H     H_    0.628401 0.827635 0.719132 0.195944
C97   C     C_R   0.900769 0.555677 0.472226 -0.018278
C98   C     C_R   0.909516 0.555697 0.386321 -0.129332
C99   C     C_R   0.400767 0.055676 0.472223 -0.018345
C100  C     C_R   0.409508 0.055696 0.386311 -0.129412
C101  C     C_R   0.898827 0.506012 0.516650 0.050168
C102  C     C_R   0.913335 0.506416 0.340732 0.121017
C103  C     C_R   0.398828 0.006011 0.516648 0.050191
C104  C     C_R   0.413318 0.006415 0.340715 0.121069
C105  C     C_R   0.877880 0.458338 0.453270 -0.120790
C106  C     C_R   0.884694 0.458630 0.364469 -0.162273
C107  C     C_R   0.377877 0.958338 0.453267 -0.120918
C108  C     C_R   0.384680 0.958629 0.364458 -0.162218
H53   H     H_    0.868194 0.419662 0.479455 0.129394
H54   H     H_    0.879108 0.420279 0.324439 0.121021
H55   H     H_    0.368193 0.919661 0.479454 0.129338
H56   H     H_    0.379091 0.920278 0.324426 0.121006
C109  C     C_3   0.974185 0.603658 0.431951 0.465159
C110  C     C_3   0.963600 0.604176 0.525107 0.475480
C111  C     C_3   0.474179 0.103656 0.431941 0.465234
C112  C     C_3   0.463600 0.104174 0.525102 0.475528
H57   H     H_    0.944580 0.640425 0.378429 0.092824
H58   H     H_    0.030608 0.596109 0.607133 0.081166
H59   H     H_    0.444575 0.140424 0.378421 0.092780
H60   H     H_    0.530610 0.096106 0.607125 0.081188
F1    F     F_    0.823428 0.671384 0.806074 -0.738022
F2    F     F_    0.182366 0.670680 0.195863 -0.745281
F3    F     F_    0.323481 0.171393 0.806093 -0.737980
F4    F     F_    0.682387 0.170676 0.195869 -0.745226
N33   N     N_R   0.519478 0.410957 0.664998 0.266130
O1    O     O_R   0.463550 0.369533 0.619279 -0.293544
O2    O     O_R   0.566193 0.417457 0.770913 -0.418295
N34   N     N_R   0.476085 0.412337 0.417011 0.267221
O3    O     O_R   0.495068 0.363103 0.456766 -0.270388
O4    O     O_R   0.457889 0.420608 0.320500 -0.412031
N35   N     N_R   0.019140 0.911209 0.665467 0.266288
O5    O     O_R   0.962162 0.870205 0.620196 -0.294340
O6    O     O_R   0.067209 0.917570 0.771544 -0.418268
N36   N     N_R   0.975934 0.911992 0.417735 0.267498
O7    O     O_R   0.993950 0.862790 0.457527 -0.270013
O8    O     O_R   0.958241 0.919983 0.321395 -0.412192
N37   N     N_R   0.343389 0.664811 0.149033 0.249684
O9    O     O_R   0.369590 0.620375 0.207261 -0.402008
O10   O     O_R   0.330657 0.663616 0.053995 -0.363812
N38   N     N_R   0.655792 0.699348 0.798898 0.249869
O11   O     O_R   0.600784 0.669483 0.712326 -0.423347
O12   O     O_R   0.658391 0.691460 0.886763 -0.388052
N39   N     N_R   0.843382 0.164828 0.148932 0.249677
O13   O     O_R   0.869553 0.120374 0.207101 -0.402244
O14   O     O_R   0.830643 0.163665 0.053891 -0.363805
N40   N     N_R   0.155868 0.199477 0.798511 0.249955
O15   O     O_R   0.100883 0.169698 0.711788 -0.423222
O16   O     O_R   0.158310 0.191500 0.886250 -0.388214
F5    F     F_    0.065675 0.590024 0.468778 -0.685537
F6    F     F_    0.913997 0.649822 0.521892 -0.662168
F7    F     F_    0.565667 0.090020 0.468763 -0.685501
F8    F     F_    0.414000 0.149821 0.521892 -0.662192
F9    F     F_    0.698010 0.408018 0.688298 -0.706126
F10   F     F_    0.279803 0.405542 0.341919 -0.675825
F11   F     F_    0.197950 0.908021 0.688427 -0.706382
F12   F     F_    0.779751 0.905537 0.341904 -0.675392

loop_
_geom_bond_atom_site_label_1
_geom_bond_atom_site_label_2
_geom_bond_distance
_ccdc_geom_bond_type
C30   N30   1.334925 A    
C27   C39   1.378905 A    
C6    C38   1.383755 A    
C39   C71   1.431198 S    
C10   C42   1.372496 A    
N7    N27   1.387044 A    
C23   H15   1.078071 S    
C30   H22   1.081142 S    
C56   C63   1.542294 S    
N11   Ni4   1.875559 S    
C70   C74   1.409134 A    
C83   C87   1.399157 A    
N35   O5    1.300095 A    
C89   C95   1.507998 S    
C4    N4    1.310206 A    
C46   C57   1.429416 S    
N8    Ni8   1.865639 S    
C55   H27   1.110109 S    
C94   H46   1.111912 S    
N26   Ni5   1.847411 S    
N34   O4    1.300341 A    
N25   Ni6   1.872153 S    
C110  F6    1.384703 S    
C109  C110  1.505330 S    
C30   C34   1.385562 A    
C71   C75   1.404955 A    
C91   C93   1.507998 S    
C7    N7    1.316326 A    
N27   Ni8   1.872153 S    
C14   C46   1.372269 A    
C76   C78   1.401686 A    
C90   H42   1.112563 S    
C1    N1    1.325210 A    
N35   O6    1.300215 A    
C100  C104  1.398200 A    
C51   N35   1.455886 S    
C24   H16   1.080966 S    
C19   C43   1.388806 A    
C78   H38   1.080985 S    
C3    N3    1.325280 A    
C63   H31   1.109985 S    
C18   C42   1.389269 A    
C18   H10   1.080757 S    
C15   N15   1.326189 A    
C101  C105  1.407003 A    
C27   H19   1.073619 S    
N20   Ni8   1.876636 S    
C3    F3    1.354245 S    
C51   C52   1.520028 S    
C26   N26   1.340585 A    
C23   C47   1.377395 A    
N18   Ni6   1.876636 S    
C25   N25   1.333132 A    
N8    N28   1.387043 A    
C3    C35   1.376198 A    
C54   H26   1.111142 S    
C49   N33   1.455882 S    
C2    C34   1.365325 A    
C53   H25   1.110115 S    
C92   N40   1.463907 S    
N12   N20   1.391308 A    
C16   N16   1.326062 A    
C5    H1    1.071276 S    
C82   C86   1.403253 A    
C67   C95   1.498842 S    
N3    N31   1.387046 A    
N31   Ni4   1.875527 S    
C8    H4    1.074039 S    
C21   C45   1.377484 A    
C52   C59   1.521015 S    
C23   N23   1.328966 A    
C14   F10   1.356035 S    
N19   Ni7   1.852155 S    
N39   O13   1.300352 A    
C24   N24   1.322900 A    
C13   F9    1.354324 S    
C11   H7    1.076509 S    
N21   Ni1   1.888050 S    
C31   C35   1.390315 A    
C72   C76   1.409109 A    
C26   C38   1.391198 A    
N1    Ni1   1.852213 S    
N1    N29   1.387046 A    
C92   H44   1.112567 S    
C7    H3    1.071296 S    
C25   C37   1.378937 A    
N10   N18   1.391308 A    
C29   N29   1.343099 A    
C107  C108  1.398171 A    
N6    N26   1.387043 A    
C62   H30   1.106638 S    
C74   H34   1.080748 S    
C31   N31   1.343088 A    
C32   N32   1.334957 A    
N3    Ni3   1.852213 S    
C107  H55   1.081322 S    
C111  H59   1.111780 S    
N39   O14   1.302493 A    
C91   H43   1.112532 S    
C109  H57   1.111782 S    
C2    N2    1.310198 A    
C21   N21   1.328968 A    
C109  F5    1.386022 S    
C60   C64   1.535676 S    
C66   C88   1.379459 A    
C17   N17   1.340234 A    
N34   O3    1.299770 A    
C92   C94   1.507396 S    
C96   H52   1.111848 S    
N16   Ni7   1.863228 S    
C103  C107  1.407005 A    
C85   C89   1.511458 S    
N40   O16   1.302506 A    
C34   C81   1.428963 S    
C79   H39   1.082322 S    
C111  C112  1.505332 S    
C38   C70   1.464360 S    
C112  F8    1.384704 S    
C80   H40   1.080976 S    
C24   C48   1.368259 A    
C66   C70   1.400228 A    
C50   N34   1.458203 S    
C32   H24   1.081144 S    
N5    N25   1.387044 A    
N32   Ni3   1.898084 S    
C21   H13   1.078074 S    
C14   N14   1.326097 A    
C87   C91   1.511433 S    
C49   C58   1.524246 S    
C22   N22   1.322820 A    
C99   C103  1.402232 A    
C79   C83   1.400708 A    
N33   O1    1.300112 A    
C9    N9    1.325614 A    
C43   C104  1.452669 S    
N12   Ni3   1.851172 S    
C97   C98   1.376686 A    
C13   N13   1.326074 A    
C51   C60   1.524215 S    
C52   C56   1.527554 S    
C42   C101  1.455948 S    
C90   N38   1.463937 S    
C28   H20   1.075848 S    
N4    N32   1.387044 A    
C11   N11   1.325619 A    
C41   C102  1.452650 S    
C32   C36   1.385564 A    
C75   H35   1.079795 S    
C12   N12   1.320040 A    
C66   C94   1.499070 S    
N37   O9    1.300353 A    
C47   C60   1.435297 S    
C111  F7    1.386023 S    
C108  H56   1.082283 S    
C40   C72   1.464277 S    
C67   C85   1.365415 A    
C9    C41   1.378401 A    
C11   C43   1.378411 A    
C110  H58   1.112127 S    
C98   C109  1.499712 S    
C29   H21   1.080358 S    
C97   C110  1.500642 S    
C64   H32   1.106600 S    
C57   C61   1.536791 S    
C93   H49   1.112006 S    
C96   H48   1.111919 S    
C8    N8    1.328953 A    
N38   O12   1.302506 A    
C45   C58   1.435191 S    
N2    Ni2   1.877445 S    
C104  C108  1.407068 A    
N36   O7    1.299781 A    
C28   C40   1.391216 A    
C28   N28   1.340619 A    
N9    N17   1.391123 A    
N14   Ni5   1.863228 S    
C105  H53   1.081322 S    
C53   C62   1.557528 S    
N13   Ni6   1.841412 S    
C50   C54   1.527576 S    
C18   N18   1.341914 A    
C49   C53   1.539565 S    
C106  H54   1.082285 S    
C36   C83   1.429006 S    
C5    N5    1.316323 A    
N15   Ni8   1.841412 S    
C68   C86   1.379430 A    
C86   C90   1.505865 S    
N36   O8    1.300317 A    
C65   C69   1.392254 A    
C89   H41   1.112533 S    
N10   Ni1   1.851172 S    
C6    H2    1.074021 S    
C16   F12   1.356023 S    
C100  C111  1.499718 S    
C13   C45   1.379231 A    
N9    Ni2   1.875559 S    
N30   Ni1   1.898084 S    
C27   N27   1.333086 A    
N23   Ni3   1.888050 S    
N29   Ni2   1.875527 S    
C5    C37   1.370705 A    
C33   C82   1.464784 S    
C65   C87   1.365415 A    
C37   C69   1.431235 S    
C12   H8    1.078855 S    
N17   Ni5   1.852154 S    
C49   C50   1.520108 S    
C22   H14   1.080958 S    
C44   C103  1.455959 S    
C7    C39   1.370725 A    
C99   C100  1.376691 A    
C50   C57   1.521010 S    
C9    H5    1.076510 S    
N40   O15   1.298781 A    
C1    C33   1.376147 A    
C61   H29   1.109982 S    
C10   N10   1.320033 A    
C51   C55   1.539616 S    
C12   C44   1.372502 A    
C95   H47   1.112811 S    
C15   F11   1.354324 S    
C78   C82   1.408809 A    
C8    C40   1.383678 A    
C35   C84   1.464898 S    
C76   H36   1.080731 S    
N11   N19   1.391121 A    
C19   H11   1.073368 S    
C55   C64   1.557561 S    
C20   N20   1.341919 A    
N13   N21   1.391364 A    
C56   C60   1.544589 S    
C2    F2    1.355882 S    
C29   C33   1.390301 A    
N7    Ni7   1.888194 S    
N33   O2    1.300234 A    
N15   N23   1.391364 A    
C26   H18   1.075830 S    
C15   C47   1.379319 A    
N2    N30   1.387044 A    
C91   N39   1.466878 S    
C16   C48   1.372272 A    
C22   C46   1.368116 A    
C73   H33   1.079803 S    
C95   H51   1.112005 S    
C68   C72   1.400240 A    
C65   C93   1.498865 S    
C61   C62   1.550636 S    
N37   O10   1.302493 A    
C54   C61   1.542303 S    
C17   H9    1.073365 S    
C63   C64   1.550621 S    
C94   H50   1.111846 S    
C31   H23   1.080354 S    
C20   C44   1.389271 A    
C19   N19   1.340237 A    
C102  C106  1.407064 A    
C48   C59   1.429573 S    
N5    Ni5   1.888194 S    
C6    N6    1.329022 A    
N28   Ni7   1.847411 S    
C25   H17   1.073609 S    
N16   N24   1.391549 A    
C112  H60   1.112128 S    
C69   C73   1.404951 A    
C89   N37   1.466879 S    
C17   C41   1.388797 A    
C99   C112  1.500636 S    
C77   H37   1.082321 S    
C105  C106  1.398165 A    
C75   C77   1.389604 A    
C59   C63   1.536798 S    
C56   H28   1.111151 S    
C98   C102  1.398194 A    
C93   H45   1.112809 S    
C73   C79   1.389659 A    
C97   C101  1.402235 A    
C88   C92   1.505846 S    
C90   C96   1.507355 S    
C74   C80   1.401702 A    
C80   C84   1.408840 A    
N6    Ni6   1.865639 S    
N22   Ni2   1.866239 S    
C10   H6    1.078856 S    
C52   N36   1.458139 S    
C4    F4    1.355883 S    
C84   C88   1.403290 A    
C58   C62   1.535612 S    
N4    Ni4   1.877445 S    
C67   C71   1.392241 A    
C54   C58   1.544552 S    
C4    C36   1.365351 A    
C53   C57   1.539054 S    
C77   C81   1.400686 A    
C81   C85   1.399177 A    
C20   H12   1.080754 S    
N24   Ni4   1.866239 S    
N38   O11   1.298785 A    
C68   C96   1.499119 S    
N14   N22   1.391549 A    
C1    F1    1.354253 S    
C55   C59   1.539065 S    
