data_mof_unit_44665.cif
_audit_creation_date              2012-12-11T15:33:52-0500
_audit_creation_method            fapswitch 2.2
_symmetry_space_group_name_H-M    P1
_symmetry_Int_Tables_number       1
_space_group_crystal_system       triclinic
_cell_length_a                    27.075894
_cell_length_b                    7.190213
_cell_length_c                    22.856477
_cell_angle_alpha                 90.00026
_cell_angle_beta                  101.355372
_cell_angle_gamma                 90.001453
_cell_volume                      4362.62772537

loop_
_atom_site_label
_atom_site_type_symbol
_atom_type_description
_atom_site_fract_x
_atom_site_fract_y
_atom_site_fract_z
_atom_type_partial_charge
O1    O     O_R   0.207310 0.594030 0.676830 -0.540626
O2    O     O_R   0.792690 0.405970 0.323170 -0.540613
O3    O     O_R   0.292690 0.094030 0.823170 -0.540610
O4    O     O_R   0.707310 0.905970 0.176830 -0.540597
O5    O     O_R   0.197320 0.262370 0.795700 -0.548603
O6    O     O_R   0.802680 0.737630 0.204300 -0.548590
O7    O     O_R   0.302680 0.762370 0.704300 -0.548633
O8    O     O_R   0.697320 0.237630 0.295700 -0.548620
C1    C     C_R   0.184177 0.431567 0.811451 0.701579
C2    C     C_R   0.815824 0.568433 0.188549 0.701579
C3    C     C_R   0.315824 0.931570 0.688550 0.701635
C4    C     C_R   0.684176 0.068431 0.311450 0.701636
O9    O     O_R   0.201410 0.264250 0.675590 -0.528730
O10   O     O_R   0.798590 0.735750 0.324410 -0.528740
O11   O     O_R   0.298590 0.764250 0.824410 -0.528801
O12   O     O_R   0.701410 0.235750 0.175590 -0.528809
O13   O     O_R   0.296810 0.094940 0.702210 -0.529156
O14   O     O_R   0.703190 0.905060 0.297790 -0.529163
O15   O     O_R   0.203190 0.594940 0.797790 -0.529170
O16   O     O_R   0.796810 0.405060 0.202210 -0.529174
C5    C     C_R   0.189841 0.432643 0.653487 0.740243
C6    C     C_R   0.810160 0.567356 0.346512 0.740284
C7    C     C_R   0.310159 0.932650 0.846511 0.740337
C8    C     C_R   0.689840 0.067350 0.153489 0.740379
O17   O     O_3   0.281300 0.427390 0.758870 -0.374951
O18   O     O_3   0.718700 0.572610 0.241130 -0.374956
O19   O     O_3   0.218700 0.927390 0.741130 -0.374924
O20   O     O_3   0.781300 0.072610 0.258870 -0.374926
V1    V     V_3+5 0.244190 0.152150 0.748350 1.423935
V2    V     V_3+5 0.755810 0.847850 0.251650 1.423968
V3    V     V_3+5 0.255810 0.652150 0.751650 1.423791
V4    V     V_3+5 0.744190 0.347850 0.248350 1.423821
C9    C     C_R   0.655549 0.060594 0.094802 -0.132247
C10   C     C_R   0.344449 0.939407 0.905199 -0.132254
C11   C     C_R   0.844451 0.560647 0.405201 -0.132322
C12   C     C_R   0.155551 0.439355 0.594798 -0.132327
C13   C     C_R   0.641473 0.099538 0.987835 -0.246949
C14   C     C_R   0.358527 0.900452 0.012165 -0.246923
C15   C     C_R   0.858562 0.600295 0.512144 -0.246893
C16   C     C_R   0.141438 0.399698 0.487855 -0.246868
C17   C     C_R   0.674413 0.094604 0.043103 0.457790
C18   C     C_R   0.325587 0.905389 0.956898 0.457802
C19   C     C_R   0.825611 0.595143 0.456888 0.457879
C20   C     C_R   0.174390 0.404851 0.543110 0.457874
C21   C     C_R   0.603950 0.025873 0.090627 -0.279532
C22   C     C_R   0.396049 0.974134 0.909374 -0.279513
C23   C     C_R   0.896039 0.525669 0.409385 -0.279501
C24   C     C_R   0.103963 0.474342 0.590614 -0.279480
C25   C     C_R   0.569545 0.028309 0.034662 0.077837
C26   C     C_R   0.430454 0.971692 0.965339 0.077835
C27   C     C_R   0.930456 0.528356 0.465340 0.077823
C28   C     C_R   0.069545 0.471652 0.534659 0.077820
C29   C     C_R   0.589380 0.066761 0.982698 0.021816
C30   C     C_R   0.410620 0.933235 0.017302 0.021799
C31   C     C_R   0.910645 0.567299 0.517286 0.021777
C32   C     C_R   0.089355 0.432703 0.482713 0.021760
C33   C     C_R   0.516281 0.996204 0.028754 0.006693
C34   C     C_R   0.483718 0.003797 0.971246 0.006693
C35   C     C_R   0.983711 0.496057 0.471252 0.006696
C36   C     C_R   0.016290 0.503952 0.528747 0.006695
C37   C     C_R   0.505422 0.043190 0.921372 -0.150340
C38   C     C_R   0.494577 0.956808 0.078628 -0.150335
C39   C     C_R   0.994608 0.543828 0.578602 -0.150336
C40   C     C_R   0.005393 0.456179 0.421397 -0.150329
C41   C     C_R   0.556812 0.073618 0.926402 0.191796
C42   C     C_R   0.443188 0.926375 0.073598 0.191794
C43   C     C_R   0.943227 0.574442 0.573568 0.191796
C44   C     C_R   0.056773 0.425560 0.426430 0.191794
H1    H     H_    0.407870 0.998944 0.867778 0.113005
H2    H     H_    0.592128 0.001072 0.132223 0.113002
H3    H     H_    0.092157 0.499493 0.632200 0.113051
H4    H     H_    0.907845 0.500527 0.367798 0.113049
H5    H     H_    0.657437 0.130921 0.949157 0.137866
H6    H     H_    0.342564 0.869065 0.050844 0.137893
H7    H     H_    0.842615 0.632040 0.550808 0.137911
H8    H     H_    0.157385 0.367949 0.449191 0.137938
H9    H     H_    0.483407 0.052333 0.876839 0.142366
H10   H     H_    0.516592 0.947661 0.123161 0.142366
H11   H     H_    0.016636 0.553230 0.623122 0.142376
H12   H     H_    0.983365 0.446776 0.376876 0.142378
C45   C     C_R   0.638393 0.896665 0.380131 -0.161183
C46   C     C_R   0.361603 0.103331 0.619864 -0.161182
C47   C     C_R   0.861589 0.396689 0.119848 -0.161255
C48   C     C_R   0.138400 0.603326 0.880139 -0.161228
H13   H     H_    0.662454 0.777828 0.377744 0.164429
H14   H     H_    0.337540 0.222163 0.622249 0.164427
H15   H     H_    0.837516 0.277871 0.122221 0.164486
H16   H     H_    0.162465 0.722160 0.877755 0.164489
C49   C     C_R   0.602398 0.882920 0.416201 -0.183154
C50   C     C_R   0.397597 0.117074 0.583794 -0.183149
C51   C     C_R   0.897584 0.382946 0.083779 -0.183073
C52   C     C_R   0.102405 0.617071 0.916208 -0.183092
H17   H     H_    0.600049 0.754199 0.440114 0.189614
H18   H     H_    0.399944 0.245791 0.559877 0.189597
H19   H     H_    0.899921 0.254245 0.059851 0.189575
H20   H     H_    0.100060 0.745790 0.940124 0.189626
C53   C     C_R   0.570663 0.033108 0.422481 -0.136153
C54   C     C_R   0.429335 0.966892 0.577517 -0.136149
C55   C     C_R   0.929335 0.533111 0.077518 -0.136175
C56   C     C_R   0.070666 0.466887 0.922486 -0.136185
C57   C     C_R   0.574781 0.197672 0.389838 0.491227
C58   C     C_R   0.425221 0.802335 0.610166 0.491231
C59   C     C_R   0.925233 0.697650 0.110181 0.491222
C60   C     C_R   0.074780 0.302324 0.889840 0.491227
C61   C     C_R   0.611754 0.213748 0.354347 0.097967
C62   C     C_R   0.388248 0.786259 0.645657 0.097964
C63   C     C_R   0.888260 0.713726 0.145672 0.097977
C64   C     C_R   0.111753 0.286248 0.854348 0.097973
C65   C     C_R   0.644288 0.061144 0.348822 -0.166417
C66   C     C_R   0.355712 0.938857 0.651178 -0.166420
C67   C     C_R   0.855711 0.561147 0.151177 -0.166464
C68   C     C_R   0.144290 0.438850 0.848826 -0.166473
N1    N     N_R   0.512749 0.169208 0.483159 -0.217427
N2    N     N_R   0.487249 0.830791 0.516840 -0.217428
N3    N     N_R   0.987253 0.669211 0.016842 -0.217435
N4    N     N_R   0.012747 0.330790 0.983162 -0.217423
N5    N     N_R   0.479781 0.153618 0.519220 -0.273068
N6    N     N_R   0.520217 0.846381 0.480778 -0.273072
N7    N     N_R   0.020222 0.653618 0.980782 -0.273062
N8    N     N_R   0.979778 0.346382 0.019221 -0.273051
C69   C     C_R   0.466319 0.983910 0.537049 0.517107
C70   C     C_R   0.533679 0.016089 0.462949 0.517106
C71   C     C_R   0.033681 0.483909 0.962953 0.517096
C72   C     C_R   0.966319 0.516092 0.037051 0.517088
N9    N     N_3   0.574770 0.112241 0.872640 -0.678705
H21   H     H_    0.591909 0.243151 0.876422 0.233155
H22   H     H_    0.601269 0.011184 0.867228 0.228942
N10   N     N_3   0.425230 0.887747 0.127359 -0.678704
H23   H     H_    0.408092 0.756835 0.123577 0.233157
H24   H     H_    0.398731 0.988800 0.132773 0.228948
N11   N     N_3   0.925292 0.613568 0.627312 -0.678688
H25   H     H_    0.908184 0.744530 0.623442 0.233158
H26   H     H_    0.898773 0.512680 0.632806 0.228944
N12   N     N_3   0.074708 0.386431 0.372687 -0.678683
H27   H     H_    0.091815 0.255467 0.376557 0.233162
H28   H     H_    0.101228 0.487315 0.367192 0.228948
O21   O     O_3   0.275250 0.862746 0.953104 -0.559721
C73   C     C_3   0.249516 0.026527 0.963128 -0.268609
H29   H     H_    0.252667 0.135219 0.929356 0.139953
H30   H     H_    0.263328 0.081201 0.008991 0.144581
H31   H     H_    0.208937 0.993322 0.958808 0.166442
O22   O     O_3   0.724751 0.137234 0.046903 -0.559732
C74   C     C_3   0.750475 0.973483 0.036825 -0.268554
H32   H     H_    0.736698 0.919092 0.990921 0.144595
H33   H     H_    0.747266 0.864592 0.070516 0.139911
H34   H     H_    0.791065 0.006615 0.041226 0.166404
O23   O     O_3   0.224709 0.361934 0.546907 -0.559670
C75   C     C_3   0.250513 0.525594 0.536921 -0.268733
H35   H     H_    0.247465 0.634155 0.570768 0.139947
H36   H     H_    0.236678 0.580553 0.491098 0.144588
H37   H     H_    0.291067 0.492114 0.541152 0.166427
O24   O     O_3   0.775290 0.638033 0.453086 -0.559678
C76   C     C_3   0.749499 0.474385 0.463122 -0.268704
H38   H     H_    0.763290 0.419754 0.508996 0.144633
H39   H     H_    0.752611 0.365617 0.429363 0.139903
H40   H     H_    0.708929 0.507787 0.458792 0.166401
O25   O     O_3   0.544108 0.348780 0.394294 -0.527087
C77   C     C_3   0.500883 0.336031 0.348542 -0.138831
H41   H     H_    0.475951 0.455787 0.352602 0.170440
H42   H     H_    0.479208 0.206724 0.352668 0.113017
H43   H     H_    0.510785 0.343365 0.303598 0.131695
O26   O     O_3   0.455898 0.651236 0.605715 -0.527084
C78   C     C_3   0.499124 0.664015 0.651466 -0.138831
H44   H     H_    0.520794 0.793333 0.647336 0.113012
H45   H     H_    0.524061 0.544271 0.647409 0.170434
H46   H     H_    0.489222 0.656685 0.696410 0.131700
O27   O     O_3   0.955925 0.848728 0.105750 -0.527068
C79   C     C_3   0.999153 0.835850 0.151495 -0.138776
H47   H     H_    0.024090 0.955626 0.147469 0.170425
H48   H     H_    0.020818 0.706554 0.147326 0.113024
H49   H     H_    0.989259 0.843045 0.196446 0.131648
O28   O     O_3   0.044103 0.151218 0.894292 -0.527077
C80   C     C_3   0.000876 0.163984 0.848542 -0.138811
H50   H     H_    0.979204 0.293287 0.852676 0.113004
H51   H     H_    0.975945 0.044215 0.852596 0.170440
H52   H     H_    0.010774 0.156681 0.803595 0.131673
N13   N     N_3   0.614193 0.386959 0.323929 -0.636305
H53   H     H_    0.610294 0.362248 0.278178 0.229904
H54   H     H_    0.648544 0.451801 0.340919 0.244282
N14   N     N_3   0.385814 0.613057 0.676082 -0.636295
H55   H     H_    0.389711 0.637785 0.721832 0.229902
H56   H     H_    0.351465 0.548198 0.659093 0.244280
N15   N     N_3   0.885841 0.886902 0.176118 -0.636239
H57   H     H_    0.889730 0.862126 0.221864 0.229888
H58   H     H_    0.851501 0.951814 0.159132 0.244341
N16   N     N_3   0.114186 0.113043 0.823924 -0.636279
H59   H     H_    0.110289 0.137765 0.778174 0.229911
H60   H     H_    0.148535 0.048191 0.840914 0.244317

loop_
_geom_bond_atom_site_label_1
_geom_bond_atom_site_label_2
_ccdc_geom_bond_type
O17   V3    S    
C74   H34   S    
C55   C59   A    
O1    C5    A    
O25   C77   S    
N4    C71   A    
O19   V1    S    
C9    C21   A    
O3    C7    A    
O23   C75   S    
C10   C18   A    
C75   H37   S    
O1    V3    S    
C11   C23   A    
N10   H23   S    
C25   C33   A    
C33   C38   A    
C5    C12   S    
C39   H11   S    
C80   H50   S    
N14   H55   S    
O7    C3    A    
C6    C11   S    
C35   C40   A    
C48   C68   A    
C36   C39   A    
C46   C66   A    
C64   N16   S    
C78   H45   S    
C75   H36   S    
C14   C18   A    
N15   H58   S    
O16   V4    S    
O4    C8    A    
C79   H48   S    
C74   H32   S    
C52   H20   S    
C20   O23   S    
O13   V1    S    
O2    V4    S    
N6    C70   A    
O3    V1    S    
N5    C69   A    
C22   H1    S    
C13   H5    S    
C28   C36   A    
C77   H43   S    
N2    C69   A    
C13   C17   A    
C1    O15   A    
C56   C60   A    
C15   C31   A    
N1    C70   A    
C78   H44   S    
C37   H9    S    
C16   C32   A    
O2    C6    A    
C58   C62   A    
C10   C22   A    
C15   H7    S    
C76   H39   S    
C11   C19   A    
C16   C20   A    
C58   O26   S    
C60   O28   S    
C13   C29   A    
C34   C37   A    
O11   C7    A    
O15   V3    S    
C35   C36   A    
O12   C8    A    
C18   O21   S    
C77   H42   S    
C40   H12   S    
O10   V2    S    
C62   N14   S    
C4    C65   S    
N14   H56   S    
C50   H18   S    
O5    V1    S    
C80   H51   S    
C57   C61   A    
C39   C43   A    
O7    V3    S    
C38   C42   A    
O8    V4    S    
C78   H46   S    
C75   H35   S    
C2    O16   A    
O27   C79   S    
O18   V4    S    
C15   C19   A    
N13   H54   S    
C32   C44   A    
C51   H19   S    
O4    V2    S    
N4    N8    A    
C49   C53   A    
C26   C34   A    
N15   H57   S    
O5    C1    A    
C53   C70   S    
C23   C27   A    
C14   C30   A    
C21   C25   A    
O8    C4    A    
C7    C10   S    
C4    O14   A    
O9    C5    A    
C2    C67   S    
C26   C30   A    
C59   O27   S    
C76   H40   S    
C48   C52   A    
N2    N6    A    
C73   H30   S    
N1    N5    A    
C79   H47   S    
O6    V2    S    
C45   C65   A    
N3    N7    A    
C77   H41   S    
C47   C67   A    
C12   C20   A    
C27   C35   A    
C24   H3    S    
N16   H60   S    
N11   H25   S    
C40   C44   A    
C60   C64   A    
C29   C41   A    
O28   C80   S    
C52   C56   A    
O26   C78   S    
C14   H6    S    
C80   H52   S    
O9    V1    S    
C74   H33   S    
C61   C65   A    
C3    O13   A    
N3    C72   A    
C21   H2    S    
C63   C67   A    
C38   H10   S    
C43   N11   S    
C48   H16   S    
C61   N13   S    
N11   H26   S    
C73   H31   S    
N10   H24   S    
C47   H15   S    
O6    C2    A    
C31   C43   A    
O11   V3    S    
N12   H27   S    
C30   C42   A    
N7    C71   A    
O12   V4    S    
C47   C51   A    
O21   C73   S    
C22   C26   A    
C8    C9    S    
C46   C50   A    
C56   C71   S    
C9    C17   A    
O10   C6    A    
C44   N12   S    
N16   H59   S    
C45   C49   A    
C17   O22   S    
C54   C58   A    
C46   H14   S    
C33   C34   A    
N9    H21   S    
C28   C32   A    
C1    C68   S    
C25   C29   A    
O20   V2    S    
N12   H28   S    
C12   C24   A    
C54   C69   S    
C27   C31   A    
C37   C41   A    
C49   H17   S    
C53   C57   A    
C23   H4    S    
C73   H29   S    
O14   V2    S    
C57   O25   S    
C64   C68   A    
C24   C28   A    
O24   C76   S    
C62   C66   A    
N13   H53   S    
C16   H8    S    
C63   N15   S    
N9    H22   S    
O22   C74   S    
C59   C63   A    
C79   H49   S    
C51   C55   A    
C76   H38   S    
C42   N10   S    
C50   C54   A    
C45   H13   S    
C19   O24   S    
N8    C72   A    
C41   N9    S    
C55   C72   S    
C3    C66   S    
