data_mof_unit_24673.cif
_audit_creation_date              2012-10-26T19:53:25-0400
_audit_creation_method            fapswitch 2.2
_symmetry_space_group_name_H-M    P1
_symmetry_Int_Tables_number       1
_space_group_crystal_system       triclinic
_cell_length_a                    9.144431
_cell_length_b                    7.821236
_cell_length_c                    10.729781
_cell_angle_alpha                 89.521389
_cell_angle_beta                  89.928832
_cell_angle_gamma                 89.905752
_cell_volume                      767.373624957

loop_
_atom_site_label
_atom_site_type_symbol
_atom_type_description
_atom_site_fract_x
_atom_site_fract_y
_atom_site_fract_z
_atom_type_partial_charge
C1    C     C_R   0.220098 0.500085 0.498782 0.574885
C2    C     C_3   0.614733 0.556707 0.044325 0.256207
C3    C     C_3   0.491220 0.505999 0.877339 -0.061243
C4    C     C_3   0.484300 0.501041 0.124127 -0.050466
C5    C     C_1   0.065298 0.500062 0.499279 0.016660
C6    C     C_1   0.934703 0.499815 0.500181 0.021288
C7    C     C_3   0.192472 0.804696 0.018443 -0.060782
C8    C     C_3   0.760725 0.184669 0.001595 0.035889
C9    C     C_3   0.483411 0.915004 0.839307 -0.024890
C10   C     C_3   0.299835 0.169568 0.154493 -0.036658
C11   C     C_R   0.779909 0.499897 0.500584 0.599556
C12   C     C_R   0.492766 0.500481 0.259620 0.599507
C13   C     C_R   0.498317 0.500746 0.741070 0.626298
C14   C     C_3   0.379925 0.608113 0.042054 0.171374
C15   C     C_3   0.592216 0.398862 0.962063 0.204040
C16   C     C_3   0.511466 0.664870 0.961998 0.229558
C17   C     C_3   0.458485 0.343826 0.040863 0.166862
C18   C     C_3   0.356184 0.450235 0.956690 0.100640
Cu1   Cu    Cu3+1 0.500000 0.669080 0.500000 1.103992
Cu2   Cu    Cu3+1 0.500000 0.330920 0.500000 1.105182
H1    H     H_    0.092022 0.434646 0.064450 0.349731
H2    H     H_    0.380148 0.851154 0.811325 0.121414
H3    H     H_    0.558948 0.927230 0.758897 0.175098
H4    H     H_    0.207803 0.145091 0.090941 0.154641
H5    H     H_    0.272913 0.286882 0.207298 0.102375
H6    H     H_    0.305611 0.061769 0.222158 0.178394
H7    H     H_    0.950074 0.571030 0.231744 0.350100
H8    H     H_    0.152486 0.730973 0.938132 0.209940
H9    H     H_    0.258629 0.912952 0.985411 0.162537
H10   H     H_    0.096303 0.858881 0.067241 0.176932
H11   H     H_    0.680029 0.086248 0.028199 0.227712
H12   H     H_    0.797133 0.252924 0.085937 0.191314
H13   H     H_    0.856715 0.117198 0.962036 0.197135
H14   H     H_    0.456201 0.047217 0.866668 0.205826
N1    N     N_1   0.500000 0.076820 0.500000 -0.087578
N2    N     N_1   0.500000 0.923180 0.500000 -0.092299
O1    O     O_R   0.288390 0.642760 0.500000 -0.503605
O2    O     O_2   0.210526 0.204678 0.833081 -0.295350
O3    O     O_3   0.053584 0.374949 0.990606 -0.474766
O4    O     O_2   0.879727 0.675286 0.991454 -0.248274
O5    O     O_2   0.750376 0.810031 0.165181 -0.276122
O6    O     O_3   0.861865 0.509373 0.203244 -0.575505
O7    O     O_3   0.271940 0.704892 0.103868 -0.581332
O8    O     O_3   0.703977 0.296615 0.910305 -0.523646
O9    O     O_3   0.557462 0.834948 0.938692 -0.526008
O10   O     O_3   0.433188 0.176920 0.087633 -0.546198
O11   O     O_R   0.711610 0.357240 0.500000 -0.486331
O12   O     O_R   0.711610 0.642760 0.500000 -0.485407
O13   O     O_R   0.288390 0.357240 0.500000 -0.501371
O14   O     O_R   0.499960 0.642760 0.316850 -0.444102
O15   O     O_R   0.500040 0.357240 0.683150 -0.466593
O16   O     O_R   0.500040 0.642760 0.683150 -0.540871
O17   O     O_R   0.499960 0.357240 0.316850 -0.504825
O18   O     O_2   0.148593 0.500997 0.781859 -0.277152
S1    S     S_3+6 0.189549 0.380328 0.885613 0.012810
S2    S     S_3+6 0.781582 0.643651 0.101312 0.043477

loop_
_geom_bond_atom_site_label_1
_geom_bond_atom_site_label_2
_ccdc_geom_bond_type
C16   O9    S    
C10   O10   S    
C12   O14   A    
O5    S2    D    
C9    O9    S    
Cu2   O13   S    
C7    H9    S    
C7    O7    S    
C4    C12   S    
C13   O16   A    
C2    C16   S    
C14   C18   S    
C2    C4    S    
N1    N2    T    
C3    C13   S    
C1    O1    A    
Cu1   N2    S    
O6    S2    S    
C10   H6    S    
C17   C18   S    
C7    H10   S    
C2    S2    S    
C2    C15   S    
Cu2   N1    S    
Cu1   O14   S    
C11   O12   A    
C9    H14   S    
C12   O17   A    
C1    O13   A    
C18   S1    S    
C1    C5    S    
C4    C17   S    
Cu2   O17   S    
C10   H5    S    
C15   O8    S    
Cu2   O15   S    
C8    H13   S    
C4    C14   S    
C5    C6    T    
C14   C16   S    
C9    H2    S    
Cu2   O11   S    
C7    H8    S    
C8    H12   S    
C8    O8    S    
C3    C15   S    
C17   O10   S    
C3    C18   S    
C6    C11   S    
C15   C17   S    
O18   S1    D    
C9    H3    S    
Cu1   O1    S    
C10   H4    S    
C13   O15   A    
C8    H11   S    
C11   O11   A    
Cu1   O16   S    
C3    C16   S    
O3    S1    S    
H7    O6    S    
Cu1   Cu2   S    
Cu1   O12   S    
C14   O7    S    
O4    S2    D    
O2    S1    D    
H1    O3    S    
