data_mof_unit_56093.cif
_audit_creation_date              2012-12-11T15:47:11-0500
_audit_creation_method            fapswitch 2.2
_symmetry_space_group_name_H-M    P1
_symmetry_Int_Tables_number       1
_space_group_crystal_system       triclinic
_cell_length_a                    20.159975
_cell_length_b                    7.252502
_cell_length_c                    13.514665
_cell_angle_alpha                 90.00075
_cell_angle_beta                  102.977756
_cell_angle_gamma                 90.002911
_cell_volume                      1925.51078249

loop_
_atom_site_label
_atom_site_type_symbol
_atom_type_description
_atom_site_fract_x
_atom_site_fract_y
_atom_site_fract_z
_atom_type_partial_charge
O1    O     O_R   0.449560 0.506810 0.599700 -0.537826
O2    O     O_R   0.550440 0.006810 0.400300 -0.537751
O3    O     O_R   0.587960 0.180060 0.595760 -0.546943
O4    O     O_R   0.412040 0.680060 0.404240 -0.546994
C1    C     C_R   0.614963 0.344196 0.617465 0.706805
C2    C     C_R   0.385038 0.844194 0.382534 0.706827
O5    O     O_R   0.452380 0.177430 0.611700 -0.536498
O6    O     O_R   0.547620 0.677430 0.388300 -0.536603
O7    O     O_R   0.413900 0.001890 0.416350 -0.543499
O8    O     O_R   0.586100 0.501890 0.583650 -0.543544
C3    C     C_R   0.436334 0.345713 0.637728 0.770675
C4    C     C_R   0.563664 0.845725 0.362269 0.770721
O9    O     O_3   0.487530 0.337490 0.435890 -0.381628
O10   O     O_3   0.512470 0.837490 0.564110 -0.381635
V1    V     V_3+5 0.502310 0.064660 0.511890 1.456591
V2    V     V_3+5 0.497690 0.564660 0.488110 1.456290
C5    C     C_R   0.610491 0.857073 0.108592 -0.196561
C6    C     C_R   0.389505 0.355405 0.891448 -0.196541
H1    H     H_    0.694396 0.860780 0.983195 0.136164
H2    H     H_    0.305604 0.358601 0.016844 0.136118
H3    H     H_    0.584840 0.854476 0.029004 0.167561
H4    H     H_    0.415152 0.351960 0.971054 0.167530
C7    C     C_R   0.603574 0.854129 0.284569 -0.153192
C8    C     C_R   0.396422 0.354028 0.715427 -0.153317
C9    C     C_R   0.932556 0.861654 0.321358 -0.001521
C10   C     C_R   0.067431 0.362053 0.678636 -0.001576
C11   C     C_R   0.895593 0.877574 0.396638 -0.151861
C12   C     C_R   0.104394 0.378193 0.603365 -0.152005
C13   C     C_R   0.824856 0.883153 0.371825 -0.188482
C14   C     C_R   0.175134 0.383684 0.628180 -0.188500
C15   C     C_R   0.788088 0.871768 0.269731 0.108298
C16   C     C_R   0.211906 0.371890 0.730266 0.108231
C17   C     C_R   0.825574 0.865503 0.192048 0.050341
C18   C     C_R   0.174421 0.365256 0.807951 0.050314
C19   C     C_R   0.715369 0.867129 0.242188 0.086402
C20   C     C_R   0.284627 0.367033 0.757810 0.086351
C21   C     C_R   0.681845 0.863192 0.137731 0.039368
C22   C     C_R   0.318152 0.362129 0.862289 0.039385
C23   C     C_R   0.719629 0.863327 0.062982 -0.145517
C24   C     C_R   0.280371 0.361853 0.937045 -0.145477
C25   C     C_R   0.790220 0.863303 0.089451 -0.183372
C26   C     C_R   0.209777 0.362320 0.910559 -0.183388
C27   C     C_R   0.674547 0.862258 0.314677 -0.320184
C28   C     C_R   0.325450 0.362807 0.685298 -0.319973
C29   C     C_R   0.571531 0.852036 0.181600 0.616480
C30   C     C_R   0.428465 0.350752 0.818429 0.616428
C31   C     C_R   0.897810 0.861172 0.218326 -0.119438
C32   C     C_R   0.102182 0.361206 0.781667 -0.119407
H5    H     H_    0.696073 0.860829 0.395211 0.116942
H6    H     H_    0.303933 0.362325 0.604732 0.116895
H7    H     H_    0.800649 0.895962 0.434850 0.108325
H8    H     H_    0.199334 0.396593 0.565156 0.108401
H9    H     H_    0.921823 0.882353 0.475888 0.125353
H10   H     H_    0.078162 0.383174 0.524119 0.125577
H11   H     H_    0.816809 0.860320 0.028216 0.114088
H12   H     H_    0.183189 0.359005 0.971794 0.114124
C33   C     C_R   0.215432 0.022120 0.229060 -0.147390
C34   C     C_R   0.784552 0.522134 0.771004 -0.147301
H13   H     H_    0.189868 0.153984 0.214888 0.116435
H14   H     H_    0.810101 0.654016 0.785231 0.116450
C35   C     C_R   0.280631 0.017699 0.292517 -0.159465
C36   C     C_R   0.719353 0.517716 0.707547 -0.159544
H15   H     H_    0.303065 0.145808 0.325166 0.115591
H16   H     H_    0.696905 0.645843 0.674951 0.115597
C37   C     C_R   0.316042 0.850236 0.313908 -0.030292
C38   C     C_R   0.683959 0.350236 0.686089 -0.030290
C39   C     C_R   0.284392 0.687282 0.269981 -0.151817
C40   C     C_R   0.715628 0.187258 0.729947 -0.151778
H17   H     H_    0.309884 0.555391 0.284607 0.122340
H18   H     H_    0.690151 0.055349 0.715267 0.122323
C41   C     C_R   0.219278 0.691730 0.206294 -0.157527
C42   C     C_R   0.780743 0.191702 0.793632 -0.157613
H19   H     H_    0.196841 0.563473 0.173867 0.116549
H20   H     H_    0.803195 0.063426 0.826002 0.116533
C43   C     C_R   0.183767 0.859149 0.185080 -0.019248
C44   C     C_R   0.816235 0.359142 0.814916 -0.019229
O11   O     O_R   0.913920 0.203370 0.916260 -0.539734
O12   O     O_R   0.086080 0.703370 0.083740 -0.539729
O13   O     O_R   0.047620 0.535540 0.888290 -0.536293
O14   O     O_R   0.952380 0.035540 0.111710 -0.536303
C45   C     C_R   0.063058 0.368202 0.861282 0.697917
C46   C     C_R   0.936938 0.868198 0.138715 0.697869
O15   O     O_R   0.912040 0.532780 0.904220 -0.545972
O16   O     O_R   0.087960 0.032780 0.095780 -0.545991
O17   O     O_R   0.949550 0.708160 0.099720 -0.539685
O18   O     O_R   0.050450 0.208160 0.900280 -0.539672
C47   C     C_R   0.885433 0.364936 0.883015 0.691834
C48   C     C_R   0.114568 0.864940 0.116984 0.691826
O19   O     O_3   0.012480 0.375300 0.064060 -0.381757
O20   O     O_3   0.987520 0.875300 0.935940 -0.381717
V3    V     V_3+5 0.997690 0.648180 0.988110 1.404058
V4    V     V_3+5 0.002310 0.148180 0.011890 1.404018
F1    F     F_    0.502632 0.844368 0.151938 -0.687152
F2    F     F_    0.497361 0.342321 0.848109 -0.687101
C49   C     C_R   0.007379 0.840396 0.352998 0.065201
C50   C     C_R   0.047464 0.980162 0.408630 -0.135648
C51   C     C_R   0.117719 0.955522 0.442752 -0.120043
C52   C     C_R   0.148149 0.790581 0.422857 -0.071674
C53   C     C_R   0.108504 0.650553 0.368010 -0.138665
C54   C     C_R   0.038367 0.675171 0.333026 -0.130612
H21   H     H_    0.024234 0.107551 0.425504 0.114348
H22   H     H_    0.148577 0.063732 0.485050 0.114764
H23   H     H_    0.202460 0.771362 0.449781 0.109815
H24   H     H_    0.132089 0.522608 0.352952 0.103805
H25   H     H_    0.008072 0.564407 0.292034 0.123767
C55   C     C_R   0.992610 0.340767 0.646999 0.065151
C56   C     C_R   0.952507 0.480627 0.591616 -0.135551
C57   C     C_R   0.882260 0.455923 0.557491 -0.120011
C58   C     C_R   0.851845 0.290863 0.577135 -0.071713
C59   C     C_R   0.891507 0.150748 0.631754 -0.138512
C60   C     C_R   0.961640 0.175403 0.666726 -0.130622
H26   H     H_    0.975728 0.608124 0.574937 0.114227
H27   H     H_    0.851383 0.564203 0.515376 0.114663
H28   H     H_    0.797540 0.271612 0.550205 0.109860
H29   H     H_    0.867934 0.022695 0.646634 0.103747
H30   H     H_    0.991952 0.064541 0.707530 0.123611

loop_
_geom_bond_atom_site_label_1
_geom_bond_atom_site_label_2
_ccdc_geom_bond_type
C34   C36   A    
O15   C47   A    
O11   V4    S    
O4    V2    S    
C7    C29   A    
C11   C13   A    
C56   H26   S    
C38   C40   A    
C49   C50   A    
O1    C3    A    
C42   C44   A    
C29   F1    S    
C10   C55   S    
C2    O7    A    
C51   C52   A    
O17   V3    S    
C34   C44   A    
C23   C25   A    
C57   C58   A    
O5    C3    A    
C4    C7    S    
C54   H25   S    
C16   C20   A    
C19   C21   A    
C5    C29   A    
H2    C24   S    
C33   H13   S    
C55   C56   A    
O12   C48   A    
C52   H23   S    
C3    C8    S    
C7    C27   A    
C32   C45   S    
C31   C46   S    
C35   H15   S    
C59   C60   A    
C25   H11   S    
C36   H16   S    
C26   H12   S    
C2    C37   S    
C37   C39   A    
C18   C26   A    
C56   C57   A    
C15   C17   A    
C60   H30   S    
C14   C16   A    
C19   C27   A    
C9    C31   A    
O13   V3    S    
C45   O18   A    
C10   C32   A    
C24   C26   A    
C53   H24   S    
O2    C4    A    
O6    V2    S    
C22   C24   A    
C50   H21   S    
C6    C30   A    
C55   C60   A    
C21   C23   A    
C36   C38   A    
O16   C48   A    
C42   H20   S    
O13   C45   A    
C12   H10   S    
C49   C54   A    
C27   H5    S    
O5    V1    S    
C5    H3    S    
C40   C42   A    
C39   H17   S    
C16   C18   A    
C57   H27   S    
O14   V4    S    
C53   C54   A    
C30   F2    S    
O6    C4    A    
C50   C51   A    
O1    V2    S    
C5    C21   A    
O19   V4    S    
O2    V1    S    
C44   C47   S    
H1    C23   S    
C58   H28   S    
O4    C2    A    
C9    C49   S    
C17   C31   A    
C15   C19   A    
C20   C28   A    
C18   C32   A    
O3    V1    S    
C41   H19   S    
C13   H7    S    
C28   H6    S    
C14   H8    S    
C6    H4    S    
C51   H22   S    
C1    C38   S    
O3    C1    A    
C11   H9    S    
C33   C35   A    
O12   V3    S    
C9    C11   A    
C46   O17   A    
O15   V3    S    
C10   C12   A    
C8    C30   A    
C33   C43   A    
C20   C22   A    
C6    C22   A    
C17   C25   A    
C1    O8    A    
C13   C15   A    
O8    V2    S    
C58   C59   A    
C41   C43   A    
O20   V3    S    
C8    C28   A    
C12   C14   A    
O14   C46   A    
C39   C41   A    
O7    V1    S    
C35   C37   A    
C43   C48   S    
O11   C47   A    
C40   H18   S    
C52   C53   A    
O9    V2    S    
O10   V1    S    
O18   V4    S    
O16   V4    S    
C34   H14   S    
C59   H29   S    
