data_mof_unit_19162.cif
_audit_creation_date              2012-10-26T19:23:08-0400
_audit_creation_method            fapswitch 2.2
_symmetry_space_group_name_H-M    P1
_symmetry_Int_Tables_number       1
_space_group_crystal_system       triclinic
_cell_length_a                    17.277671
_cell_length_b                    12.947684
_cell_length_c                    11.660056
_cell_angle_alpha                 100.011834
_cell_angle_beta                  89.884949
_cell_angle_gamma                 91.280307
_cell_volume                      2568.05508836

loop_
_atom_site_label
_atom_site_type_symbol
_atom_type_description
_atom_site_fract_x
_atom_site_fract_y
_atom_site_fract_z
_atom_type_partial_charge
C1    C     C_R   0.501040 0.299193 0.478327 0.571947
C2    C     C_R   0.524125 0.862582 0.445154 -0.174574
C3    C     C_R   0.480093 0.029664 0.547053 -0.014816
C4    C     C_R   0.517631 0.970024 0.450980 -0.010093
C5    C     C_R   0.424691 0.404750 0.028678 -0.164909
C6    C     C_R   0.573448 0.597800 0.971738 -0.156720
C7    C     C_R   0.432612 0.411407 0.150896 0.423435
C8    C     C_R   0.567669 0.588277 0.848704 0.439656
C9    C     C_R   0.532300 0.541454 0.153846 0.000380
C10   C     C_R   0.467703 0.458481 0.846088 -0.003804
C11   C     C_R   0.527016 0.534833 0.031564 -0.048614
C12   C     C_R   0.499578 0.700841 0.521571 0.546600
C13   C     C_R   0.472971 0.465052 0.968296 -0.049653
C14   C     C_R   0.350687 0.503356 0.515449 0.529779
C15   C     C_R   0.649329 0.496197 0.484527 0.552362
C16   C     C_R   0.266635 0.511778 0.523496 -0.034310
C17   C     C_R   0.733163 0.483974 0.476090 -0.022440
C18   C     C_R   0.224859 0.528073 0.425497 -0.119314
C19   C     C_R   0.774562 0.467548 0.574459 -0.127528
C20   C     C_R   0.143950 0.531887 0.428016 0.272736
C21   C     C_R   0.854550 0.452955 0.569077 0.272036
C22   C     C_R   0.105653 0.523692 0.532981 0.038817
C23   C     C_R   0.493762 0.813932 0.533924 0.008712
C24   C     C_R   0.893513 0.462340 0.465034 0.040357
C25   C     C_R   0.147705 0.512940 0.632603 -0.172015
C26   C     C_R   0.851890 0.474222 0.365403 -0.162235
C27   C     C_R   0.227859 0.506030 0.627768 -0.167596
C28   C     C_R   0.771960 0.484851 0.370702 -0.144823
C29   C     C_2   0.021186 0.522884 0.540021 -0.064709
C30   C     C_2   0.978005 0.462234 0.458596 -0.073464
C31   C     C_3   0.687115 0.670340 0.821628 0.001376
C32   C     C_3   0.701152 0.784373 0.880663 -0.268083
C33   C     C_3   0.785264 0.804364 0.919240 -0.488132
C34   C     C_R   0.505646 0.185941 0.465368 0.014402
C35   C     C_3   0.376138 0.248796 0.166158 0.005545
C36   C     C_3   0.292065 0.219429 0.132067 -0.274079
C37   C     C_3   0.282378 0.102201 0.085397 -0.485874
C38   C     C_3   0.866070 0.353613 0.716622 0.006266
C39   C     C_3   0.839114 0.394649 0.841081 -0.263793
C40   C     C_3   0.804069 0.306720 0.897833 -0.487808
C41   C     C_3   0.121791 0.492310 0.227279 -0.005555
C42   C     C_3   0.157246 0.561256 0.145649 -0.250209
C43   C     C_3   0.183002 0.495796 0.030792 -0.487331
C44   C     C_3   0.352803 0.778315 0.687136 0.032613
C45   C     C_R   0.549661 0.018802 0.363290 -0.115210
C46   C     C_3   0.286967 0.853467 0.726616 -0.288156
C47   C     C_3   0.208153 0.797912 0.704810 -0.476987
C48   C     C_3   0.565859 0.140615 0.175129 0.012657
C49   C     C_3   0.638264 0.097183 0.109658 -0.265819
C50   C     C_3   0.621311 0.059840 0.980488 -0.488106
C51   C     C_R   0.450050 0.981267 0.636406 -0.106009
C52   C     C_R   0.543669 0.127416 0.369150 0.250773
C53   C     C_R   0.455246 0.873103 0.629600 0.265273
C54   C     C_R   0.474012 0.137117 0.553140 -0.181413
Cu1   Cu    Cu3+1 0.505800 0.507690 0.615350 0.996963
Cu2   Cu    Cu3+1 0.494200 0.492310 0.384650 0.999935
H1    H     H_    0.255313 0.538738 0.347149 0.141512
H2    H     H_    0.573632 0.595514 0.203378 0.115958
H3    H     H_    0.722702 0.656204 0.741237 0.156102
H4    H     H_    0.708099 0.614671 0.877066 0.090193
H5    H     H_    0.686765 0.837222 0.818511 0.176818
H6    H     H_    0.662974 0.803680 0.957763 0.158196
H7    H     H_    0.800388 0.753927 0.983471 0.147346
H8    H     H_    0.793598 0.887788 0.960747 0.142961
H9    H     H_    0.824547 0.787685 0.843038 0.152268
H10   H     H_    0.393271 0.204648 0.235377 0.157711
H11   H     H_    0.414739 0.222500 0.090488 0.085525
H12   H     H_    0.744744 0.465469 0.655668 0.122167
H13   H     H_    0.254243 0.240804 0.209426 0.167508
H14   H     H_    0.273410 0.263835 0.063993 0.147071
H15   H     H_    0.318431 0.079631 0.006371 0.145093
H16   H     H_    0.220808 0.083300 0.061900 0.143878
H17   H     H_    0.299627 0.055978 0.152660 0.148754
H18   H     H_    0.380596 0.353797 0.981398 0.079853
H19   H     H_    0.612865 0.654766 0.021003 0.078707
H20   H     H_    0.740878 0.495818 0.293284 0.130576
H21   H     H_    0.259277 0.495468 0.705043 0.128218
H22   H     H_    0.913586 0.297899 0.720538 0.147693
H23   H     H_    0.004770 0.416236 0.382660 0.126211
H24   H     H_    0.818516 0.307255 0.665431 0.121749
H25   H     H_    0.889255 0.431046 0.893977 0.165978
H26   H     H_    0.795168 0.455786 0.840466 0.151276
H27   H     H_    0.752396 0.271239 0.848196 0.151353
H28   H     H_    0.785965 0.338956 0.988180 0.144759
H29   H     H_    0.847296 0.245051 0.901037 0.142459
H30   H     H_    0.067561 0.455243 0.186727 0.135246
H31   H     H_    0.160635 0.426215 0.235528 0.117642
H32   H     H_    0.113679 0.618225 0.127441 0.169101
H33   H     H_    0.208010 0.606405 0.187951 0.165648
H34   H     H_    0.994479 0.569075 0.615928 0.152328
H35   H     H_    0.229338 0.441892 0.046664 0.152176
H36   H     H_    0.206213 0.548379 0.972525 0.142845
H37   H     H_    0.133306 0.449405 0.986667 0.140316
H38   H     H_    0.346617 0.709636 0.732098 0.172908
H39   H     H_    0.347339 0.747052 0.591965 0.109101
H40   H     H_    0.293254 0.885174 0.821125 0.170123
H41   H     H_    0.289889 0.920067 0.678078 0.151729
H42   H     H_    0.200749 0.764937 0.610835 0.165231
H43   H     H_    0.161565 0.854715 0.731739 0.145373
H44   H     H_    0.202596 0.733553 0.756277 0.151206
H45   H     H_    0.118157 0.507159 0.713399 0.121181
H46   H     H_    0.546368 0.207934 0.136083 0.151555
H47   H     H_    0.517794 0.080577 0.162193 0.100520
H48   H     H_    0.684247 0.159544 0.118780 0.176132
H49   H     H_    0.660201 0.030520 0.147641 0.154825
H50   H     H_    0.577375 0.994875 0.968908 0.163224
H51   H     H_    0.675252 0.030894 0.935216 0.144554
H52   H     H_    0.599714 0.125447 0.940247 0.148297
H53   H     H_    0.581202 0.972989 0.292521 0.101621
H54   H     H_    0.421924 0.027032 0.710992 0.109076
H55   H     H_    0.881700 0.478744 0.284493 0.115782
H56   H     H_    0.553427 0.816623 0.371725 0.117253
H57   H     H_    0.445027 0.183202 0.626802 0.113328
H58   H     H_    0.426050 0.404887 0.796625 0.116151
N1    N     N_R   0.514530 0.519260 0.788680 -0.217397
N2    N     N_R   0.485470 0.480740 0.211320 -0.216062
O1    O     O_R   0.504120 0.354440 0.581590 -0.530469
O2    O     O_3   0.382179 0.357244 0.213208 -0.536431
O3    O     O_3   0.896495 0.438057 0.666350 -0.593457
O4    O     O_3   0.101792 0.555627 0.334688 -0.579404
O5    O     O_3   0.425529 0.827333 0.719640 -0.555029
O6    O     O_3   0.584691 0.179686 0.293102 -0.556614
O7    O     O_R   0.495880 0.645560 0.418410 -0.537152
O8    O     O_R   0.494320 0.341440 0.386760 -0.439443
O9    O     O_R   0.505680 0.658560 0.613240 -0.413212
O10   O     O_R   0.391870 0.507230 0.608700 -0.532777
O11   O     O_R   0.608130 0.492770 0.391300 -0.510035
O12   O     O_R   0.382070 0.494240 0.413880 -0.461906
O13   O     O_R   0.617930 0.505760 0.586120 -0.484456
O14   O     O_3   0.608472 0.654880 0.787621 -0.516962

loop_
_geom_bond_atom_site_label_1
_geom_bond_atom_site_label_2
_ccdc_geom_bond_type
C31   H4    S    
Cu1   Cu2   S    
C22   C29   S    
C41   C42   S    
C40   H28   S    
C35   C36   S    
C40   H27   S    
C49   H48   S    
C33   H9    S    
C6    H19   S    
C41   H30   S    
C12   C23   S    
C2    H56   S    
C47   H42   S    
C38   H24   S    
Cu2   O8    S    
C36   C37   S    
C19   C21   A    
C24   C26   A    
C32   H5    S    
C31   O14   S    
C48   O6    S    
C38   C39   S    
C3    C54   A    
C45   H53   S    
C54   H57   S    
C44   O5    S    
C47   H43   S    
C9    H2    S    
Cu2   O11   S    
C31   H3    S    
C5    H18   S    
C8    N1    A    
C43   H37   S    
C52   O6    S    
Cu1   O9    S    
C36   H14   S    
Cu1   O13   S    
C22   C25   A    
C5    C13   A    
C10   H58   S    
C16   C27   A    
C15   O11   A    
C50   H52   S    
C17   C28   A    
C7    O2    S    
C29   H34   S    
C44   C46   S    
C1    C34   S    
C23   C53   A    
C4    C45   A    
C41   H31   S    
Cu2   O7    S    
C39   H25   S    
C6    C11   A    
C5    C7    A    
C3    C51   A    
C6    C8    A    
C12   O9    A    
C38   H22   S    
C45   C52   A    
C48   H47   S    
C43   H35   S    
C47   H44   S    
C51   C53   A    
C7    N2    A    
C2    C4    A    
C29   C30   D    
C18   H1    S    
C31   C32   S    
C15   O13   A    
Cu1   O10   S    
C35   H11   S    
C33   H7    S    
C48   H46   S    
Cu2   N2    S    
C19   H12   S    
C1    O1    A    
C9    C11   A    
C38   O3    S    
C48   C49   S    
C46   H41   S    
C20   C22   A    
C34   C54   A    
C51   H54   S    
C37   H15   S    
C8    O14   S    
C50   H51   S    
C14   C16   S    
C21   C24   A    
C42   H32   S    
C42   C43   S    
C30   H23   S    
C3    C4    A    
C28   H20   S    
C20   O4    S    
C36   H13   S    
Cu1   O1    S    
C15   C17   S    
C37   H17   S    
C46   C47   S    
C40   H29   S    
C9    N2    A    
C34   C52   A    
C39   H26   S    
C27   H21   S    
C10   C13   A    
C14   O10   A    
C49   H49   S    
C25   C27   A    
C26   C28   A    
C43   H36   S    
C35   H10   S    
C42   H33   S    
C32   C33   S    
C1    O8    A    
C32   H6    S    
C21   O3    S    
C44   H39   S    
C53   O5    S    
C11   C13   A    
C25   H45   S    
C12   O7    A    
Cu1   N1    S    
C33   H8    S    
C17   C19   A    
C18   C20   A    
Cu2   O12   S    
C41   O4    S    
C24   C30   S    
C44   H38   S    
C39   C40   S    
C46   H40   S    
C16   C18   A    
C49   C50   S    
C37   H16   S    
C2    C23   A    
C50   H50   S    
C35   O2    S    
C14   O12   A    
C26   H55   S    
C10   N1    A    
