data_mof_unit_56252.cif
_audit_creation_date              2012-12-11T15:53:42-0500
_audit_creation_method            fapswitch 2.2
_symmetry_space_group_name_H-M    P1
_symmetry_Int_Tables_number       1
_space_group_crystal_system       triclinic
_cell_length_a                    10.647583
_cell_length_b                    10.743655
_cell_length_c                    17.040758
_cell_angle_alpha                 80.700264
_cell_angle_beta                  99.285791
_cell_angle_gamma                 118.752021
_cell_volume                      1678.66322557

loop_
_atom_site_label
_atom_site_type_symbol
_atom_type_description
_atom_site_fract_x
_atom_site_fract_y
_atom_site_fract_z
_atom_type_partial_charge
C1    C     C_R   0.384323 0.283811 0.632072 0.554845
C2    C     C_1   0.333493 0.185801 0.781491 -0.055831
C3    C     C_1   0.335604 0.663703 0.277740 -0.062501
C4    C     C_R   0.369486 0.654560 0.586206 0.538183
C5    C     C_1   0.323256 0.673303 0.206978 -0.064054
C6    C     C_R   0.814748 0.663808 0.153299 -0.021701
C7    C     C_R   0.774936 0.533740 0.200210 0.012106
C8    C     C_R   0.769006 0.527104 0.280159 -0.007512
C9    C     C_R   0.816937 0.772896 0.268746 0.229888
C10   C     C_R   0.823596 0.780029 0.186308 -0.151996
C11   C     C_3   0.834727 0.429349 0.213491 -0.257615
C12   C     C_R   0.393631 0.829257 0.674725 -0.136957
C13   C     C_3   0.827214 0.423495 0.301822 -0.270948
C14   C     C_R   0.801473 0.647209 0.316876 0.035792
C15   C     C_R   0.339956 0.182589 0.155415 0.022974
C16   C     C_R   0.777165 0.619015 0.626747 0.546972
C17   C     C_R   0.276071 0.257063 0.177314 0.015164
C18   C     C_R   0.282087 0.272292 0.256325 0.031000
C19   C     C_R   0.435107 0.160743 0.293265 -0.161576
C20   C     C_R   0.433018 0.148636 0.212890 -0.157425
C21   C     C_3   0.127104 0.242022 0.160168 -0.275298
C22   C     C_3   0.134711 0.259163 0.247520 -0.272308
C23   C     C_R   0.376824 0.851232 0.750341 -0.152470
C24   C     C_R   0.347553 0.210146 0.315634 0.033550
C25   C     C_R   0.892146 0.702073 0.855838 0.545423
C26   C     C_R   0.281816 0.750563 0.882830 0.567866
C27   C     C_R   0.286569 0.118185 0.858328 0.540982
C28   C     C_R   0.354374 0.233544 0.397029 0.561206
C29   C     C_R   0.884619 0.690357 0.082481 0.559521
C30   C     C_R   0.313058 0.700902 0.123847 0.558649
C31   C     C_R   0.288212 0.111466 0.083465 0.553858
C32   C     C_R   0.365172 0.653917 0.360778 0.548055
C33   C     C_R   0.769750 0.621272 0.398751 0.572062
C34   C     C_3   0.129329 0.459214 0.793313 -0.248163
C35   C     C_R   0.280313 0.737033 0.798649 0.005779
C36   C     C_R   0.181291 0.612736 0.762937 0.020273
C37   C     C_R   0.198579 0.590441 0.688549 0.013358
C38   C     C_3   0.754527 0.950860 0.268043 0.005128
C39   C     C_3   0.752493 0.046309 0.324080 -0.346445
C40   C     C_3   0.148710 0.435009 0.711738 -0.253305
C41   C     C_R   0.314825 0.692330 0.647251 0.013724
C42   C     C_1   0.823546 0.656935 0.705906 -0.033500
C43   C     C_1   0.851321 0.684753 0.773680 -0.036286
C44   C     C_1   0.364533 0.232529 0.714311 -0.057195
Cr1   Cr    Cr6+3 0.608440 0.389080 0.519680 1.013009
Cr2   Cr    Cr6+3 0.288640 0.400090 0.490760 1.011990
Cr3   Cr    Cr6+3 0.602940 0.710800 0.489510 1.023458
Cr4   Cr    Cr6+3 0.052530 0.947560 0.964210 1.016027
Cr5   Cr    Cr6+3 0.059970 0.626800 0.992920 1.002201
Cr6   Cr    Cr6+3 0.373320 0.938440 0.995370 1.007353
H1    H     H_    0.478856 0.914962 0.642141 0.148128
H2    H     H_    0.045523 0.367554 0.677561 0.151672
H3    H     H_    0.947757 0.475709 0.199067 0.164908
H4    H     H_    0.758991 0.326936 0.188105 0.134250
H5    H     H_    0.934727 0.469360 0.336639 0.140648
H6    H     H_    0.497511 0.124062 0.338068 0.120249
H7    H     H_    0.124090 0.332716 0.119508 0.149403
H8    H     H_    0.235283 0.404910 0.713494 0.146263
H9    H     H_    0.641845 0.866458 0.255132 0.157776
H10   H     H_    0.795250 0.017379 0.211704 0.108140
H11   H     H_    0.860102 0.139679 0.332951 0.130729
H12   H     H_    0.746563 0.319159 0.327900 0.148287
H13   H     H_    0.674210 0.084897 0.297619 0.072367
H14   H     H_    0.720657 0.986476 0.383079 0.192077
H15   H     H_    0.853151 0.881135 0.150547 0.128321
H16   H     H_    0.489908 0.096541 0.197602 0.135460
H17   H     H_    0.043391 0.134596 0.144368 0.158756
H18   H     H_    0.135284 0.359104 0.257452 0.142447
H19   H     H_    0.059409 0.161118 0.281498 0.188815
H20   H     H_    0.447334 0.953399 0.773358 0.141792
H21   H     H_    0.014808 0.406179 0.806062 0.152732
H22   H     H_    0.204287 0.441993 0.841957 0.155294
O1    O     O_R   0.754020 0.497590 0.609930 -0.515829
O2    O     O_R   0.406180 0.826930 0.920660 -0.511119
O3    O     O_R   0.358620 0.062870 0.901950 -0.517614
O4    O     O_R   0.481420 0.271390 0.600630 -0.489647
O5    O     O_R   0.163910 0.085460 0.050210 -0.522877
O6    O     O_R   0.935200 0.815170 0.045770 -0.503892
O7    O     O_R   0.916120 0.596690 0.069430 -0.520649
O8    O     O_R   0.192310 0.631200 0.086170 -0.505139
O9    O     O_R   0.406770 0.819480 0.096420 -0.518666
O10   O     O_R   0.359170 0.055960 0.064880 -0.509345
O11   O     O_3   0.161940 0.837600 0.984160 -0.270612
O12   O     O_R   0.295080 0.533620 0.397890 -0.505886
O13   O     O_R   0.263810 0.254550 0.589590 -0.503745
O14   O     O_R   0.300820 0.531200 0.560890 -0.513970
O15   O     O_R   0.491480 0.744020 0.564270 -0.522482
O16   O     O_R   0.726290 0.693800 0.583010 -0.496018
O17   O     O_R   0.747830 0.500190 0.434090 -0.530378
O18   O     O_R   0.475680 0.273800 0.437630 -0.503612
O19   O     O_R   0.257620 0.257160 0.413750 -0.509535
O20   O     O_3   0.845975 0.892407 0.304567 -0.555007
O21   O     O_R   0.485280 0.746620 0.388440 -0.526638
O22   O     O_R   0.720550 0.696220 0.420010 -0.456550
O23   O     O_3   0.500010 0.499990 0.499980 -0.273827
O24   O     O_R   0.163320 0.092900 0.874450 -0.506388
O25   O     O_R   0.934650 0.822080 0.882840 -0.490988
O26   O     O_R   0.915520 0.604140 0.893670 -0.522567
O27   O     O_R   0.191760 0.638110 0.923230 -0.502844

loop_
_geom_bond_atom_site_label_1
_geom_bond_atom_site_label_2
_ccdc_geom_bond_type
C19   H6    S    
C8    C13   S    
C16   C42   S    
C19   C20   A    
C33   O22   A    
C25   C43   S    
C14   C33   S    
C7    C8    A    
C4    O15   A    
C7    C11   S    
C39   H14   S    
C12   C23   A    
C31   O10   A    
Cr1   O4    S    
C18   C24   A    
C20   H16   S    
C36   C37   A    
C37   C40   S    
Cr6   O2    S    
C38   C39   S    
C4    O14   A    
C4    C41   S    
C38   O20   S    
Cr1   O1    S    
Cr4   O6    S    
Cr5   O26   S    
C13   H12   S    
C35   C36   A    
C2    C44   T    
C2    C27   S    
Cr1   O17   S    
C9    C10   A    
C22   H19   S    
C11   H3    S    
C26   O27   A    
Cr2   O13   S    
C30   O8    A    
C32   O21   A    
C21   C22   S    
C21   H17   S    
C23   H20   S    
C27   O24   A    
C27   O3    A    
C9    O20   S    
Cr6   O11   S    
C31   O5    A    
C1    O13   A    
C15   C20   A    
C39   H11   S    
C40   H8    S    
C29   O6    A    
C16   O1    A    
Cr2   O19   S    
C40   H2    S    
C17   C21   S    
Cr5   O7    S    
Cr3   O15   S    
Cr4   O5    S    
C9    C14   A    
C21   H7    S    
C12   C41   A    
Cr4   O25   S    
C33   O17   A    
Cr5   O27   S    
C25   O26   A    
C1    C44   S    
C29   O7    A    
C17   C18   A    
Cr3   O21   S    
Cr1   O18   S    
C22   H18   S    
C11   H4    S    
C38   H10   S    
C25   O25   A    
C23   C35   A    
C34   C40   S    
C42   C43   T    
Cr1   O23   S    
C34   H22   S    
C12   H1    S    
Cr6   O10   S    
C5    C30   S    
C10   H15   S    
C15   C17   A    
C8    C14   A    
Cr4   O24   S    
C18   C22   S    
C1    O4    A    
C24   C28   S    
C32   O12   A    
C3    C5    T    
C6    C10   A    
Cr5   O8    S    
C15   C31   S    
C6    C7    A    
C39   H13   S    
Cr4   O11   S    
Cr3   O16   S    
Cr5   O11   S    
C30   O9    A    
C19   C24   A    
Cr6   O3    S    
C11   C13   S    
C26   O2    A    
Cr3   O22   S    
Cr2   O12   S    
C28   O19   A    
C34   C36   S    
C37   C41   A    
C3    C32   S    
Cr2   O23   S    
C38   H9    S    
C26   C35   S    
C6    C29   S    
C16   O16   A    
Cr3   O23   S    
C28   O18   A    
Cr2   O14   S    
C34   H21   S    
Cr6   O9    S    
C13   H5    S    
