data_mof_unit_66373.cif
_audit_creation_date              2012-12-10T19:18:03-0500
_audit_creation_method            fapswitch 2.2
_symmetry_space_group_name_H-M    P1
_symmetry_Int_Tables_number       1
_space_group_crystal_system       triclinic
_cell_length_a                    24.493614
_cell_length_b                    24.493612
_cell_length_c                    22.399724
_cell_angle_alpha                 90.000013
_cell_angle_beta                  90.00002
_cell_angle_gamma                 89.999886
_cell_volume                      13438.4249599

loop_
_atom_site_label
_atom_site_type_symbol
_atom_type_description
_atom_site_fract_x
_atom_site_fract_y
_atom_site_fract_z
_atom_type_partial_charge
C1    C     C_R   0.228294 0.271705 0.250000 -0.004861
C2    C     C_R   0.228933 0.728932 0.249999 -0.008847
C3    C     C_R   0.176447 0.660799 0.303176 0.014092
C4    C     C_R   0.366181 0.203331 0.740986 0.013867
C5    C     C_R   0.638465 0.799977 0.276735 0.017322
C6    C     C_R   0.172074 0.663938 0.695834 0.013514
C7    C     C_R   0.823551 0.339203 0.303176 0.014093
C8    C     C_R   0.366177 0.796671 0.259041 0.013872
C9    C     C_R   0.638463 0.200024 0.723269 0.017323
C10   C     C_R   0.172066 0.336055 0.304167 0.013511
C11   C     C_R   0.823553 0.660800 0.696823 0.014091
C12   C     C_R   0.633822 0.203330 0.259037 0.013872
C13   C     C_R   0.728893 0.771109 0.749999 -0.008816
C14   C     C_R   0.361540 0.799973 0.723277 0.017321
C15   C     C_R   0.827933 0.663944 0.304166 0.013512
C16   C     C_R   0.176450 0.339203 0.696824 0.014092
C17   C     C_R   0.147453 0.352547 0.250000 0.037303
C18   C     C_R   0.852126 0.647875 0.750000 0.033406
C19   C     C_R   0.352154 0.852153 0.250000 0.034284
C20   C     C_R   0.648239 0.148240 0.750000 0.027132
C21   C     C_R   0.852547 0.647453 0.250000 0.037302
C22   C     C_R   0.147875 0.352126 0.750000 0.033404
C23   C     C_R   0.647846 0.147846 0.250000 0.034286
C24   C     C_R   0.270499 0.229501 0.250000 -0.006194
C25   C     C_R   0.351760 0.851761 0.750000 0.027135
C26   C     C_R   0.852546 0.352546 0.750000 0.037298
C27   C     C_R   0.147874 0.647874 0.250000 0.033407
C28   C     C_R   0.647846 0.852154 0.750000 0.034292
C29   C     C_R   0.351760 0.148240 0.250000 0.027131
C30   C     C_R   0.147454 0.647454 0.750000 0.037296
C31   C     C_R   0.852126 0.352126 0.250000 0.033405
C32   C     C_R   0.352154 0.147846 0.750000 0.034296
C33   C     C_R   0.648240 0.851760 0.250000 0.027131
C34   C     C_R   0.228295 0.728295 0.750000 -0.004862
C35   C     C_R   0.771067 0.271067 0.250000 -0.008847
C36   C     C_R   0.271109 0.228893 0.750001 -0.008817
C37   C     C_R   0.729501 0.770499 0.250000 -0.006194
C38   C     C_1   0.000000 0.500000 0.473297 -0.007872
C39   C     C_1   0.000000 0.500000 0.526703 -0.007871
C40   C     C_1   0.500000 0.000000 0.473297 -0.012973
C41   C     C_R   0.771068 0.728934 0.749999 -0.008851
C42   C     C_1   0.500000 0.000000 0.526703 -0.012972
C43   C     C_1   0.500000 0.000000 0.973297 -0.012973
C44   C     C_1   0.500000 0.000000 0.026703 -0.012973
C45   C     C_1   0.000000 0.500000 0.973297 -0.007872
C46   C     C_1   0.000000 0.500000 0.026703 -0.007871
C47   C     C_R   0.000000 0.500000 0.090049 0.511056
C48   C     C_R   0.000000 0.500000 0.909951 0.511055
C49   C     C_R   0.500000 0.000000 0.090049 0.507957
C50   C     C_R   0.500000 0.000000 0.909951 0.507957
C51   C     C_R   0.500000 0.000000 0.590049 0.507957
C52   C     C_R   0.271108 0.771107 0.249999 -0.008813
C53   C     C_R   0.500000 0.000000 0.409950 0.507957
C54   C     C_R   0.000000 0.500000 0.590049 0.511056
C55   C     C_R   1.000000 0.500000 0.409951 0.511056
C56   C     C_R   0.105288 0.605288 0.250000 0.512136
C57   C     C_R   0.894861 0.394861 0.750000 0.513724
C58   C     C_R   0.605424 0.894576 0.250000 0.510143
C59   C     C_R   0.394724 0.105276 0.750000 0.512798
C60   C     C_R   0.894712 0.394712 0.250000 0.512135
C61   C     C_R   0.105139 0.605139 0.750000 0.513723
C62   C     C_R   0.394576 0.105424 0.250000 0.510143
C63   C     C_R   0.729501 0.229501 0.750000 -0.006193
C64   C     C_R   0.605276 0.894724 0.750000 0.512796
C65   C     C_R   0.894712 0.605288 0.750000 0.512135
C66   C     C_R   0.105139 0.394861 0.250000 0.513726
C67   C     C_R   0.394576 0.894576 0.750000 0.510146
C68   C     C_R   0.605276 0.105276 0.250000 0.512793
C69   C     C_R   0.105288 0.394712 0.750000 0.512134
C70   C     C_R   0.894861 0.605139 0.250000 0.513725
C71   C     C_R   0.605423 0.105424 0.750000 0.510145
C72   C     C_R   0.394724 0.894724 0.250000 0.512792
C73   C     C_R   0.203852 0.287501 0.196356 -0.115533
C74   C     C_R   0.771705 0.728295 0.250000 -0.004861
C75   C     C_R   0.799352 0.717065 0.802481 -0.115532
C76   C     C_R   0.256839 0.825540 0.240321 -0.115374
C77   C     C_R   0.739629 0.179195 0.776837 -0.117143
C78   C     C_R   0.796149 0.712500 0.196356 -0.115533
C79   C     C_R   0.200648 0.282935 0.802481 -0.115533
C80   C     C_R   0.743161 0.174458 0.240326 -0.115374
C81   C     C_R   0.260368 0.820808 0.776829 -0.117142
C82   C     C_R   0.796153 0.287496 0.803643 -0.115534
C83   C     C_R   0.200649 0.717063 0.197518 -0.115534
C84   C     C_R   0.743163 0.825545 0.759658 -0.115372
C85   C     C_R   0.228935 0.271068 0.750001 -0.008852
C86   C     C_R   0.260372 0.179197 0.223159 -0.117143
C87   C     C_R   0.203844 0.712508 0.803642 -0.115534
C88   C     C_R   0.799353 0.282934 0.197519 -0.115534
C89   C     C_R   0.256837 0.174456 0.759652 -0.115371
C90   C     C_R   0.739628 0.820803 0.223158 -0.117143
C91   C     C_R   0.674457 0.756838 0.740340 -0.115372
C92   C     C_R   0.320803 0.239628 0.276842 -0.117143
C93   C     C_R   0.787495 0.296153 0.696357 -0.115534
C94   C     C_R   0.217064 0.700648 0.302481 -0.115534
C95   C     C_R   0.325546 0.243164 0.740350 -0.115371
C96   C     C_R   0.728892 0.228892 0.250000 -0.008812
C97   C     C_R   0.679197 0.760372 0.276842 -0.117143
C98   C     C_R   0.212508 0.703844 0.696357 -0.115534
C99   C     C_R   0.782934 0.299353 0.302481 -0.115534
C100  C     C_R   0.325541 0.756839 0.259677 -0.115375
C101  C     C_R   0.679195 0.239630 0.723163 -0.117142
C102  C     C_R   0.212499 0.296148 0.303644 -0.115533
C103  C     C_R   0.782937 0.700650 0.697518 -0.115533
C104  C     C_R   0.674458 0.243161 0.259674 -0.115374
C105  C     C_R   0.320808 0.760368 0.723170 -0.117142
C106  C     C_R   0.787500 0.703851 0.303644 -0.115533
C107  C     C_R   0.270499 0.770499 0.750000 -0.006194
C108  C     C_R   0.217067 0.299354 0.697520 -0.115532
C109  C     C_R   0.163945 0.327934 0.195833 0.013511
C110  C     C_R   0.839201 0.676448 0.803176 0.014092
C111  C     C_R   0.296671 0.866176 0.240958 0.013873
C112  C     C_R   0.700024 0.138463 0.776731 0.017322
C113  C     C_R   0.836056 0.672067 0.195833 0.013512
C114  C     C_R   0.160798 0.323551 0.803176 0.014092
C115  C     C_R   0.703330 0.133822 0.240963 0.013872
C116  C     C_R   0.299973 0.861540 0.776723 0.017322
C117  C     C_R   0.836059 0.327929 0.804166 0.013513
C118  C     C_R   0.771705 0.271705 0.750000 -0.004860
C119  C     C_R   0.160800 0.676446 0.196823 0.014092
C120  C     C_R   0.703331 0.866180 0.759022 0.013869
C121  C     C_R   0.299977 0.138465 0.223265 0.017322
C122  C     C_R   0.163938 0.672075 0.804166 0.013513
C123  C     C_R   0.839203 0.323551 0.196824 0.014093
C124  C     C_R   0.296669 0.133821 0.759015 0.013867
C125  C     C_R   0.700023 0.861535 0.223264 0.017323
C126  C     C_R   0.633822 0.796670 0.740977 0.013869
C127  C     C_R   0.361535 0.200023 0.276735 0.017323
C128  C     C_R   0.827929 0.336059 0.695834 0.013513
Cl1   Cl    Cl    0.137985 0.348107 0.125764 -0.054190
Cl2   Cl    Cl    0.130493 0.661383 0.127302 -0.050659
Cl3   Cl    Cl    0.725781 0.934182 0.766646 -0.052225
Cl4   Cl    Cl    0.280560 0.075915 0.190468 -0.041478
Cl5   Cl    Cl    0.137969 0.651913 0.874234 -0.054182
Cl6   Cl    Cl    0.869512 0.338610 0.127304 -0.050657
Cl7   Cl    Cl    0.274218 0.065818 0.766629 -0.052229
Cl8   Cl    Cl    0.719439 0.924084 0.190466 -0.041478
Cl9   Cl    Cl    0.565820 0.774218 0.733353 -0.052224
Cl10  Cl    Cl    0.424084 0.219439 0.309533 -0.041478
Cl11  Cl    Cl    0.848095 0.362025 0.625765 -0.054185
Cl12  Cl    Cl    0.869508 0.661385 0.872697 -0.050659
Cl13  Cl    Cl    0.161385 0.630492 0.372696 -0.050659
Cl14  Cl    Cl    0.434184 0.225782 0.733372 -0.052230
Cl15  Cl    Cl    0.575916 0.780561 0.309534 -0.041478
Cl16  Cl    Cl    0.151912 0.637969 0.625766 -0.054182
Cl17  Cl    Cl    0.838610 0.369512 0.372696 -0.050657
Cl18  Cl    Cl    0.434176 0.774219 0.266691 -0.052213
Cl19  Cl    Cl    0.575911 0.219443 0.690478 -0.041478
Cl20  Cl    Cl    0.151893 0.362015 0.374236 -0.054190
Cl21  Cl    Cl    0.838616 0.630492 0.627302 -0.050659
Cl22  Cl    Cl    0.565822 0.225781 0.266678 -0.052217
Cl23  Cl    Cl    0.274219 0.934175 0.233309 -0.052213
Cl24  Cl    Cl    0.424095 0.780552 0.690497 -0.041480
Cl25  Cl    Cl    0.848105 0.637983 0.374235 -0.054189
Cl26  Cl    Cl    0.161391 0.369512 0.627304 -0.050657
Cl27  Cl    Cl    0.719442 0.075912 0.809523 -0.041478
Cl28  Cl    Cl    0.862017 0.651895 0.125765 -0.054189
Cl29  Cl    Cl    0.130488 0.338610 0.872696 -0.050657
Cl30  Cl    Cl    0.725781 0.065822 0.233322 -0.052216
Cl31  Cl    Cl    0.280552 0.924095 0.809503 -0.041480
Cl32  Cl    Cl    0.862025 0.348095 0.874235 -0.054185
H1    H     H_    0.216653 0.269044 0.154666 0.125915
H2    H     H_    0.210433 0.738766 0.156726 0.128944
H3    H     H_    0.785580 0.836499 0.766504 0.129041
H4    H     H_    0.220964 0.171259 0.202905 0.126215
H5    H     H_    0.216639 0.730971 0.845331 0.125916
H6    H     H_    0.789571 0.261229 0.156728 0.128944
H7    H     H_    0.214420 0.163502 0.766491 0.129042
H8    H     H_    0.779035 0.828740 0.202904 0.126214
H9    H     H_    0.663504 0.714421 0.733495 0.129041
H10   H     H_    0.328740 0.279035 0.297095 0.126215
H11   H     H_    0.769035 0.283355 0.654668 0.125914
H12   H     H_    0.789568 0.738769 0.843272 0.128947
H13   H     H_    0.238768 0.710432 0.343272 0.128944
H14   H     H_    0.336500 0.285581 0.733510 0.129042
H15   H     H_    0.671260 0.720965 0.297096 0.126214
H16   H     H_    0.230971 0.716639 0.654669 0.125916
H17   H     H_    0.761229 0.289571 0.343272 0.128944
H18   H     H_    0.336493 0.714424 0.266538 0.129038
H19   H     H_    0.671256 0.279038 0.702913 0.126214
H20   H     H_    0.230956 0.283347 0.345334 0.125915
H21   H     H_    0.761233 0.710434 0.656726 0.128947
H22   H     H_    0.663505 0.285577 0.266531 0.129037
H23   H     H_    0.214424 0.836492 0.233460 0.129038
H24   H     H_    0.328748 0.720957 0.702926 0.126215
H25   H     H_    0.769043 0.716651 0.345333 0.125915
H26   H     H_    0.238773 0.289571 0.656729 0.128948
H27   H     H_    0.779038 0.171256 0.797088 0.126214
H28   H     H_    0.783349 0.730957 0.154667 0.125915
H29   H     H_    0.210430 0.261229 0.843272 0.128948
H30   H     H_    0.785577 0.163505 0.233469 0.129037
H31   H     H_    0.220957 0.828749 0.797073 0.126215
H32   H     H_    0.783355 0.269036 0.845333 0.125915
O1    O     O_3   0.000000 0.500000 0.250000 -0.455864
O2    O     O_R   1.000000 0.454540 0.882020 -0.529792
O3    O     O_R   0.545460 0.000000 0.117980 -0.532761
O4    O     O_R   0.454540 0.000000 0.882020 -0.532762
O5    O     O_R   0.500000 0.954540 0.617980 -0.532762
O6    O     O_R   0.500000 0.045460 0.382020 -0.532761
O7    O     O_R   0.954540 0.500000 0.617980 -0.529793
O8    O     O_R   0.045460 0.500000 0.382020 -0.529792
O9    O     O_R   0.500000 0.045460 0.617980 -0.532762
O10   O     O_R   0.500000 0.954540 0.382020 -0.532761
O11   O     O_R   0.045460 0.500000 0.617980 -0.529793
O12   O     O_3   0.000000 0.500000 0.750000 -0.455863
O13   O     O_R   0.954540 0.500000 0.382020 -0.529792
O14   O     O_R   0.063990 0.609470 0.215390 -0.530374
O15   O     O_R   0.936010 0.390530 0.784610 -0.530913
O16   O     O_R   0.609470 0.936010 0.215390 -0.528843
O17   O     O_R   0.390530 0.063990 0.784610 -0.529575
O18   O     O_R   0.936010 0.390530 0.215390 -0.530373
O19   O     O_R   0.063990 0.609470 0.784610 -0.530913
O20   O     O_R   0.390530 0.063990 0.215390 -0.528842
O21   O     O_R   0.609470 0.936010 0.784610 -0.529575
O22   O     O_R   0.936010 0.609470 0.784610 -0.530373
O23   O     O_3   0.500000 0.000000 0.250000 -0.454500
O24   O     O_R   0.063990 0.390530 0.215390 -0.530914
O25   O     O_R   0.390530 0.936010 0.784610 -0.528842
O26   O     O_R   0.609470 0.063990 0.215390 -0.529575
O27   O     O_R   0.063990 0.390530 0.784610 -0.530373
O28   O     O_R   0.936010 0.609470 0.215390 -0.530914
O29   O     O_R   0.609470 0.063990 0.784610 -0.528842
O30   O     O_R   0.390530 0.936010 0.215390 -0.529575
O31   O     O_R   0.563990 0.109470 0.715390 -0.528842
O32   O     O_R   0.436010 0.890530 0.284610 -0.529575
O33   O     O_R   0.109470 0.436010 0.715390 -0.530373
O34   O     O_3   0.500000 0.000000 0.750000 -0.454500
O35   O     O_R   0.890530 0.563990 0.284610 -0.530913
O36   O     O_R   0.436010 0.890530 0.715390 -0.528843
O37   O     O_R   0.563990 0.109470 0.284610 -0.529575
O38   O     O_R   0.890530 0.563990 0.715390 -0.530373
O39   O     O_R   0.109470 0.436010 0.284610 -0.530914
O40   O     O_R   0.436010 0.109470 0.284610 -0.528842
O41   O     O_R   0.563990 0.890530 0.715390 -0.529575
O42   O     O_R   0.890530 0.436010 0.284610 -0.530373
O43   O     O_R   0.109470 0.563990 0.715390 -0.530913
O44   O     O_R   0.563990 0.890530 0.284610 -0.528842
O45   O     O_R   1.000000 0.454540 0.117980 -0.529792
O46   O     O_R   0.436010 0.109470 0.715390 -0.529576
O47   O     O_R   0.109470 0.563990 0.284610 -0.530373
O48   O     O_R   0.890530 0.436010 0.715390 -0.530913
O49   O     O_R   1.000000 0.545460 0.882020 -0.529793
O50   O     O_R   0.454540 0.000000 0.117980 -0.532761
O51   O     O_R   0.545460 0.000000 0.882020 -0.532761
O52   O     O_R   1.000000 0.545460 0.117980 -0.529792
Zn1   Zn    Zn3+2 0.064970 0.500000 0.299470 0.964762
Zn2   Zn    Zn3+2 0.435030 0.000000 0.200530 0.963114
Zn3   Zn    Zn3+2 0.000000 0.435030 0.799470 0.964761
Zn4   Zn    Zn3+2 1.000000 0.564970 0.200530 0.964761
Zn5   Zn    Zn3+2 0.435030 1.000000 0.799470 0.963115
Zn6   Zn    Zn3+2 0.564970 0.000000 0.200530 0.963114
Zn7   Zn    Zn3+2 0.000000 0.564970 0.799470 0.964761
Zn8   Zn    Zn3+2 1.000000 0.435030 0.200530 0.964762
Zn9   Zn    Zn3+2 0.935030 0.500000 0.700530 0.964761
Zn10  Zn    Zn3+2 0.500000 0.935030 0.299470 0.963114
Zn11  Zn    Zn3+2 0.500000 0.064970 0.700530 0.963115
Zn12  Zn    Zn3+2 0.935030 0.500000 0.299470 0.964762
Zn13  Zn    Zn3+2 0.064970 0.500000 0.700530 0.964761
Zn14  Zn    Zn3+2 0.500000 0.064970 0.299470 0.963114
Zn15  Zn    Zn3+2 0.500000 0.935030 0.700530 0.963115
Zn16  Zn    Zn3+2 0.564970 1.000000 0.799470 0.963114

loop_
_geom_bond_atom_site_label_1
_geom_bond_atom_site_label_2
_ccdc_geom_bond_type
C44   C49   S    
C23   C68   S    
O34   Zn5   S    
C104  H22   S    
C37   C74   S    
C81   C107  A    
C11   C18   A    
C33   C58   S    
C97   H15   S    
C91   C126  A    
O42   Zn12  S    
C120  Cl3   S    
C102  H20   S    
C32   C124  A    
C56   O47   A    
C68   O26   A    
C3    Cl13  S    
C26   C117  A    
O6    Zn14  S    
C63   C101  A    
O38   Zn9   S    
C100  H18   S    
C31   C123  A    
C13   C41   S    
C49   O50   A    
C2    C83   A    
O36   Zn15  S    
O32   Zn10  S    
O41   Zn15  S    
O11   Zn13  S    
C20   C112  A    
C45   C46   T    
O19   Zn7   S    
C18   C65   S    
C105  C107  A    
C13   C84   A    
C17   C66   S    
O50   Zn2   S    
O46   Zn11  S    
C7    C99   A    
C37   C90   A    
C71   O29   A    
C53   O6    A    
C6    C98   A    
C15   C106  A    
C108  H26   S    
C95   H14   S    
C10   Cl20  S    
C99   H17   S    
C58   O44   A    
C4    Cl14  S    
C47   O52   A    
C27   C119  A    
C5    Cl15  S    
C39   C54   S    
C74   C106  A    
C10   C17   A    
C54   O11   A    
C72   O32   A    
O3    Zn6   S    
C119  Cl2   S    
C61   O19   A    
O1    Zn8   S    
C83   C119  A    
C89   H7    S    
C73   H1    S    
O43   Zn13  S    
C51   O5    A    
C47   O45   A    
O12   Zn7   S    
C50   O4    A    
C11   Cl21  S    
C14   C105  A    
C81   H31   S    
C38   C55   S    
C30   C122  A    
C92   H10   S    
C112  Cl27  S    
C29   C121  A    
O4    Zn5   S    
O23   Zn6   S    
O17   Zn5   S    
C20   C71   S    
C82   C117  A    
C127  Cl10  S    
O49   Zn7   S    
C80   C96   A    
C76   H23   S    
C22   C69   S    
C84   C120  A    
C42   C51   S    
O51   Zn16  S    
C82   H32   S    
O37   Zn14  S    
C40   C42   T    
O28   Zn4   S    
C105  H24   S    
O40   Zn14  S    
C13   C91   A    
C117  Cl32  S    
O26   Zn6   S    
C19   C72   S    
O39   Zn1   S    
O25   Zn5   S    
O5    Zn15  S    
C88   C123  A    
C35   C99   A    
C24   C92   A    
C37   C97   A    
C28   C126  A    
C3    C27   A    
C2    C94   A    
C38   C39   T    
C55   O13   A    
C8    C19   A    
C71   O31   A    
C91   H9    S    
C123  Cl6   S    
C79   H29   S    
O12   Zn3   S    
O1    Zn12  S    
C12   Cl22  S    
C64   O21   A    
C10   C102  A    
C59   O46   A    
C7    C31   A    
C70   O35   A    
C29   C62   S    
C116  Cl31  S    
O20   Zn2   S    
C50   O51   A    
C28   C120  A    
C25   C116  A    
O34   Zn16  S    
C51   O9    A    
C63   C118  S    
C16   C108  A    
C27   C56   S    
O7    Zn9   S    
O16   Zn6   S    
C115  Cl30  S    
C35   C96   S    
C48   O2    A    
C66   O39   A    
C9    Cl19  S    
O23   Zn10  S    
C70   O28   A    
C54   O7    A    
C41   C103  A    
C5    C33   A    
C25   C67   S    
C31   C60   S    
O8    Zn1   S    
C77   C112  A    
O14   Zn4   S    
C43   C44   T    
C122  Cl5   S    
C101  H19   S    
O31   Zn11  S    
C41   C75   A    
C4    C95   A    
C98   H16   S    
C35   C88   A    
C78   H28   S    
C9    C20   A    
C69   O33   A    
C55   O8    A    
C12   C23   A    
C80   C115  A    
C58   O16   A    
O24   Zn8   S    
C126  Cl9   S    
C72   O30   A    
C86   C121  A    
C33   C125  A    
O48   Zn9   S    
O1    Zn4   S    
C60   O42   A    
O45   Zn8   S    
C12   C104  A    
C26   C128  A    
O13   Zn12  S    
C4    C32   A    
C84   H3    S    
C2    C52   S    
O23   Zn2   S    
C34   C107  S    
C65   O38   A    
C125  Cl8   S    
C21   C113  A    
O34   Zn11  S    
C6    C30   A    
C83   H2    S    
C5    C97   A    
C111  Cl23  S    
C114  Cl29  S    
C62   O40   A    
O2    Zn3   S    
C29   C127  A    
O21   Zn16  S    
C109  Cl1   S    
C77   H27   S    
O27   Zn3   S    
C75   H12   S    
C30   C61   S    
C78   C113  A    
C86   H4    S    
C93   C118  A    
C82   C118  A    
C121  Cl4   S    
C6    Cl16  S    
O29   Zn16  S    
C92   C127  A    
C28   C64   S    
C79   C85   A    
C67   O25   A    
C68   O37   A    
O23   Zn14  S    
C63   C77   A    
C45   C48   S    
C46   C47   S    
C93   H11   S    
C75   C110  A    
C16   C22   A    
C124  Cl7   S    
C90   H8    S    
C69   O27   A    
C80   H30   S    
C128  Cl11  S    
C8    Cl18  S    
C18   C110  A    
C106  H25   S    
C48   O49   A    
C52   C76   A    
O15   Zn3   S    
O34   Zn15  S    
C87   C122  A    
O18   Zn8   S    
C43   C50   S    
C73   C109  A    
O35   Zn12  S    
C36   C89   A    
C89   C124  A    
C19   C111  A    
C36   C85   S    
C49   O3    A    
C57   O15   A    
C88   H6    S    
C53   O10   A    
C32   C59   S    
C21   C70   S    
O47   Zn1   S    
C1    C73   A    
C96   C104  A    
C8    C100  A    
C93   C128  A    
O33   Zn13  S    
C65   O22   A    
O9    Zn11  S    
C16   Cl26  S    
O12   Zn9   S    
O30   Zn2   S    
C36   C95   A    
O10   Zn10  S    
C15   C21   A    
C17   C109  A    
C67   O36   A    
C76   C111  A    
C61   O43   A    
C81   C116  A    
C110  Cl12  S    
C85   C108  A    
C34   C98   A    
C90   C125  A    
C52   C100  A    
C3    C94   A    
O1    Zn1   S    
C34   C87   A    
C60   O18   A    
C14   C25   A    
C66   O24   A    
C26   C57   S    
C15   Cl25  S    
C57   O48   A    
C87   H5    S    
C94   H13   S    
C23   C115  A    
O52   Zn4   S    
C22   C114  A    
C56   O14   A    
C1    C24   S    
C9    C101  A    
C40   C53   S    
C74   C78   A    
C79   C114  A    
C14   Cl24  S    
O22   Zn7   S    
C62   O20   A    
C11   C103  A    
C113  Cl28  S    
O12   Zn13  S    
O44   Zn10  S    
C24   C86   A    
C1    C102  A    
C59   O17   A    
C64   O41   A    
C7    Cl17  S    
C103  H21   S    
