data_mof_unit_59198.cif
_audit_creation_date              2012-12-10T16:50:17-0500
_audit_creation_method            fapswitch 2.2
_symmetry_space_group_name_H-M    P1
_symmetry_Int_Tables_number       1
_space_group_crystal_system       triclinic
_cell_length_a                    23.490138
_cell_length_b                    8.679916
_cell_length_c                    7.43802
_cell_angle_alpha                 102.977934
_cell_angle_beta                  94.342906
_cell_angle_gamma                 92.383463
_cell_volume                      1470.89304683

loop_
_atom_site_label
_atom_site_type_symbol
_atom_type_description
_atom_site_fract_x
_atom_site_fract_y
_atom_site_fract_z
_atom_type_partial_charge
C1    C     C_R   0.498264 0.199646 0.453203 0.886833
C2    C     C_R   0.697372 0.540817 0.348755 -0.198619
C3    C     C_R   0.243500 0.459477 0.658193 -0.083424
C4    C     C_R   0.756485 0.540546 0.341681 -0.083392
C5    C     C_R   0.209531 0.510559 0.522802 0.333166
C6    C     C_R   0.790473 0.489642 0.477159 0.333220
C7    C     C_2   0.497400 0.031749 0.426818 -0.355739
C8    C     C_2   0.502599 0.968251 0.573181 -0.355752
C9    C     C_R   0.391045 0.503210 0.502534 0.795690
C10   C     C_R   0.608956 0.496807 0.497468 0.795694
C11   C     C_R   0.882104 0.635792 0.515865 0.537705
C12   C     C_R   0.501735 0.800354 0.546797 0.886821
C13   C     C_R   0.117895 0.364409 0.484146 0.537652
C14   C     C_R   0.877770 0.352606 0.439039 0.539798
C15   C     C_R   0.122230 0.647572 0.560852 0.539834
C16   C     C_R   0.937596 0.352582 0.448666 -0.014837
C17   C     C_R   0.062404 0.647600 0.551303 -0.014826
C18   C     C_R   0.969870 0.498622 0.493701 -0.017412
C19   C     C_R   0.030130 0.501569 0.506290 -0.017428
C20   C     C_R   0.942031 0.641716 0.526570 -0.013062
C21   C     C_R   0.057968 0.358480 0.473455 -0.013043
C22   C     C_R   0.965773 0.210585 0.415998 -0.164816
C23   C     C_R   0.234883 0.563040 0.381486 -0.138739
C24   C     C_R   0.034226 0.789593 0.584044 -0.164811
C25   C     C_R   0.025362 0.213505 0.428351 -0.171555
C26   C     C_R   0.974637 0.786681 0.571727 -0.171575
C27   C     C_1   0.317814 0.625363 0.228020 0.272870
C28   C     C_1   0.682240 0.374997 0.772177 0.272875
C29   C     C_R   0.765142 0.437296 0.618594 -0.138778
C30   C     C_R   0.294031 0.563626 0.373046 -0.063014
C31   C     C_R   0.705995 0.436644 0.627049 -0.062926
C32   C     C_R   0.328559 0.509302 0.508099 -0.083750
C33   C     C_R   0.671444 0.490785 0.491904 -0.083817
C34   C     C_R   0.302613 0.459160 0.651149 -0.198677
Cu1   Cu    Cu3+1 0.506340 0.517380 0.684380 0.977382
Cu2   Cu    Cu3+1 0.493660 0.482620 0.315620 0.977384
H1    H     H_    0.941908 0.096851 0.380910 0.192267
H2    H     H_    0.775948 0.580593 0.231519 0.148894
H3    H     H_    0.492475 0.960058 0.285794 0.184068
H4    H     H_    0.507524 0.039942 0.714206 0.184059
H5    H     H_    0.454823 0.379317 0.948644 0.225456
H6    H     H_    0.545177 0.620683 0.051356 0.225455
H7    H     H_    0.058092 0.903325 0.619176 0.192258
H8    H     H_    0.045740 0.101936 0.401861 0.187500
H9    H     H_    0.954260 0.898253 0.598274 0.187491
H10   H     H_    0.208132 0.603214 0.277853 0.148384
H11   H     H_    0.791912 0.397256 0.722289 0.148297
H12   H     H_    0.328014 0.417248 0.756167 0.165807
H13   H     H_    0.671955 0.582592 0.243664 0.165883
H14   H     H_    0.224020 0.419301 0.768245 0.148968
N1    N     N_R   0.851402 0.492775 0.473907 -0.470297
N2    N     N_R   0.148599 0.507424 0.526004 -0.470269
N3    N     N_2   0.484110 0.456420 0.038520 -0.206837
N4    N     N_2   0.515890 0.543580 0.961480 -0.206835
N5    N     N_1   0.336809 0.675041 0.111971 -0.264315
N6    N     N_1   0.663273 0.325380 0.888314 -0.264400
O1    O     O_R   0.504120 0.286130 0.619770 -0.582987
O2    O     O_2   0.145283 0.228577 0.450052 -0.515597
O3    O     O_2   0.846113 0.213862 0.395645 -0.511054
O4    O     O_2   0.153885 0.786296 0.604161 -0.511127
O5    O     O_R   0.495880 0.713870 0.380230 -0.582982
O6    O     O_R   0.493410 0.256770 0.308360 -0.581392
O7    O     O_R   0.506590 0.743230 0.691640 -0.581398
O8    O     O_R   0.423230 0.514630 0.655730 -0.583830
O9    O     O_R   0.576770 0.485370 0.344270 -0.583835
O10   O     O_R   0.412530 0.485280 0.344320 -0.574497
O11   O     O_R   0.587470 0.514720 0.655680 -0.574496
O12   O     O_2   0.854713 0.771616 0.550031 -0.515571

loop_
_geom_bond_atom_site_label_1
_geom_bond_atom_site_label_2
_ccdc_geom_bond_type
C2    C4    A    
C31   C33   A    
C5    N2    S    
Cu1   O8    S    
C12   O5    A    
C2    H13   S    
C1    O1    A    
C8    C12   S    
C9    O8    A    
C15   O4    S    
C27   N5    T    
C14   N1    A    
C5    C23   A    
Cu1   O11   S    
Cu1   O1    S    
C1    O6    A    
C26   H9    S    
C15   N2    A    
C28   N6    T    
C27   C30   S    
C13   C21   A    
C7    C8    D    
C29   C31   A    
C23   H10   S    
C1    C7    S    
N3    N4    D    
H6    N4    S    
Cu1   N4    S    
C30   C32   A    
C14   O3    S    
H5    N3    S    
C21   C25   A    
Cu2   N3    S    
C20   C26   A    
C24   H7    S    
C29   H11   S    
Cu2   O6    S    
C2    C33   A    
C4    C6    A    
C17   C19   A    
C3    H14   S    
C24   C26   A    
C10   C33   S    
C18   C20   A    
C9    O10   A    
C6    N1    S    
Cu2   O10   S    
C11   C20   A    
C9    C32   S    
C17   C24   A    
C11   N1    A    
Cu2   O5    S    
C13   N2    A    
C23   C30   A    
C6    C29   A    
C34   H12   S    
C11   O12   S    
C25   H8    S    
C16   C18   A    
C18   C19   A    
C10   O9    A    
C15   C17   A    
C12   O7    A    
C7    H3    S    
Cu2   O9    S    
C4    H2    S    
Cu1   O7    S    
C13   O2    S    
C8    H4    S    
C3    C34   A    
C19   C21   A    
C14   C16   A    
C10   O11   A    
C22   H1    S    
C28   C31   S    
Cu1   Cu2   S    
C16   C22   A    
C3    C5    A    
C22   C25   A    
C32   C34   A    
