data_mof_unit_22054.cif
_audit_creation_date              2012-12-10T19:45:44-0500
_audit_creation_method            fapswitch 2.2
_symmetry_space_group_name_H-M    P1
_symmetry_Int_Tables_number       1
_space_group_crystal_system       triclinic
_cell_length_a                    10.765793
_cell_length_b                    14.725772
_cell_length_c                    14.507533
_cell_angle_alpha                 65.534272
_cell_angle_beta                  103.308639
_cell_angle_gamma                 102.621407
_cell_volume                      2017.41827386

loop_
_atom_site_label
_atom_site_type_symbol
_atom_type_description
_atom_site_fract_x
_atom_site_fract_y
_atom_site_fract_z
_atom_type_partial_charge
C1    C     C_R   0.474438 0.119162 0.311198 0.804886
C2    C     C_R   0.637709 0.777742 0.978043 -0.172221
C3    C     C_R   0.382746 0.151960 0.122819 0.149557
C4    C     C_R   0.617221 0.848046 0.877186 0.149553
C5    C     C_R   0.499102 0.288083 0.175489 -0.279861
C6    C     C_R   0.500927 0.711913 0.824509 -0.279858
C7    C     C_R   0.476441 0.359891 0.074968 0.048138
C8    C     C_R   0.523538 0.640114 0.925040 0.048131
C9    C     C_R   0.405736 0.325418 0.997529 0.012494
C10   C     C_R   0.594216 0.674592 0.002481 0.012499
C11   C     C_R   0.517945 0.465090 0.050524 0.003756
C12   C     C_R   0.525566 0.880838 0.688802 0.804882
C13   C     C_R   0.482019 0.534917 0.949490 0.003743
C14   C     C_R   0.407157 0.497269 0.875711 -0.286070
C15   C     C_R   0.592774 0.502742 0.124310 -0.286050
C16   C     C_R   0.262921 0.999134 0.502166 0.796816
C17   C     C_R   0.737079 0.000866 0.497834 0.796811
C18   C     C_R   0.375719 0.394381 0.897065 0.470288
C19   C     C_R   0.624205 0.605632 0.102952 0.470280
C20   C     C_R   0.727650 0.292057 0.658472 -0.312902
C21   C     C_R   0.272340 0.707937 0.341537 -0.312909
C22   C     C_R   0.689712 0.208181 0.632192 0.080531
C23   C     C_R   0.870756 0.001520 0.496535 -0.074365
C24   C     C_R   0.310287 0.791818 0.367810 0.080535
C25   C     C_R   0.513407 0.282651 0.512773 0.008068
C26   C     C_R   0.486586 0.717345 0.487234 0.008058
C27   C     C_R   0.547760 0.371238 0.535259 -0.032086
C28   C     C_R   0.452223 0.628752 0.464757 -0.032103
C29   C     C_R   0.657559 0.373831 0.610196 0.158664
C30   C     C_R   0.342423 0.626159 0.389821 0.158658
C31   C     C_R   0.478579 0.456735 0.486405 0.059672
C32   C     C_R   0.521398 0.543252 0.513617 0.059675
C33   C     C_R   0.631397 0.541050 0.589050 -0.251885
C34   C     C_R   0.129244 0.998481 0.503465 -0.074367
C35   C     C_R   0.368574 0.458934 0.410977 -0.251910
C36   C     C_R   0.697491 0.458056 0.636196 -0.199839
C37   C     C_R   0.302483 0.541929 0.363829 -0.199852
C38   C     C_R   0.316840 0.929705 0.835296 -0.122493
C39   C     C_R   0.683151 0.070308 0.164708 -0.122479
C40   C     C_R   0.238310 0.929294 0.744098 -0.134909
C41   C     C_R   0.761690 0.070716 0.255904 -0.134920
C42   C     C_R   0.181485 0.015018 0.675639 0.118970
C43   C     C_R   0.818515 0.984991 0.324358 0.118966
C44   C     C_R   0.205283 0.101286 0.699087 -0.130661
C45   C     C_R   0.909005 0.988042 0.417100 -0.000626
C46   C     C_R   0.794709 0.898724 0.300907 -0.130651
C47   C     C_R   0.285542 0.101763 0.789659 -0.143186
C48   C     C_R   0.714441 0.898249 0.210338 -0.143197
C49   C     C_R   0.340885 0.016010 0.857884 -0.131487
C50   C     C_R   0.659097 0.984003 0.142117 -0.131483
C51   C     C_R   0.961331 0.014438 0.577917 -0.232060
C52   C     C_R   0.038668 0.985564 0.422082 -0.232057
C53   C     C_3   0.377482 0.382355 0.745519 -0.335203
C54   C     C_3   0.622381 0.617675 0.254478 -0.335199
C55   C     C_3   0.675521 0.956272 0.856133 -0.854987
C56   C     C_R   0.090995 0.011961 0.582898 -0.000628
C57   C     C_3   0.324434 0.043736 0.143874 -0.854999
C58   C     C_R   0.452450 0.185655 0.201105 -0.075584
C59   C     C_R   0.547551 0.814345 0.798896 -0.075581
C60   C     C_R   0.362240 0.222268 0.021965 -0.172215
Cu1   Cu    Cu3+1 0.466270 0.918260 0.475690 0.938353
Cu2   Cu    Cu3+1 0.533730 0.081740 0.524310 0.938353
H1    H     H_    0.401875 0.016323 0.928404 0.121940
H2    H     H_    0.431390 0.273942 0.457100 0.126878
H3    H     H_    0.254999 0.854094 0.331597 0.122601
H4    H     H_    0.745003 0.145907 0.668401 0.122600
H5    H     H_    0.812082 0.293301 0.715750 0.147703
H6    H     H_    0.187907 0.706692 0.284260 0.147698
H7    H     H_    0.669271 0.602624 0.613845 0.140097
H8    H     H_    0.330695 0.397357 0.386189 0.140104
H9    H     H_    0.358373 0.862898 0.888794 0.140009
H10   H     H_    0.641616 0.137116 0.111213 0.140006
H11   H     H_    0.219752 0.861698 0.727771 0.113183
H12   H     H_    0.598100 0.983691 0.071600 0.121934
H13   H     H_    0.780253 0.138312 0.272233 0.113179
H14   H     H_    0.161553 0.167795 0.647467 0.127339
H15   H     H_    0.838437 0.832214 0.352523 0.127348
H16   H     H_    0.303792 0.168156 0.807575 0.152486
H17   H     H_    0.696185 0.831856 0.192419 0.152506
H18   H     H_    0.930121 0.022857 0.639620 0.141528
H19   H     H_    0.069879 0.977145 0.360379 0.141527
H20   H     H_    0.450198 0.689806 0.762665 0.163282
H21   H     H_    0.549904 0.310174 0.237327 0.163274
H22   H     H_    0.398608 0.464656 0.701425 0.180161
H23   H     H_    0.307968 0.196336 0.962606 0.176678
H24   H     H_    0.321766 0.348634 0.690131 0.192689
H25   H     H_    0.468589 0.348444 0.778817 0.164859
H26   H     H_    0.678079 0.651396 0.309871 0.192694
H27   H     H_    0.601238 0.535374 0.298573 0.180171
H28   H     H_    0.531281 0.651595 0.221155 0.164857
H29   H     H_    0.598881 0.005558 0.824947 0.254020
H30   H     H_    0.729854 0.966992 0.926745 0.216926
H31   H     H_    0.744269 0.980123 0.801250 0.229497
H32   H     H_    0.401070 0.994447 0.175045 0.254009
H33   H     H_    0.255703 0.019887 0.198769 0.229497
H34   H     H_    0.691960 0.803678 0.037404 0.176670
H35   H     H_    0.270080 0.033020 0.073266 0.216930
H36   H     H_    0.367957 0.545136 0.800198 0.155548
H37   H     H_    0.631937 0.454882 0.199837 0.155540
H38   H     H_    0.781462 0.460032 0.693704 0.149430
H39   H     H_    0.218510 0.539952 0.306323 0.149431
H40   H     H_    0.568605 0.726055 0.542905 0.126876
N1    N     N_R   0.584450 0.204570 0.560790 -0.173842
N2    N     N_R   0.415550 0.795430 0.439210 -0.173839
O1    O     O_R   0.455540 0.022090 0.338120 -0.569654
O2    O     O_3   0.697440 0.638672 0.178138 -0.596629
O3    O     O_R   0.544460 0.977910 0.661880 -0.569656
O4    O     O_R   0.512510 0.160150 0.379180 -0.592704
O5    O     O_R   0.487490 0.839850 0.620820 -0.592710
O6    O     O_R   0.291160 0.930970 0.479480 -0.589355
O7    O     O_R   0.708840 0.069030 0.520520 -0.589359
O8    O     O_R   0.348130 0.069020 0.520540 -0.574394
O9    O     O_R   0.651870 0.930980 0.479460 -0.574393
O10   O     O_3   0.302457 0.361346 0.821884 -0.596622

loop_
_geom_bond_atom_site_label_1
_geom_bond_atom_site_label_2
_ccdc_geom_bond_type
C16   O6    A    
C37   H39   S    
C34   C56   A    
C8    C13   A    
C23   C45   A    
C27   C29   A    
C14   C18   A    
C20   H5    S    
C55   H31   S    
Cu1   O5    S    
C18   O10   S    
C17   O9    A    
C39   C41   A    
C38   C49   A    
C7    C11   A    
C29   C36   A    
C17   C23   S    
C5    C58   A    
C53   H22   S    
C6    H20   S    
C48   H17   S    
C35   C37   A    
C54   H28   S    
C50   H12   S    
C5    H21   S    
Cu2   O4    S    
C33   C36   A    
C40   H11   S    
C51   C56   A    
C44   H14   S    
C51   H18   S    
C22   H4    S    
C55   H29   S    
C26   N2    A    
C15   C19   A    
C12   C59   S    
C11   C15   A    
Cu2   O7    S    
C35   H8    S    
C39   H10   S    
C53   H24   S    
Cu1   O1    S    
C44   C47   A    
C33   H7    S    
C20   C29   A    
C42   C56   S    
C3    C60   A    
C40   C42   A    
C13   C14   A    
C41   C43   A    
Cu1   Cu2   S    
C42   C44   A    
C53   H25   S    
Cu1   O6    S    
C17   O7    A    
C12   O5    A    
C14   H36   S    
C49   H1    S    
C46   C48   A    
C54   O2    S    
C27   C31   A    
C28   C32   A    
Cu1   N2    S    
C54   H27   S    
C47   C49   A    
C5    C7    A    
C25   N1    A    
C6    C8    A    
Cu2   O3    S    
C45   C52   A    
C22   N1    A    
C30   C37   A    
C24   N2    A    
C25   H2    S    
C2    C4    A    
C19   O2    S    
C55   H30   S    
C41   H13   S    
C23   C51   A    
C31   C32   A    
C10   C19   A    
C57   H35   S    
C36   H38   S    
C48   C50   A    
C43   C45   S    
C24   H3    S    
C3    C57   S    
C20   C22   A    
C57   H32   S    
C16   C34   S    
C4    C55   S    
Cu1   O9    S    
C31   C35   A    
C2    C10   A    
C53   O10   S    
C16   O8    A    
Cu2   N1    S    
C7    C9    A    
C38   H9    S    
C34   C52   A    
C6    C59   A    
C15   H37   S    
C12   O3    A    
C60   H23   S    
C25   C27   A    
C46   H15   S    
C21   C30   A    
C26   C28   A    
C9    C60   A    
C32   C33   A    
C54   H26   S    
C2    H34   S    
C21   H6    S    
C1    C58   S    
C26   H40   S    
C38   C40   A    
C11   C13   A    
C4    C59   A    
C28   C30   A    
C52   H19   S    
C43   C46   A    
C1    O4    A    
C3    C58   A    
C9    C18   A    
C39   C50   A    
Cu2   O8    S    
C8    C10   A    
C57   H33   S    
C21   C24   A    
C47   H16   S    
C1    O1    A    
