data_mof_unit_25561.cif
_audit_creation_date              2012-12-10T18:23:59-0500
_audit_creation_method            fapswitch 2.2
_symmetry_space_group_name_H-M    P1
_symmetry_Int_Tables_number       1
_space_group_crystal_system       triclinic
_cell_length_a                    22.366691
_cell_length_b                    22.501673
_cell_length_c                    14.661567
_cell_angle_alpha                 89.774187
_cell_angle_beta                  89.574418
_cell_angle_gamma                 89.997552
_cell_volume                      7378.72938344

loop_
_atom_site_label
_atom_site_type_symbol
_atom_type_description
_atom_site_fract_x
_atom_site_fract_y
_atom_site_fract_z
_atom_type_partial_charge
C1    C     C_R   0.419909 0.919669 0.500335 0.815372
C2    C     C_1   0.663160 0.838343 0.500471 0.120107
C3    C     C_3   0.039525 0.888346 0.485333 -0.970860
C4    C     C_3   0.659006 0.644734 0.381254 0.122130
C5    C     C_3   0.623011 0.586977 0.379754 -0.357675
C6    C     C_3   0.570833 0.590979 0.313609 -0.938850
C7    C     C_3   0.361294 0.353246 0.475226 0.129249
C8    C     C_3   0.384365 0.389113 0.556111 -0.304401
C9    C     C_3   0.452379 0.386810 0.561503 -0.937106
C10   C     C_3   0.356534 0.624857 0.504035 0.105980
C11   C     C_3   0.386194 0.570990 0.459364 -0.356921
C12   C     C_3   0.446595 0.556959 0.502149 -0.942577
C13   C     C_1   0.665171 0.160161 0.498764 0.162778
C14   C     C_3   0.650079 0.361887 0.483661 0.126180
C15   C     C_3   0.644109 0.396754 0.394336 -0.290333
C16   C     C_3   0.579109 0.411750 0.373789 -0.952038
C17   C     C_3   0.601594 0.713511 0.578497 0.088007
C18   C     C_3   0.553175 0.736997 0.643026 -0.334755
C19   C     C_3   0.491201 0.732789 0.600589 -0.884264
C20   C     C_3   0.281354 0.278168 0.272496 0.122838
C21   C     C_3   0.326127 0.289886 0.195355 -0.361550
C22   C     C_3   0.296766 0.322251 0.115716 -0.922978
C23   C     C_3   0.369183 0.732823 0.334458 0.088509
C24   C     C_1   0.339160 0.835680 0.501278 0.132193
C25   C     C_3   0.403882 0.758003 0.253051 -0.324149
C26   C     C_3   0.468043 0.735050 0.251510 -0.950443
C27   C     C_3   0.702508 0.293738 0.715750 0.115944
C28   C     C_3   0.656785 0.298349 0.793292 -0.364658
C29   C     C_3   0.679151 0.338554 0.869391 -0.922253
C30   C     C_3   0.129216 0.233798 0.664825 0.085885
C31   C     C_3   0.095803 0.260810 0.745922 -0.339063
C32   C     C_3   0.029512 0.244750 0.744629 -0.876515
C33   C     C_3   0.834147 0.830676 0.343406 0.116998
C34   C     C_3   0.894077 0.853361 0.306769 -0.358808
C35   C     C_1   0.835526 0.660762 0.502453 0.170668
C36   C     C_3   0.886994 0.912295 0.256155 -0.918040
C37   C     C_3   0.883416 0.210926 0.370128 0.096003
C38   C     C_3   0.927650 0.225694 0.293451 -0.356162
C39   C     C_3   0.989330 0.199697 0.313224 -0.904762
C40   C     C_3   0.216879 0.776382 0.727756 0.120853
C41   C     C_3   0.171310 0.784492 0.804742 -0.372302
C42   C     C_3   0.197339 0.820506 0.882862 -0.932140
C43   C     C_3   0.361492 0.078185 0.005972 0.125205
C44   C     C_3   0.349477 0.144229 0.022053 -0.346605
C45   C     C_3   0.308630 0.170160 0.949110 -0.887200
C46   C     C_1   0.161346 0.336572 0.500210 0.117414
C47   C     C_3   0.639665 0.982635 0.884577 0.077870
C48   C     C_3   0.672502 0.945235 0.813227 -0.307710
C49   C     C_3   0.714743 0.983118 0.754957 -0.911957
C50   C     C_3   0.481106 0.138315 0.866322 0.061280
C51   C     C_3   0.536940 0.150966 0.808315 -0.376716
C52   C     C_3   0.520752 0.176687 0.715290 -0.825467
C53   C     C_3   0.551222 0.874004 0.112470 0.097800
C54   C     C_3   0.584683 0.819269 0.077620 -0.363338
C55   C     C_3   0.630929 0.797855 0.146373 -0.813363
C56   C     C_3   0.862000 0.576101 0.003837 0.121027
C57   C     C_1   0.165855 0.659091 0.497192 0.164064
C58   C     C_3   0.848724 0.642144 0.017391 -0.355231
C59   C     C_3   0.807558 0.666088 0.943265 -0.860973
C60   C     C_3   0.137123 0.476692 0.876794 0.086243
C61   C     C_3   0.152663 0.438344 0.794051 -0.329327
C62   C     C_3   0.189799 0.472692 0.723799 -0.860699
C63   C     C_3   0.983411 0.637520 0.867640 0.060295
C64   C     C_3   0.039141 0.649553 0.809134 -0.365025
C65   C     C_3   0.022896 0.675423 0.716241 -0.843098
C66   C     C_3   0.047268 0.373337 0.117752 0.104315
C67   C     C_3   0.066364 0.308366 0.110911 -0.362759
C68   C     C_1   0.843506 0.331653 0.503456 0.139525
C69   C     C_3   0.113549 0.293161 0.182015 -0.856899
C70   C     C_1   0.500810 0.000784 0.194587 0.287184
C71   C     C_1   0.499994 0.002046 0.805264 0.245963
C72   C     C_1   0.000781 0.500157 0.194609 0.283582
C73   C     C_R   0.580305 0.080155 0.499691 0.813518
C74   C     C_1   0.000365 0.501467 0.805276 0.236881
C75   C     C_3   0.499739 0.061171 0.971604 0.249005
C76   C     C_3   0.503248 0.947582 0.028324 0.319558
C77   C     C_3   0.452297 0.030288 0.033041 0.302451
C78   C     C_3   0.550434 0.977846 0.966777 0.318036
C79   C     C_3   0.001113 0.559666 0.971949 0.248331
C80   C     C_3   0.002919 0.445865 0.028349 0.302087
C81   C     C_3   0.953027 0.529281 0.032667 0.310554
C82   C     C_3   0.050660 0.475658 0.967213 0.323378
C83   C     C_3   0.703094 0.733275 0.557354 0.300896
C84   C     C_R   0.580526 0.920200 0.499939 0.813139
C85   C     C_3   0.275023 0.246496 0.422226 0.248253
C86   C     C_3   0.282331 0.747668 0.418181 0.294515
C87   C     C_3   0.721501 0.250407 0.575989 0.244757
C88   C     C_3   0.217094 0.246806 0.582060 0.301522
C89   C     C_3   0.793498 0.764286 0.447155 0.243557
C90   C     C_3   0.790897 0.237979 0.428250 0.309208
C91   C     C_3   0.225375 0.744512 0.578774 0.229211
C92   C     C_3   0.219353 0.193785 0.515688 0.235168
C93   C     C_3   0.772930 0.799104 0.531902 0.239550
C94   C     C_3   0.780126 0.189496 0.501355 0.217581
C95   C     C_R   0.419317 0.079762 0.500174 0.812313
C96   C     C_3   0.226977 0.798175 0.513436 0.245499
C97   C     C_3   0.724056 0.697645 0.473334 0.240014
C98   C     C_3   0.273261 0.298828 0.489275 0.247210
C99   C     C_3   0.280067 0.693314 0.482824 0.229497
C100  C     C_3   0.731498 0.298198 0.502173 0.238013
C101  C     C_1   0.372894 0.122780 0.500960 -0.155084
C102  C     C_1   0.625586 0.876029 0.499940 -0.177493
C103  C     C_1   0.626150 0.123793 0.498960 -0.167680
C104  C     C_1   0.375959 0.874219 0.501138 -0.166016
C105  C     C_1   0.873951 0.623812 0.501088 -0.154540
C106  C     C_R   0.920644 0.418970 0.500412 0.815653
C107  C     C_1   0.124473 0.374931 0.499824 -0.181679
C108  C     C_1   0.126834 0.622824 0.498462 -0.165254
C109  C     C_1   0.878815 0.371558 0.501833 -0.162014
C110  C     C_3   0.284876 0.256611 0.570100 0.487523
C111  C     C_3   0.728277 0.755818 0.416358 0.381174
C112  C     C_3   0.723567 0.252102 0.425726 0.487147
C113  C     C_3   0.293089 0.734086 0.565579 0.379761
C114  C     C_3   0.768389 0.741252 0.587897 0.502026
C115  C     C_3   0.207151 0.236348 0.434201 0.362300
C116  C     C_3   0.214706 0.757731 0.431424 0.511396
C117  C     C_R   0.080607 0.579760 0.499636 0.814456
C118  C     C_3   0.789032 0.236041 0.578081 0.364904
C119  C     C_3   0.287206 0.203901 0.503112 -0.194798
C120  C     C_3   0.707566 0.791551 0.501516 -0.240089
C121  C     C_3   0.712765 0.203984 0.499491 -0.186741
C122  C     C_3   0.294798 0.788709 0.500168 -0.232999
C123  C     C_3   0.789465 0.706112 0.503387 -0.200161
C124  C     C_3   0.205431 0.289509 0.501386 -0.228079
C125  C     C_3   0.212442 0.703802 0.496616 -0.194398
C126  C     C_3   0.799132 0.284622 0.504057 -0.223207
C127  C     C_3   0.549660 0.032508 0.031247 0.294415
C128  C     C_R   0.080296 0.419969 0.499927 0.813584
C129  C     C_3   0.453292 0.975139 0.970103 0.310598
C130  C     C_3   0.050346 0.530150 0.031841 0.303341
C131  C     C_3   0.953557 0.474207 0.969549 0.309513
C132  C     C_3   0.501826 0.002008 0.092676 -0.288275
C133  C     C_3   0.500448 0.005513 0.906949 -0.333095
C134  C     C_3   0.001912 0.500321 0.092752 -0.290716
C135  C     C_3   0.001299 0.504187 0.906977 -0.335324
C136  C     C_3   0.366200 0.923474 0.007904 0.126681
C137  C     C_3   0.355611 0.856799 0.997039 -0.336828
C138  C     C_3   0.311446 0.833602 0.068648 -0.902734
C139  C     C_R   0.919551 0.579977 0.500190 0.815798
C140  C     C_3   0.619665 0.108886 0.022818 0.105441
C141  C     C_3   0.683917 0.124298 0.048136 -0.341971
C142  C     C_3   0.705549 0.179681 0.997236 -0.901275
C143  C     C_3   0.867937 0.419493 0.005380 0.122718
C144  C     C_3   0.860954 0.352846 0.988444 -0.326291
C145  C     C_3   0.824078 0.323099 0.063789 -0.885962
C146  C     C_3   0.122857 0.604311 0.024314 0.114295
C147  C     C_3   0.187419 0.617142 0.051199 -0.336277
C148  C     C_3   0.211716 0.671983 0.001865 -0.917098
C149  C     C_3   0.141764 0.127883 0.488988 0.118270
C150  C     C_1   0.333762 0.159020 0.502155 0.166511
C151  C     C_3   0.109556 0.073987 0.529586 -0.358230
C152  C     C_3   0.051331 0.061346 0.479566 -0.946653
C153  C     C_3   0.855933 0.848900 0.588428 0.120580
C154  C     C_3   0.862099 0.868511 0.687619 -0.311725
C155  C     C_3   0.926543 0.863269 0.720091 -0.933335
C156  C     C_3   0.840431 0.115359 0.561401 0.108317
C157  C     C_3   0.864974 0.053035 0.543689 -0.361156
C158  C     C_3   0.907851 0.033601 0.618556 -0.931569
C159  C     C_3   0.138871 0.850261 0.541687 0.121288
C160  C     C_3   0.107057 0.887675 0.469548 -0.287778
Cu1   Cu    Cu3+1 0.500000 0.000000 0.590220 0.981174
Cu2   Cu    Cu3+1 0.500000 0.000000 0.409780 1.006153
Cu3   Cu    Cu3+1 0.000000 0.500000 0.590220 0.975184
Cu4   Cu    Cu3+1 1.000000 0.500000 0.409780 1.007716
F1    F     F_    0.707324 0.764936 0.328946 -0.698760
F2    F     F_    0.324573 0.265360 0.640613 -0.653578
F3    F     F_    0.333784 0.723954 0.634467 -0.695848
F4    F     F_    0.690129 0.258479 0.347377 -0.647548
F5    F     F_    0.166497 0.228117 0.364781 -0.709295
F6    F     F_    0.789044 0.732697 0.675633 -0.649358
F7    F     F_    0.824097 0.229980 0.654881 -0.692790
F8    F     F_    0.174481 0.768660 0.362218 -0.637974
H1    H     H_    0.322579 0.946778 0.002941 0.139343
H2    H     H_    0.686550 0.132200 0.122801 0.256100
H3    H     H_    0.392500 0.746946 0.397700 0.120877
H4    H     H_    0.381514 0.744797 0.188801 0.234647
H5    H     H_    0.404465 0.807333 0.257014 0.227376
H6    H     H_    0.491728 0.748108 0.314703 0.252456
H7    H     H_    0.492085 0.754274 0.192057 0.269288
H8    H     H_    0.468395 0.685899 0.245142 0.259608
H9    H     H_    0.709388 0.338717 0.685518 0.173058
H10   H     H_    0.745191 0.277380 0.744975 0.210099
H11   H     H_    0.614077 0.316298 0.766348 0.228202
H12   H     H_    0.648162 0.253354 0.821916 0.226986
H13   H     H_    0.713744 0.086423 0.030757 0.216051
H14   H     H_    0.720913 0.320286 0.898993 0.264743
H15   H     H_    0.644773 0.341217 0.924244 0.263196
H16   H     H_    0.687851 0.384038 0.842729 0.263383
H17   H     H_    0.125835 0.184604 0.669091 0.170947
H18   H     H_    0.107168 0.249486 0.601243 0.121160
H19   H     H_    0.115757 0.244404 0.810516 0.230157
H20   H     H_    0.100403 0.309971 0.743598 0.228988
H21   H     H_    0.008341 0.262167 0.681628 0.261465
H22   H     H_    0.006685 0.264779 0.804599 0.272539
H23   H     H_    0.023716 0.195747 0.747699 0.250207
H24   H     H_    0.704286 0.172334 0.922383 0.253234
H25   H     H_    0.814117 0.866009 0.387040 0.167335
H26   H     H_    0.804008 0.821942 0.284976 0.200832
H27   H     H_    0.925307 0.859678 0.364534 0.224766
H28   H     H_    0.913668 0.819897 0.259653 0.241533
H29   H     H_    0.856132 0.907046 0.197720 0.262197
H30   H     H_    0.931207 0.927151 0.229749 0.262904
H31   H     H_    0.869197 0.946873 0.302944 0.259786
H32   H     H_    0.880071 0.161787 0.376178 0.183062
H33   H     H_    0.901403 0.229334 0.434887 0.124458
H34   H     H_    0.910994 0.207232 0.228170 0.233237
H35   H     H_    0.752309 0.189566 0.016872 0.265347
H36   H     H_    0.931490 0.274746 0.286018 0.228014
H37   H     H_    0.008059 0.219602 0.376093 0.263987
H38   H     H_    0.020080 0.209386 0.255391 0.275061
H39   H     H_    0.986435 0.150715 0.321952 0.254283
H40   H     H_    0.229317 0.821183 0.700955 0.167471
H41   H     H_    0.257292 0.754228 0.755669 0.206979
H42   H     H_    0.131101 0.807564 0.777968 0.222322
H43   H     H_    0.157477 0.740236 0.831097 0.227035
H44   H     H_    0.236550 0.797037 0.911785 0.269817
H45   H     H_    0.163127 0.825806 0.937481 0.266085
H46   H     H_    0.677082 0.218517 0.014754 0.267888
H47   H     H_    0.211267 0.865257 0.858517 0.264337
H48   H     H_    0.318632 0.053742 0.013818 0.138366
H49   H     H_    0.376934 0.071332 0.934363 0.135194
H50   H     H_    0.328061 0.149984 0.090096 0.228223
H51   H     H_    0.392394 0.169058 0.021556 0.250880
H52   H     H_    0.329790 0.166072 0.880622 0.269371
H53   H     H_    0.300625 0.217959 0.963174 0.267692
H54   H     H_    0.264963 0.146647 0.949411 0.258575
H55   H     H_    0.672861 0.002064 0.931909 0.166143
H56   H     H_    0.616396 0.019374 0.848273 0.113356
H57   H     H_    0.822987 0.440429 0.003760 0.136573
H58   H     H_    0.698601 0.909810 0.847909 0.226297
H59   H     H_    0.639258 0.923711 0.768018 0.240808
H60   H     H_    0.689366 0.018206 0.718347 0.263975
H61   H     H_    0.737481 0.954606 0.703696 0.276050
H62   H     H_    0.749197 0.004239 0.798339 0.249157
H63   H     H_    0.454391 0.179852 0.870312 0.180052
H64   H     H_    0.451464 0.105202 0.833590 0.133327
H65   H     H_    0.565756 0.183277 0.844508 0.217679
H66   H     H_    0.562861 0.109446 0.798394 0.203712
H67   H     H_    0.491329 0.145531 0.678066 0.272861
H68   H     H_    0.885929 0.426474 0.075364 0.153567
H69   H     H_    0.562127 0.184001 0.674428 0.269460
H70   H     H_    0.497430 0.219948 0.723450 0.252790
H71   H     H_    0.532032 0.864377 0.181101 0.149256
H72   H     H_    0.584262 0.910821 0.120187 0.158113
H73   H     H_    0.552480 0.782790 0.064314 0.223182
H74   H     H_    0.607620 0.830433 0.012266 0.256678
H75   H     H_    0.664192 0.833395 0.159629 0.273214
H76   H     H_    0.654739 0.758451 0.118790 0.260695
H77   H     H_    0.608699 0.785028 0.211554 0.275573
H78   H     H_    0.819677 0.550803 0.012310 0.141288
H79   H     H_    0.838628 0.345820 0.921853 0.224659
H80   H     H_    0.877772 0.568701 0.932507 0.139073
H81   H     H_    0.827167 0.648732 0.085166 0.235450
H82   H     H_    0.891211 0.667691 0.015959 0.250729
H83   H     H_    0.829106 0.661582 0.875111 0.274749
H84   H     H_    0.798322 0.713870 0.955719 0.265774
H85   H     H_    0.764478 0.641523 0.943920 0.260176
H86   H     H_    0.178942 0.489120 0.912444 0.161342
H87   H     H_    0.116007 0.518441 0.852086 0.105217
H88   H     H_    0.178077 0.398527 0.816644 0.233872
H89   H     H_    0.110713 0.423103 0.761397 0.233874
H90   H     H_    0.905770 0.331633 0.985337 0.260154
H91   H     H_    0.164335 0.511660 0.698178 0.261019
H92   H     H_    0.200532 0.443306 0.665225 0.270086
H93   H     H_    0.232271 0.488133 0.754525 0.250146
H94   H     H_    0.957375 0.679453 0.872312 0.175649
H95   H     H_    0.953086 0.605000 0.834962 0.134825
H96   H     H_    0.068363 0.681570 0.845121 0.216809
H97   H     H_    0.064633 0.607796 0.799051 0.204559
H98   H     H_    0.993003 0.644579 0.679272 0.274392
H99   H     H_    0.064198 0.682344 0.675042 0.270213
H100  H     H_    0.000061 0.718893 0.724618 0.238127
H101  H     H_    0.846115 0.328753 0.130874 0.272925
H102  H     H_    0.028068 0.381107 0.186826 0.138966
H103  H     H_    0.087913 0.401581 0.108689 0.177344
H104  H     H_    0.026723 0.279264 0.121300 0.222067
H105  H     H_    0.085042 0.299862 0.041698 0.239647
H106  H     H_    0.154078 0.320959 0.171506 0.251084
H107  H     H_    0.126404 0.245691 0.175629 0.274425
H108  H     H_    0.095592 0.300762 0.251859 0.289295
H109  H     H_    0.383935 0.931690 0.077727 0.152451
H110  H     H_    0.820227 0.274854 0.049601 0.258466
H111  H     H_    0.778462 0.342560 0.066757 0.261024
H112  H     H_    0.094671 0.642827 0.044647 0.203930
H113  H     H_    0.121425 0.598566 0.949090 0.119232
H114  H     H_    0.189644 0.624415 0.126059 0.252176
H115  H     H_    0.215883 0.578235 0.033810 0.219004
H116  H     H_    0.211797 0.664804 0.926955 0.255323
H117  H     H_    0.258318 0.680516 0.023827 0.264329
H118  H     H_    0.184034 0.711544 0.018393 0.271637
H119  H     H_    0.151868 0.119067 0.415842 0.204817
H120  H     H_    0.337714 0.847835 0.927926 0.229904
H121  H     H_    0.111317 0.166921 0.494757 0.145817
H122  H     H_    0.139192 0.034489 0.525024 0.236013
H123  H     H_    0.099329 0.082274 0.602743 0.216771
H124  H     H_    0.020719 0.100116 0.484458 0.257174
H125  H     H_    0.028909 0.022263 0.511004 0.270997
H126  H     H_    0.060524 0.051515 0.406615 0.265701
H127  H     H_    0.882967 0.879014 0.544241 0.145121
H128  H     H_    0.875156 0.803366 0.580700 0.161575
H129  H     H_    0.847197 0.915419 0.694321 0.216686
H130  H     H_    0.832994 0.840387 0.731829 0.266037
H131  H     H_    0.398713 0.832734 0.004187 0.256391
H132  H     H_    0.941979 0.816461 0.715577 0.261127
H133  H     H_    0.929331 0.877777 0.792225 0.262900
H134  H     H_    0.956375 0.891905 0.678056 0.248601
H135  H     H_    0.816949 0.115452 0.628663 0.198696
H136  H     H_    0.878709 0.147070 0.562090 0.162322
H137  H     H_    0.827350 0.020825 0.540449 0.243022
H138  H     H_    0.889015 0.052608 0.477034 0.219812
H139  H     H_    0.945471 0.065576 0.624104 0.263995
H140  H     H_    0.926350 0.989144 0.601870 0.256320
H141  H     H_    0.883961 0.030780 0.685128 0.263522
H142  H     H_    0.328192 0.842597 0.138337 0.272882
H143  H     H_    0.128015 0.868206 0.610343 0.145734
H144  H     H_    0.120842 0.804009 0.539502 0.157778
H145  H     H_    0.124156 0.933963 0.471511 0.222137
H146  H     H_    0.116709 0.869285 0.400804 0.269258
H147  H     H_    0.021206 0.842494 0.482826 0.268530
H148  H     H_    0.017848 0.915430 0.431429 0.263648
H149  H     H_    0.028852 0.908283 0.552647 0.249578
H150  H     H_    0.681776 0.650743 0.314131 0.195442
H151  H     H_    0.627518 0.682321 0.392426 0.138076
H152  H     H_    0.652754 0.549703 0.359287 0.230565
H153  H     H_    0.305757 0.784903 0.060577 0.259456
H154  H     H_    0.605115 0.577398 0.449221 0.227455
H155  H     H_    0.539276 0.626278 0.335723 0.256380
H156  H     H_    0.546467 0.548004 0.312804 0.265128
H157  H     H_    0.587300 0.600987 0.243557 0.265818
H158  H     H_    0.378102 0.373942 0.411057 0.144588
H159  H     H_    0.380242 0.307339 0.477510 0.160887
H160  H     H_    0.369905 0.436117 0.548974 0.215375
H161  H     H_    0.365056 0.371306 0.620617 0.273609
H162  H     H_    0.467717 0.340397 0.572581 0.270264
H163  H     H_    0.467821 0.414558 0.619183 0.262192
H164  H     H_    0.267236 0.855365 0.060341 0.268146
H165  H     H_    0.472409 0.404259 0.497432 0.251643
H166  H     H_    0.347935 0.614734 0.577311 0.201648
H167  H     H_    0.387708 0.663265 0.498174 0.144530
H168  H     H_    0.356362 0.531752 0.466699 0.234295
H169  H     H_    0.392980 0.579901 0.385386 0.221357
H170  H     H_    0.477820 0.594868 0.492469 0.255109
H171  H     H_    0.466317 0.517298 0.468664 0.264180
H172  H     H_    0.441130 0.547485 0.576150 0.266144
H173  H     H_    0.627419 0.386977 0.539145 0.152694
H174  H     H_    0.626434 0.318355 0.478438 0.156951
H175  H     H_    0.590272 0.146291 0.044061 0.206851
H176  H     H_    0.669958 0.438814 0.398958 0.220928
H177  H     H_    0.663041 0.370267 0.337286 0.267145
H178  H     H_    0.551521 0.370713 0.372600 0.269518
H179  H     H_    0.576351 0.433851 0.306113 0.264227
H180  H     H_    0.561256 0.442699 0.426125 0.251298
H181  H     H_    0.592970 0.665834 0.564108 0.163563
H182  H     H_    0.598214 0.738846 0.513422 0.113605
H183  H     H_    0.553655 0.711003 0.707645 0.236229
H184  H     H_    0.562730 0.784278 0.659201 0.232247
H185  H     H_    0.489563 0.758427 0.535718 0.236776
H186  H     H_    0.617806 0.103168 0.947575 0.121324
H187  H     H_    0.457393 0.751388 0.648388 0.304312
H188  H     H_    0.479834 0.685657 0.587146 0.254072
H189  H     H_    0.264926 0.321836 0.298338 0.167237
H190  H     H_    0.243237 0.252387 0.244739 0.203564
H191  H     H_    0.363591 0.317300 0.221469 0.224353
H192  H     H_    0.344711 0.247001 0.170763 0.235126
H193  H     H_    0.259865 0.295028 0.087532 0.259815
H194  H     H_    0.330410 0.330114 0.060923 0.267110
H195  H     H_    0.278691 0.365792 0.138362 0.262919
H196  H     H_    0.369454 0.683573 0.329813 0.176262
N1    N     N_1   0.499980 1.000000 0.274190 -0.162103
N2    N     N_1   0.500020 0.000000 0.725810 -0.161875
N3    N     N_1   0.999980 0.500000 0.274190 -0.162700
N4    N     N_1   0.000020 0.500000 0.725810 -0.163516
O1    O     O_R   0.439540 0.939530 0.576170 -0.555538
O2    O     O_R   0.560470 0.060470 0.576200 -0.583130
O3    O     O_R   0.560470 0.939530 0.576200 -0.571572
O4    O     O_R   0.439530 0.060470 0.423800 -0.554137
O5    O     O_R   0.939530 0.439530 0.423800 -0.576575
O6    O     O_R   0.060470 0.560470 0.576200 -0.585190
O7    O     O_R   0.060470 0.439530 0.576200 -0.577010
O8    O     O_R   0.939530 0.560470 0.423800 -0.552601
O9    O     O_3   0.403427 0.944094 0.935943 -0.592668
O10   O     O_3   0.602256 0.056683 0.069310 -0.598246
O11   O     O_3   0.902971 0.444800 0.934403 -0.595955
O12   O     O_R   0.560460 0.060470 0.423830 -0.553069
O13   O     O_3   0.103165 0.552994 0.070904 -0.595514
O14   O     O_3   0.195635 0.137025 0.536312 -0.593168
O15   O     O_3   0.795354 0.854123 0.562412 -0.601807
O16   O     O_3   0.800088 0.130209 0.491708 -0.602735
O17   O     O_3   0.201508 0.854715 0.528465 -0.590732
O18   O     O_3   0.702169 0.640726 0.450598 -0.585886
O19   O     O_3   0.298116 0.355700 0.474279 -0.597364
O20   O     O_3   0.301901 0.636286 0.459963 -0.592997
O21   O     O_3   0.711247 0.357546 0.505961 -0.600719
O22   O     O_3   0.657775 0.718725 0.621261 -0.548802
O23   O     O_R   0.560460 0.939530 0.423830 -0.575271
O24   O     O_3   0.309578 0.244671 0.341349 -0.595526
O25   O     O_3   0.309610 0.753265 0.331369 -0.554630
O26   O     O_3   0.680957 0.253664 0.650043 -0.606010
O27   O     O_3   0.189925 0.250524 0.669099 -0.554158
O28   O     O_3   0.843912 0.777486 0.392344 -0.593568
O29   O     O_3   0.826705 0.234587 0.348616 -0.556540
O30   O     O_3   0.191402 0.740278 0.659976 -0.610081
O31   O     O_3   0.401402 0.057059 0.073084 -0.593320
O32   O     O_3   0.600398 0.945513 0.934620 -0.590551
O33   O     O_3   0.497604 0.123313 0.956186 -0.618349
O34   O     O_R   0.439540 0.060470 0.576170 -0.582459
O35   O     O_3   0.503451 0.886900 0.052870 -0.596805
O36   O     O_3   0.902260 0.556817 0.071762 -0.589890
O37   O     O_3   0.101111 0.443062 0.937514 -0.586579
O38   O     O_3   0.000197 0.621888 0.957124 -0.615404
O39   O     O_3   0.003024 0.384956 0.051801 -0.597967
O40   O     O_R   0.939540 0.439530 0.576170 -0.555606
O41   O     O_R   0.060460 0.560470 0.423830 -0.551717
O42   O     O_R   0.060460 0.439530 0.423830 -0.575398
O43   O     O_R   0.939540 0.560470 0.576170 -0.581164
O44   O     O_R   0.439530 0.939530 0.423800 -0.577287

loop_
_geom_bond_atom_site_label_1
_geom_bond_atom_site_label_2
_ccdc_geom_bond_type
C157  C158  S    
C149  H119  S    
C86   C99   S    
C53   H72   S    
C81   C134  S    
C151  H123  S    
C152  H124  S    
C28   H11   S    
C11   H169  S    
C106  O40   A    
C62   H93   S    
C5    C6    S    
C143  C144  S    
C69   H107  S    
C138  H153  S    
C29   H14   S    
C39   H37   S    
C80   O39   S    
C4    O18   S    
C158  H139  S    
C30   H17   S    
C60   H86   S    
C73   O2    A    
C52   H67   S    
C91   C96   S    
C147  H114  S    
C1    O44   A    
C113  C122  S    
C160  H145  S    
C55   H77   S    
C78   C133  S    
C93   C120  S    
C3    H147  S    
C95   O4    A    
C13   C103  T    
C139  O8    A    
C40   O30   S    
C74   N4    T    
C21   C22   S    
C82   O37   S    
C83   C114  S    
C46   C124  S    
Cu1   N2    S    
C130  C134  S    
C78   C127  S    
C138  H142  S    
C9    H162  S    
C21   H192  S    
C59   H83   S    
C51   C52   S    
C140  C141  S    
C87   C118  S    
C159  H143  S    
C4    C5    S    
C93   O15   S    
C79   C130  S    
C31   H20   S    
C43   C44   S    
C99   C113  S    
C37   C38   S    
C90   C126  S    
C128  O42   A    
C44   H51   S    
C45   H53   S    
C6    H156  S    
C152  H125  S    
C154  C155  S    
C129  C133  S    
C10   O20   S    
C90   O29   S    
Cu2   O4    S    
C149  O14   S    
C27   O26   S    
C53   O35   S    
C146  C147  S    
C146  O13   S    
C68   C109  T    
C91   C125  S    
C45   H52   S    
C19   H187  S    
C92   C119  S    
C144  C145  S    
C22   H194  S    
Cu2   O44   S    
C62   H91   S    
C17   O22   S    
C56   O36   S    
C127  O10   S    
C88   O27   S    
C29   H16   S    
C61   H89   S    
C52   H69   S    
C18   H184  S    
C118  F7    S    
C5    H152  S    
C58   H82   S    
C7    H158  S    
C93   C114  S    
C117  O41   A    
C34   H28   S    
C55   H76   S    
C73   C103  S    
C143  O11   S    
C20   C21   S    
C148  H116  S    
C96   C116  S    
C61   H88   S    
C67   C69   S    
C71   N2    T    
C14   H173  S    
C84   C102  S    
C147  C148  S    
Cu4   O42   S    
C88   C124  S    
Cu3   O7    S    
Cu4   O5    S    
C149  H121  S    
C7    C8    S    
C26   H7    S    
C98   C124  S    
C100  C126  S    
C76   C78   S    
C149  C151  S    
C57   C125  S    
C38   C39   S    
C41   H43   S    
C81   C131  S    
C2    C102  T    
Cu3   O40   S    
C20   H189  S    
C54   H73   S    
C67   H104  S    
C85   C119  S    
C142  H46   S    
C16   H179  S    
C155  H133  S    
C63   O38   S    
C15   H177  S    
C111  F1    S    
C89   O28   S    
Cu1   O34   S    
C147  H115  S    
C20   O24   S    
C66   C67   S    
C19   H185  S    
C63   H94   S    
C87   O26   S    
C156  H135  S    
C43   O31   S    
C157  H138  S    
C47   H56   S    
C153  O15   S    
C158  H141  S    
C80   C82   S    
C2    C120  S    
C154  H129  S    
C25   C26   S    
C9    H165  S    
C137  H120  S    
C27   H9    S    
C49   H62   S    
C35   C105  T    
C13   C121  S    
Cu2   O23   S    
C31   C32   S    
C1    C104  S    
C148  H118  S    
C70   C132  S    
C17   C18   S    
Cu1   O2    S    
C50   H64   S    
C65   H98   S    
C75   C77   S    
C114  C123  S    
C144  H79   S    
C116  C125  S    
C141  H2    S    
Cu3   O43   S    
C44   H50   S    
C36   H29   S    
C145  H111  S    
C146  H112  S    
C87   C100  S    
C60   O37   S    
C15   H176  S    
C37   H33   S    
C108  C117  S    
C53   H71   S    
C32   H21   S    
C110  C119  S    
C17   H182  S    
C77   O31   S    
C78   O32   S    
C159  O17   S    
C49   H60   S    
C35   C123  S    
C28   H12   S    
C139  O43   A    
C112  C121  S    
C97   C123  S    
C146  H113  S    
C76   C132  S    
C3    H149  S    
C33   H26   S    
C69   H106  S    
C37   H32   S    
C56   C58   S    
C51   H66   S    
C34   C36   S    
C30   H18   S    
C33   O28   S    
C89   C93   S    
C61   C62   S    
C10   C11   S    
C63   C64   S    
C57   C108  T    
C47   H55   S    
C14   C15   S    
C7    H159  S    
C76   O35   S    
C10   H166  S    
C94   O16   S    
C95   C101  S    
C79   O38   S    
C106  C109  S    
C92   O14   S    
C7    O19   S    
C98   C110  S    
C41   C42   S    
C144  H90   S    
Cu1   Cu2   S    
C66   H103  S    
C21   H191  S    
C28   C29   S    
C43   H49   S    
C84   O3    A    
C30   C31   S    
C97   C111  S    
C25   H5    S    
C128  O7    A    
C23   H3    S    
C31   H19   S    
C101  C150  T    
C80   C134  S    
C116  F8    S    
Cu2   O12   S    
C18   C19   S    
C82   C135  S    
C65   H100  S    
C47   O32   S    
C12   H171  S    
C54   C55   S    
C48   H59   S    
C43   H48   S    
C56   H78   S    
C86   C122  S    
C4    H151  S    
C151  C152  S    
C96   O17   S    
C36   H31   S    
C11   H168  S    
C67   H105  S    
C81   O36   S    
C152  H126  S    
C16   H178  S    
C88   C110  S    
C42   H45   S    
C119  C150  S    
C80   C131  S    
Cu2   N1    S    
C32   H23   S    
C106  O5    A    
C90   C94   S    
C131  O11   S    
C100  O21   S    
C160  H146  S    
C85   C115  S    
C22   H195  S    
C64   H96   S    
C62   H92   S    
C87   C121  S    
C136  C137  S    
C37   O29   S    
C58   C59   S    
C53   C54   S    
C69   H108  S    
C91   O30   S    
C29   H15   S    
C86   O25   S    
C60   C61   S    
C83   C120  S    
C52   H70   S    
C105  C139  S    
C72   C134  S    
C159  C160  S    
C74   C135  S    
C24   C122  S    
C50   C51   S    
C3    H148  S    
C143  H57   S    
C136  H109  S    
C38   H36   S    
C48   C49   S    
C42   H47   S    
C66   O39   S    
C66   H102  S    
C8    H160  S    
C44   C45   S    
C9    H163  S    
C136  H1    S    
C14   H174  S    
C115  C124  S    
C59   H84   S    
C143  H68   S    
C159  H144  S    
C113  F3    S    
C75   C133  S    
C140  H186  S    
C26   H8    S    
C79   C135  S    
C40   H40   S    
C96   C122  S    
C64   C65   S    
C41   H42   S    
C56   H80   S    
C137  H131  S    
C20   H190  S    
C45   H54   S    
C54   H74   S    
C70   N1    T    
C6    H155  S    
C92   C115  S    
C16   H180  S    
C42   H44   S    
C64   H97   S    
C94   C121  S    
Cu3   N4    S    
C130  O13   S    
C39   H38   S    
C83   C97   S    
C59   H85   S    
C30   O27   S    
C117  O6    A    
C5    H154  S    
C151  H122  S    
C94   C118  S    
C19   H188  S    
Cu3   Cu4   S    
C14   O21   S    
C90   C112  S    
C115  F5    S    
C22   H193  S    
C99   C125  S    
C95   O34   A    
C1    O1    A    
C156  H136  S    
C85   O24   S    
C157  H137  S    
C58   H81   S    
C97   O18   S    
C60   H87   S    
C156  C157  S    
C107  C128  S    
C131  C135  S    
C8    H161  S    
C18   H183  S    
C154  H130  S    
C15   C16   S    
C112  F4    S    
C136  O9    S    
C6    H157  S    
C86   C116  S    
C127  C132  S    
C49   H61   S    
C85   C98   S    
Cu4   N3    S    
C34   H27   S    
C88   C92   S    
C8    C9    S    
C156  O16   S    
C155  H132  S    
Cu1   O1    S    
C82   C130  S    
C73   O12   A    
C140  H175  S    
C75   C127  S    
C12   H170  S    
C48   H58   S    
C55   H75   S    
C4    H150  S    
C50   O33   S    
C36   H30   S    
Cu4   O41   S    
C75   O33   S    
C145  H110  S    
Cu4   O8    S    
C129  O9    S    
C99   O20   S    
C26   H6    S    
C140  O10   S    
C32   H22   S    
C79   C81   S    
C23   O25   S    
C77   C129  S    
C89   C123  S    
C142  H35   S    
C17   H181  S    
C83   O22   S    
C91   C113  S    
C111  C120  S    
C24   C104  T    
C77   C132  S    
C40   H41   S    
C145  H101  S    
C23   H196  S    
C76   C129  S    
C47   C48   S    
C155  H134  S    
C33   H25   S    
C46   C107  T    
C33   C34   S    
C39   H39   S    
C51   H65   S    
C72   N3    T    
C153  H128  S    
C40   C41   S    
C3    C160  S    
C141  H13   S    
C68   C126  S    
C10   H167  S    
C114  F6    S    
C138  H164  S    
C38   H34   S    
C158  H140  S    
C84   O23   A    
C71   C133  S    
C11   C12   S    
C100  C112  S    
C137  C138  S    
C89   C111  S    
C27   H10   S    
C141  C142  S    
C110  F2    S    
C25   H4    S    
C153  H127  S    
C148  H117  S    
Cu1   O3    S    
C23   C25   S    
C50   H63   S    
C65   H99   S    
C12   H172  S    
C27   C28   S    
C142  H24   S    
C118  C126  S    
C153  C154  S    
C63   H95   S    
C98   O19   S    
Cu3   O6    S    
