data_mof_unit_55622.cif
_audit_creation_date              2012-12-11T14:49:44-0500
_audit_creation_method            fapswitch 2.2
_symmetry_space_group_name_H-M    P1
_symmetry_Int_Tables_number       1
_space_group_crystal_system       triclinic
_cell_length_a                    16.775116
_cell_length_b                    6.999377
_cell_length_c                    16.969827
_cell_angle_alpha                 90.00008
_cell_angle_beta                  100.581079
_cell_angle_gamma                 89.999874
_cell_volume                      1958.63766744

loop_
_atom_site_label
_atom_site_type_symbol
_atom_type_description
_atom_site_fract_x
_atom_site_fract_y
_atom_site_fract_z
_atom_type_partial_charge
O1    O     O_R   0.579510 0.506290 0.439030 -0.526724
O2    O     O_R   0.420490 0.006290 0.560970 -0.526725
O3    O     O_R   0.412540 0.170090 0.405290 -0.543574
O4    O     O_R   0.587460 0.670090 0.594710 -0.543575
C1    C     C_R   0.383219 0.346179 0.383929 0.667351
C2    C     C_R   0.616780 0.846179 0.616071 0.667359
O5    O     O_R   0.578390 0.176230 0.429330 -0.541620
O6    O     O_R   0.421610 0.676230 0.570670 -0.541621
O7    O     O_R   0.587530 0.011250 0.585190 -0.537413
O8    O     O_R   0.412470 0.511250 0.414810 -0.537412
C3    C     C_R   0.606136 0.346536 0.414767 0.711366
C4    C     C_R   0.393864 0.846537 0.585233 0.711372
O9    O     O_3   0.502800 0.340940 0.551110 -0.365349
O10   O     O_3   0.497200 0.840940 0.448890 -0.365347
V1    V     V_3+5 0.499480 0.064020 0.490520 1.391906
V2    V     V_3+5 0.500520 0.564020 0.509480 1.391904
C5    C     C_R   0.169830 0.897771 0.864644 -0.112965
C6    C     C_R   0.830169 0.397774 0.135356 -0.112964
C7    C     C_R   0.328031 0.869441 0.633537 -0.117882
C8    C     C_R   0.671969 0.369437 0.366464 -0.117875
C9    C     C_R   0.220217 0.072519 0.670283 0.156585
C10   C     C_R   0.779791 0.572498 0.329724 0.156590
C11   C     C_R   0.268297 0.014345 0.613668 0.175889
C12   C     C_R   0.731709 0.514327 0.386336 0.175892
C13   C     C_R   0.330965 0.766832 0.704826 -0.285789
C14   C     C_R   0.669033 0.266838 0.295172 -0.285789
C15   C     C_R   0.277895 0.809456 0.758535 0.102443
C16   C     C_R   0.722104 0.309460 0.241464 0.102442
C17   C     C_R   0.223141 0.966112 0.742021 0.063372
C18   C     C_R   0.776862 0.466105 0.257982 0.063370
C19   C     C_R   0.170519 0.009504 0.796495 -0.227777
C20   C     C_R   0.829484 0.509498 0.203507 -0.227777
C21   C     C_R   0.224814 0.745327 0.880629 -0.157013
C22   C     C_R   0.775182 0.245339 0.119368 -0.157011
C23   C     C_R   0.278861 0.700292 0.829196 0.174395
C24   C     C_R   0.721134 0.200306 0.170800 0.174401
H1    H     H_    0.224565 0.658192 0.933417 0.120102
H2    H     H_    0.775430 0.158211 0.066578 0.120099
H3    H     H_    0.376499 0.656358 0.718681 0.151847
H4    H     H_    0.623495 0.156372 0.281313 0.151845
C25   C     C_3   0.732293 0.840266 0.840358 0.029435
C26   C     C_3   0.267707 0.340263 0.159642 0.029434
C27   C     C_3   0.659336 0.823924 0.767700 -0.023991
C28   C     C_3   0.340664 0.323918 0.232300 -0.023988
C29   C     C_3   0.833787 0.765024 0.743345 0.028592
C30   C     C_3   0.166213 0.265026 0.256655 0.028595
C31   C     C_3   0.792733 0.098296 0.768807 -0.446597
C32   C     C_3   0.207268 0.598298 0.231192 -0.446599
C33   C     C_3   0.812964 0.902363 0.811164 0.055081
C34   C     C_3   0.187036 0.402363 0.188836 0.055080
H5    H     H_    0.770934 0.200412 0.810412 0.125994
H6    H     H_    0.229067 0.700411 0.189587 0.125994
C35   C     C_3   0.687962 0.868101 0.686817 0.053683
C36   C     C_3   0.312038 0.368101 0.313183 0.053682
C37   C     C_3   0.756179 0.722267 0.680231 -0.385458
C38   C     C_3   0.243819 0.222271 0.319771 -0.385459
C39   C     C_3   0.726471 0.076319 0.691679 0.062580
C40   C     C_3   0.273529 0.576320 0.308321 0.062578
H7    H     H_    0.678305 0.183075 0.695700 0.151499
H8    H     H_    0.321696 0.683073 0.304300 0.151498
H9    H     H_    0.875657 0.845711 0.711645 0.128971
H10   H     H_    0.124342 0.345715 0.288354 0.128967
O11   O     O_R   0.087500 0.266000 0.085220 -0.530905
O12   O     O_R   0.912500 0.766000 0.914780 -0.530905
O13   O     O_R   0.921600 0.589950 0.070670 -0.539589
O14   O     O_R   0.078400 0.089950 0.929330 -0.539589
C41   C     C_R   0.894016 0.420147 0.085375 0.702827
C42   C     C_R   0.105984 0.920146 0.914625 0.702829
O15   O     O_R   0.087460 0.596020 0.094710 -0.545627
O16   O     O_R   0.912540 0.096020 0.905290 -0.545627
O17   O     O_R   0.079520 0.760970 0.939020 -0.536710
O18   O     O_R   0.920480 0.260970 0.060980 -0.536709
C43   C     C_R   0.115883 0.424976 0.118218 0.681076
C44   C     C_R   0.884117 0.924976 0.881782 0.681076
O19   O     O_3   0.997180 0.425140 0.948910 -0.367455
O20   O     O_3   0.002820 0.925140 0.051090 -0.367455
V3    V     V_3+5 0.000520 0.702080 0.009480 1.376538
V4    V     V_3+5 0.999480 0.202080 0.990520 1.376537
H11   H     H_    0.126363 0.123295 0.784542 0.139903
H12   H     H_    0.873642 0.623282 0.215462 0.139900
H13   H     H_    0.635961 0.674416 0.763305 0.150749
H14   H     H_    0.364036 0.174409 0.236696 0.150750
C45   C     C_3   0.881563 0.580306 0.768691 -0.743351
H15   H     H_    0.855262 0.495657 0.812307 0.230848
H16   H     H_    0.883198 0.489887 0.715227 0.185615
H17   H     H_    0.945715 0.613961 0.794584 0.214484
C46   C     C_3   0.118437 0.080308 0.231309 -0.743351
H18   H     H_    0.144738 0.995658 0.187694 0.230847
H19   H     H_    0.116802 0.989890 0.284774 0.185618
H20   H     H_    0.054285 0.113962 0.205416 0.214484
H21   H     H_    0.734055 0.574757 0.688086 0.156808
H22   H     H_    0.265944 0.074759 0.311918 0.156805
H23   H     H_    0.849135 0.161579 0.754252 0.167478
H24   H     H_    0.150866 0.661583 0.245747 0.167478
C47   C     C_3   0.761831 0.133048 0.616786 -0.811487
H25   H     H_    0.815799 0.046713 0.611024 0.207989
H26   H     H_    0.717089 0.117785 0.560482 0.219490
H27   H     H_    0.780848 0.285085 0.621583 0.199672
C48   C     C_3   0.238169 0.633050 0.383213 -0.811462
H28   H     H_    0.184189 0.546745 0.388964 0.207983
H29   H     H_    0.282905 0.617743 0.439520 0.219482
H30   H     H_    0.219169 0.785101 0.378424 0.199666
H31   H     H_    0.771855 0.728585 0.619786 0.140440
H32   H     H_    0.228143 0.228596 0.380216 0.140442
C49   C     C_3   0.166100 0.247989 0.654968 -0.804968
H33   H     H_    0.101424 0.204309 0.645753 0.202673
H34   H     H_    0.179678 0.346552 0.707008 0.213116
H35   H     H_    0.175095 0.333486 0.602460 0.221208
C50   C     C_3   0.833917 0.747948 0.345045 -0.804961
H36   H     H_    0.898591 0.704249 0.354250 0.202668
H37   H     H_    0.820340 0.846531 0.293013 0.213114
H38   H     H_    0.824935 0.833429 0.397562 0.221205
C51   C     C_3   0.334990 0.531770 0.849993 -0.811995
H39   H     H_    0.323143 0.423604 0.801356 0.218457
H40   H     H_    0.399039 0.579976 0.858118 0.208137
H41   H     H_    0.326344 0.461149 0.906454 0.208190
C52   C     C_3   0.665002 0.031795 0.150000 -0.811997
H42   H     H_    0.676847 0.923623 0.198634 0.218457
H43   H     H_    0.600954 0.080008 0.141877 0.208136
H44   H     H_    0.673646 0.961181 0.093537 0.208190
C53   C     C_3   0.252636 0.100274 0.530473 -0.778131
H45   H     H_    0.278510 0.012565 0.486974 0.193703
H46   H     H_    0.186426 0.105097 0.506603 0.199243
H47   H     H_    0.278604 0.246505 0.532060 0.207750
C54   C     C_3   0.747372 0.600244 0.469534 -0.778144
H48   H     H_    0.721486 0.512548 0.513029 0.193709
H49   H     H_    0.813581 0.605030 0.493408 0.199244
H50   H     H_    0.721416 0.746488 0.467949 0.207749
C55   C     C_3   0.736864 0.658733 0.892439 -0.815209
H51   H     H_    0.744364 0.528645 0.857641 0.205665
H52   H     H_    0.784968 0.668129 0.946438 0.224260
H53   H     H_    0.678873 0.642129 0.914552 0.202889
C56   C     C_3   0.263135 0.158730 0.107560 -0.815208
H54   H     H_    0.255634 0.028642 0.142358 0.205665
H55   H     H_    0.215032 0.168129 0.053562 0.224259
H56   H     H_    0.321126 0.142125 0.085448 0.202889
H57   H     H_    0.719045 0.956448 0.881038 0.130296
H58   H     H_    0.280956 0.456445 0.118962 0.130297
C57   C     C_3   0.587095 0.947436 0.782043 -0.843071
H59   H     H_    0.604003 0.100406 0.789757 0.210406
H60   H     H_    0.534750 0.932884 0.731885 0.210228
H61   H     H_    0.566738 0.898772 0.837434 0.219416
C58   C     C_3   0.412906 0.447424 0.217957 -0.843071
H62   H     H_    0.395999 0.600396 0.210243 0.210407
H63   H     H_    0.465251 0.432868 0.268114 0.210226
H64   H     H_    0.433262 0.398758 0.162566 0.219415

loop_
_geom_bond_atom_site_label_1
_geom_bond_atom_site_label_2
_ccdc_geom_bond_type
C58   H64   S    
O14   C42   A    
C46   H18   S    
C33   C44   S    
C15   C17   A    
O12   V3    S    
O15   V3    S    
C47   H25   S    
O1    C3    A    
O2    C4    A    
C2    O7    A    
C30   C46   S    
C47   H27   S    
C11   C53   S    
C25   C55   S    
O5    C3    A    
C49   H34   S    
C5    C21   A    
C30   H10   S    
C26   C56   S    
O16   V4    S    
O20   V4    S    
C51   H39   S    
C32   H6    S    
C28   H14   S    
C50   H37   S    
C57   H61   S    
C39   H7    S    
C20   H12   S    
C40   H8    S    
C58   H62   S    
C37   H31   S    
C41   O18   A    
C29   H9    S    
C53   H47   S    
O18   V4    S    
C1    O8    A    
C27   C35   S    
C8    C12   A    
O13   C41   A    
O16   C44   A    
C56   H56   S    
C37   H21   S    
O15   C43   A    
C25   H57   S    
C54   H50   S    
C55   H53   S    
C32   C34   S    
O6    V2    S    
C52   H44   S    
C25   C27   S    
C29   C45   S    
C26   C28   S    
C25   C33   S    
C35   C37   S    
O14   V4    S    
C49   H35   S    
C36   C38   S    
C3    C8    S    
O13   V3    S    
C1    C36   S    
O20   V3    S    
C38   H32   S    
C31   C33   S    
C50   H38   S    
C35   C39   S    
C31   H5    S    
O11   C43   A    
C15   C23   A    
C6    C41   S    
C9    C17   A    
C21   H1    S    
O4    V2    S    
C32   C40   S    
C7    C11   A    
O2    V1    S    
C31   C39   S    
O19   V3    S    
C45   H15   S    
C29   C33   S    
O6    C4    A    
C10   C50   S    
C45   H17   S    
C31   H23   S    
C42   O17   A    
O1    V2    S    
C27   C57   S    
C24   C52   S    
C6    C22   A    
C29   C37   S    
C53   H45   S    
C32   H24   S    
C26   C34   S    
O4    C2    A    
C45   H16   S    
C9    C11   A    
C56   H54   S    
C27   H13   S    
C10   C12   A    
C34   C43   S    
C6    C20   A    
C2    C35   S    
O17   V3    S    
O3    V1    S    
C54   H49   S    
C55   H51   S    
C36   C40   S    
C58   H63   S    
C5    C42   S    
C10   C18   A    
C48   H29   S    
C22   H2    S    
C40   C48   S    
O3    C1    A    
C57   H59   S    
C47   H26   S    
C19   H11   S    
C13   C15   A    
C49   H33   S    
C30   C34   S    
C14   C16   A    
C48   H28   S    
C51   H41   S    
C52   H43   S    
O9    V2    S    
C16   C18   A    
C17   C19   A    
O8    V2    S    
C52   H42   S    
C13   H3    S    
C18   C20   A    
C57   H60   S    
C14   H4    S    
C54   H48   S    
C8    C14   A    
C28   C58   S    
C5    C19   A    
C4    C7    S    
O5    V1    S    
C21   C23   A    
C23   C51   S    
C22   C24   A    
O7    V1    S    
C7    C13   A    
O19   V4    S    
C53   H46   S    
C28   C36   S    
C38   H22   S    
C48   H30   S    
C16   C24   A    
C39   C47   S    
C46   H20   S    
C30   C38   S    
C56   H55   S    
C46   H19   S    
O12   C44   A    
O10   V1    S    
C26   H58   S    
C51   H40   S    
C12   C54   S    
C50   H36   S    
C9    C49   S    
C55   H52   S    
O11   V4    S    
