data_mof_unit_7985.cif
_audit_creation_date              2012-12-10T18:12:32-0500
_audit_creation_method            fapswitch 2.2
_symmetry_space_group_name_H-M    P1
_symmetry_Int_Tables_number       1
_space_group_crystal_system       triclinic
_cell_length_a                    12.555508
_cell_length_b                    13.010135
_cell_length_c                    15.704611
_cell_angle_alpha                 89.300726
_cell_angle_beta                  101.941363
_cell_angle_gamma                 82.219167
_cell_volume                      2484.56763575

loop_
_atom_site_label
_atom_site_type_symbol
_atom_type_description
_atom_site_fract_x
_atom_site_fract_y
_atom_site_fract_z
_atom_type_partial_charge
C1    C     C_R   0.438412 0.691786 0.491036 0.942271
C2    C     C_R   0.601226 0.198377 0.500885 -0.149944
C3    C     C_R   0.334950 0.824073 0.561622 -0.262558
C4    C     C_R   0.500265 0.500043 0.661763 0.899272
C5    C     C_R   0.349848 0.908897 0.613236 -0.180346
C6    C     C_R   0.431214 0.969961 0.605395 0.448355
C7    C     C_R   0.481914 0.958505 0.531497 -0.070751
C8    C     C_R   0.461005 0.874847 0.476450 -0.097665
C9    C     C_R   0.552362 0.025788 0.509250 0.073275
C10   C     C_R   0.622975 0.994067 0.451993 -0.081176
C11   C     C_R   0.597905 0.912961 0.397150 -0.174178
C12   C     C_3   0.502444 0.496498 0.917569 0.157169
C13   C     C_R   0.508684 0.862411 0.402365 0.415239
C14   C     C_R   0.539527 0.129461 0.529282 -0.153610
C15   C     C_R   0.687951 0.162122 0.458462 0.031163
C16   C     C_R   0.561702 0.308324 0.506624 0.890840
C17   C     C_R   0.400100 0.801024 0.500425 -0.032460
C18   C     C_R   0.083380 0.373458 0.354248 0.123449
C19   C     C_R   0.814419 0.588161 0.626204 0.306422
C20   C     C_R   0.923101 0.557842 0.669074 -0.238327
C21   C     C_R   0.996652 0.501555 0.626376 0.175092
C22   C     C_R   0.964587 0.491998 0.535049 -0.020348
C23   C     C_3   0.474412 0.403376 0.024465 -0.169379
C24   C     C_R   0.851700 0.517347 0.495250 0.089636
C25   C     C_R   0.039947 0.462057 0.481282 -0.077998
C26   C     C_R   0.002009 0.423433 0.397524 0.093015
C27   C     C_R   0.887095 0.447433 0.359721 0.142401
C28   C     C_R   0.500299 0.498195 0.338404 0.960523
C29   C     C_R   0.820859 0.514165 0.404421 0.131642
C30   C     C_R   0.149934 0.479963 0.504594 -0.035377
C31   C     C_R   0.193328 0.386996 0.385570 0.021968
C32   C     C_3   0.428470 0.573909 0.016781 -0.128933
C33   C     C_3   0.529826 0.586102 0.977353 -0.223708
C34   C     C_3   0.501928 0.493481 0.083571 0.107390
C35   C     C_1   0.501212 0.499340 0.750927 -0.161488
C36   C     C_1   0.500640 0.494909 0.249550 -0.126131
C37   C     C_3   0.402571 0.484141 0.956258 0.193773
C38   C     C_3   0.835183 0.418648 0.269093 -0.900281
C39   C     C_3   0.060970 0.302753 0.279122 -0.861268
C40   C     C_3   0.743320 0.656846 0.674681 -0.774687
C41   C     C_3   0.102557 0.447334 0.682190 -0.878665
C42   C     C_3   0.757455 0.612400 0.356089 -0.668277
C43   C     C_3   0.657781 0.328948 0.966051 -0.864622
C44   C     C_3   0.288917 0.472313 0.904024 -0.903993
C45   C     C_3   0.574782 0.417264 0.985175 0.186356
C46   C     C_3   0.753519 0.238416 0.426175 -0.728717
C47   C     C_3   0.603413 0.505989 0.046223 -0.163380
C48   C     C_1   0.502024 0.498274 0.826438 -0.033316
C49   C     C_1   0.501237 0.493409 0.174326 -0.028606
C50   C     C_R   0.702914 0.055746 0.438774 0.479299
H1    H     H_    0.552378 0.660549 0.956333 0.176273
H2    H     H_    0.451849 0.328834 0.045294 0.160846
H3    H     H_    0.636277 0.899462 0.341805 0.236157
H4    H     H_    0.629237 0.103094 0.753684 0.384359
H5    H     H_    0.385959 0.865348 0.172050 0.387936
H6    H     H_    0.744633 0.439680 0.254544 0.235151
H7    H     H_    0.867667 0.459360 0.219629 0.247312
H8    H     H_    0.846996 0.333543 0.262975 0.255733
H9    H     H_    0.013180 0.242303 0.295433 0.271105
H10   H     H_    0.019264 0.347346 0.218155 0.246583
H11   H     H_    0.138410 0.260310 0.265867 0.238098
H12   H     H_    0.471535 0.160250 0.557947 0.210885
H13   H     H_    0.731148 0.613790 0.732611 0.227804
H14   H     H_    0.784991 0.724538 0.697694 0.223375
H15   H     H_    0.663498 0.689189 0.634136 0.271161
H16   H     H_    0.142044 0.383467 0.648207 0.264477
H17   H     H_    0.160074 0.504269 0.703335 0.234541
H18   H     H_    0.085357 0.410753 0.741296 0.250793
H19   H     H_    0.816504 0.659528 0.336499 0.217845
H20   H     H_    0.711010 0.661166 0.397556 0.269560
H21   H     H_    0.699600 0.596060 0.296204 0.255496
H22   H     H_    0.698682 0.284226 0.027415 0.253347
H23   H     H_    0.285214 0.768389 0.578776 0.173008
H24   H     H_    0.615150 0.276723 0.919468 0.260451
H25   H     H_    0.720604 0.360923 0.937254 0.241729
H26   H     H_    0.232862 0.463828 0.948997 0.249255
H27   H     H_    0.256035 0.542028 0.860266 0.243322
H28   H     H_    0.294166 0.402479 0.864390 0.263980
H29   H     H_    0.807249 0.269466 0.482334 0.253229
H30   H     H_    0.805470 0.205075 0.381753 0.276092
H31   H     H_    0.696891 0.303263 0.387525 0.209650
H32   H     H_    0.901801 0.843024 0.389958 0.389125
H33   H     H_    0.307611 0.918651 0.666768 0.198247
H34   H     H_    0.256558 0.354712 0.352061 0.144202
H35   H     H_    0.177826 0.526479 0.559000 0.155869
H36   H     H_    0.367851 0.637829 0.031695 0.165781
H37   H     H_    0.949263 0.574766 0.737087 0.164930
H38   H     H_    0.686092 0.514283 0.085164 0.153514
N1    N     N_R   0.222180 0.444680 0.455580 -0.122850
N2    N     N_R   0.776980 0.554790 0.543960 -0.124029
O1    O     O_R   0.366730 0.627160 0.478790 -0.588248
O2    O     O_2   0.472678 0.978394 0.779533 -0.285008
O3    O     O_3   0.613482 0.053984 0.706518 -0.552336
O4    O     O_2   0.521291 0.721237 0.280956 -0.363468
O5    O     O_2   0.338917 0.768976 0.314586 -0.300295
O6    O     O_3   0.413875 0.901038 0.225768 -0.533459
O7    O     O_2   0.800488 0.022456 0.303065 -0.312589
O8    O     O_2   0.920764 0.041301 0.444920 -0.282112
O9    O     O_3   0.840170 0.868881 0.418057 -0.574401
O10   O     O_R   0.544830 0.662520 0.507160 -0.638387
O11   O     O_R   0.410960 0.482330 0.609040 -0.611698
O12   O     O_R   0.589060 0.517690 0.637410 -0.617424
O13   O     O_R   0.455170 0.337480 0.492840 -0.618060
O14   O     O_R   0.633270 0.372840 0.521210 -0.603739
O15   O     O_R   0.410940 0.482310 0.362590 -0.613285
O16   O     O_R   0.589040 0.517670 0.390960 -0.611349
O17   O     O_2   0.411624 0.142841 0.695985 -0.330273
S1    S     S_3+6 0.481056 0.038597 0.699413 -0.003705
S2    S     S_3+6 0.443589 0.807934 0.305654 0.005521
S3    S     S_3+6 0.819623 0.998446 0.399343 0.007012
Zn1   Zn    Zn3+2 0.381080 0.476390 0.481050 0.980357
Zn2   Zn    Zn3+2 0.618920 0.523610 0.518950 0.954246

loop_
_geom_bond_atom_site_label_1
_geom_bond_atom_site_label_2
_ccdc_geom_bond_type
C50   S3    S    
C8    C13   A    
O8    S3    D    
C29   C42   S    
C27   C29   A    
H32   O9    S    
O12   Zn2   S    
C19   C20   A    
C18   C26   A    
N2    Zn2   S    
C12   C48   S    
C7    C8    A    
C41   H17   S    
O16   Zn2   S    
C26   C27   A    
C43   H22   S    
C40   H13   S    
C23   C45   S    
C44   H27   S    
O3    S1    S    
C46   H29   S    
C5    H33   S    
C27   C38   S    
C46   H31   S    
C20   H37   S    
C42   H20   S    
O13   Zn1   S    
C15   C50   A    
O1    Zn1   S    
C12   C37   S    
C44   H26   S    
C18   C39   S    
C24   C29   A    
H4    O3    S    
C13   S2    S    
C38   H8    S    
C16   O14   A    
C28   O16   A    
C31   N1    A    
C22   C25   A    
C4    O12   A    
O17   S1    D    
C2    C16   S    
C9    C10   A    
C11   H3    S    
C43   H24   S    
O15   Zn1   S    
C4    C35   S    
C39   H9    S    
C1    O1    A    
C21   C22   A    
C30   N1    A    
C2    C14   A    
C35   C48   T    
C1    O10   A    
O2    S1    D    
C41   H18   S    
C45   C47   S    
C43   H25   S    
C39   H11   S    
O5    S2    D    
O14   Zn2   S    
H5    O6    S    
C25   C26   A    
C23   C37   S    
O9    S3    S    
C42   H19   S    
C31   H34   S    
C32   C34   S    
C9    C14   A    
C38   H7    S    
C16   O13   A    
C28   O15   A    
C23   C34   S    
C32   H36   S    
C4    O11   A    
C32   C37   S    
C30   H35   S    
C2    C15   A    
C43   C45   S    
C41   H16   S    
C21   C41   S    
O10   Zn2   S    
C40   H15   S    
C33   C47   S    
C22   C24   A    
C33   H1    S    
C10   C50   A    
C25   C30   A    
C7    C9    A    
C34   C49   S    
C12   C45   S    
C3    C5    A    
C24   N2    A    
C6    C7    A    
C18   C31   A    
O11   Zn1   S    
O6    S2    S    
N1    Zn1   S    
O4    S2    D    
C1    C17   S    
C8    C17   A    
C40   H14   S    
C10   C11   A    
C47   H38   S    
C37   C44   S    
C44   H28   S    
C19   N2    A    
C32   C33   S    
C46   H30   S    
O7    S3    D    
C11   C13   A    
C23   H2    S    
C5    C6    A    
C39   H10   S    
C42   H21   S    
C3    C17   A    
C3    H23   S    
C19   C40   S    
C38   H6    S    
C20   C21   A    
C28   C36   S    
C6    S1    S    
C34   C47   S    
C15   C46   S    
C12   C33   S    
C36   C49   T    
C14   H12   S    
