data_mof_unit_33918.cif
_audit_creation_date              2012-12-10T18:31:50-0500
_audit_creation_method            fapswitch 2.2
_symmetry_space_group_name_H-M    P1
_symmetry_Int_Tables_number       1
_space_group_crystal_system       triclinic
_cell_length_a                    10.735047
_cell_length_b                    14.917195
_cell_length_c                    15.484353
_cell_angle_alpha                 81.791984
_cell_angle_beta                  89.649615
_cell_angle_gamma                 104.999917
_cell_volume                      2368.18324199

loop_
_atom_site_label
_atom_site_type_symbol
_atom_type_description
_atom_site_fract_x
_atom_site_fract_y
_atom_site_fract_z
_atom_type_partial_charge
C1    C     C_R   0.483624 0.441058 0.663156 0.925949
C2    C     C_3   0.119261 0.496112 0.503423 -0.025472
C3    C     C_3   0.105684 0.582985 0.438011 -0.516207
C4    C     C_3   0.070198 0.505357 0.598115 0.557292
C5    C     C_R   0.483900 0.404376 0.757794 -0.206867
C6    C     C_R   0.562268 0.593276 0.245955 -0.105685
C7    C     C_R   0.453859 0.275028 0.879550 0.130010
C8    C     C_R   0.457155 0.306633 0.789068 0.129395
C9    C     C_R   0.513598 0.468794 0.818273 0.083525
C10   C     C_R   0.538180 0.437091 0.904830 0.000904
C11   C     C_R   0.491755 0.340575 0.937835 0.036946
C12   C     C_R   0.742410 0.502015 0.496727 0.934037
C13   C     C_R   0.593756 0.500755 0.962034 0.123343
C14   C     C_R   0.562489 0.475051 0.051725 0.085856
C15   C     C_R   0.510117 0.379179 0.084709 -0.249049
C16   C     C_R   0.481144 0.312546 0.028598 -0.194564
C17   C     C_R   0.681793 0.588061 0.932530 -0.220048
C18   C     C_R   0.721058 0.654283 0.988526 -0.243851
C19   C     C_R   0.669794 0.636149 0.074792 0.086612
C20   C     C_R   0.587268 0.545979 0.105442 0.057560
C21   C     C_R   0.701294 0.704657 0.131730 0.229457
C22   C     C_R   0.649937 0.680500 0.218681 -0.261251
C23   C     C_R   0.523069 0.558736 0.337739 0.857519
C24   C     C_R   0.527239 0.529426 0.187904 -0.260450
C25   C     C_R   0.731054 0.855036 0.607713 0.385248
C26   C     C_R   0.683874 0.760782 0.597232 0.400901
C27   C     C_R   0.511164 0.794144 0.514840 -0.084861
C28   C     C_R   0.562454 0.892069 0.514235 -0.126002
C29   C     C_R   0.670431 0.921622 0.566141 -0.041350
C30   C     C_R   0.508786 0.961132 0.465426 0.013784
C31   C     C_R   0.546007 0.054818 0.484350 0.015747
C32   C     C_R   0.652789 0.081301 0.535983 -0.374682
C33   C     C_R   0.716629 0.017184 0.575130 0.520131
C34   C     C_R   0.257094 0.498049 0.502087 0.933012
C35   C     C_R   0.427069 0.942712 0.394267 0.145923
C36   C     C_R   0.368503 0.011018 0.354388 0.353590
C37   C     C_R   0.379590 0.095025 0.389706 -0.029532
C38   C     C_R   0.476234 0.120090 0.450535 -0.074294
C39   C     C_R   0.300250 0.156340 0.364085 0.120175
C40   C     C_R   0.329690 0.244300 0.392087 -0.057815
C41   C     C_R   0.498196 0.209831 0.476552 -0.020643
C42   C     C_3   0.895251 0.407299 0.468389 -0.010444
C43   C     C_3   0.037652 0.406720 0.466987 -0.080614
C44   C     C_3   0.964760 0.589921 0.438573 -0.001272
C45   C     C_3   0.922471 0.504298 0.594474 -0.140817
C46   C     C_3   0.878322 0.501238 0.498208 -0.064791
H1    H     H_    0.171544 0.649222 0.453248 0.238800
H2    H     H_    0.444554 0.239804 0.057254 0.157098
H3    H     H_    0.453018 0.465291 0.208732 0.158201
H4    H     H_    0.678286 0.728295 0.265598 0.169348
H5    H     H_    0.789526 0.720021 0.963026 0.166599
H6    H     H_    0.844540 0.349603 0.519796 0.124506
H7    H     H_    0.497155 0.353608 0.153948 0.150104
H8    H     H_    0.723764 0.604411 0.866718 0.150217
H9    H     H_    0.571573 0.236409 0.519763 0.133391
H10   H     H_    0.276326 0.294712 0.369345 0.133961
H11   H     H_    0.422106 0.765805 0.485056 0.194357
H12   H     H_    0.693096 0.153089 0.544608 0.116905
H13   H     H_    0.073205 0.413146 0.398076 0.177030
H14   H     H_    0.932337 0.590832 0.371160 0.166947
H15   H     H_    0.136542 0.577124 0.370711 0.139202
H16   H     H_    0.912583 0.572188 0.611274 0.214656
N1    N     N_R   0.573860 0.731700 0.552730 -0.159491
N2    N     N_R   0.426060 0.268290 0.447230 -0.101570
O1    O     O_R   0.462770 0.383110 0.605620 -0.574094
O2    O     O_R   0.510160 0.531900 0.639510 -0.640573
O3    O     O_R   0.661510 0.425600 0.483070 -0.619497
O4    O     O_R   0.708900 0.574390 0.516960 -0.584809
O5    O     O_R   0.489840 0.468100 0.360490 -0.622002
O6    O     O_R   0.537230 0.616890 0.394380 -0.614560
O7    O     O_R   0.291100 0.425610 0.483040 -0.606483
O8    O     O_R   0.338490 0.574400 0.516930 -0.589603
Zn1   Zn    Zn3+2 0.468350 0.400660 0.477370 0.959297
Zn2   Zn    Zn3+2 0.531650 0.599340 0.522630 0.963259
N3    N     N_2   0.832878 0.380546 0.388213 -0.273356
H17   H     H_    0.819428 0.310667 0.382551 0.231501
C47   C     C_3   0.857049 0.441726 0.305071 -0.771669
H18   H     H_    0.825759 0.399743 0.251548 0.232358
H19   H     H_    0.961113 0.477320 0.292658 0.218770
H20   H     H_    0.797670 0.492783 0.302237 0.241900
O9    O     O_3   0.139263 0.594239 0.617674 -0.782788
H21   H     H_    0.103901 0.603344 0.674254 0.335859
N4    N     N_2   0.956151 0.677681 0.467126 -0.252312
H22   H     H_    0.011790 0.697967 0.518538 0.278378
C48   C     C_3   0.957285 0.755167 0.399067 -0.760506
H23   H     H_    0.945575 0.816147 0.428821 0.249406
H24   H     H_    0.875487 0.734932 0.356143 0.232890
H25   H     H_    0.050119 0.775906 0.359985 0.234714
N5    N     N_2   0.411308 0.176902 0.910576 -0.308756
H26   H     H_    0.330002 0.156895 0.951858 0.222424
C49   C     C_3   0.510902 0.130377 0.937187 -0.777386
H27   H     H_    0.504683 0.109473 0.009191 0.227616
H28   H     H_    0.609293 0.176198 0.917610 0.241806
H29   H     H_    0.496401 0.066087 0.906095 0.251135
N6    N     N_2   0.424295 0.239364 0.730730 -0.258224
H30   H     H_    0.344041 0.184959 0.751417 0.246402
C50   C     C_3   0.531652 0.206480 0.703553 -0.729929
H31   H     H_    0.574765 0.173960 0.760552 0.242287
H32   H     H_    0.606980 0.265631 0.667375 0.234648
H33   H     H_    0.497154 0.152484 0.660603 0.231679
N7    N     N_2   0.497327 0.561435 0.795777 -0.279663
H34   H     H_    0.576660 0.614383 0.771142 0.231433
C51   C     C_3   0.402361 0.588665 0.845916 -0.758794
H35   H     H_    0.347902 0.627492 0.800747 0.245950
H36   H     H_    0.332874 0.526459 0.883327 0.241135
H37   H     H_    0.450971 0.635731 0.891970 0.242745
N8    N     N_2   0.783694 0.795851 0.100292 -0.308604
H38   H     H_    0.753109 0.829982 0.045084 0.223629
C52   C     C_3   0.844165 0.856981 0.161368 -0.796473
H39   H     H_    0.915425 0.919017 0.125422 0.250019
H40   H     H_    0.896671 0.819858 0.209600 0.251951
H41   H     H_    0.770842 0.882082 0.194868 0.232855
O10   O     O_3   0.822924 0.047156 0.624060 -0.702216
H42   H     H_    0.839972 0.115397 0.626048 0.313179
O11   O     O_3   0.308003 0.995493 0.277423 -0.770194
H43   H     H_    0.330014 0.055782 0.237087 0.347474
O12   O     O_3   0.838530 0.883578 0.656110 -0.686786
H44   H     H_    0.860077 0.828891 0.690626 0.363443
O13   O     O_3   0.756900 0.700779 0.627932 -0.808366
H45   H     H_    0.698918 0.638452 0.645780 0.369697
N9    N     N_2   0.054263 0.318412 0.513654 -0.269732
H46   H     H_    0.018738 0.300551 0.577096 0.221432
C53   C     C_3   0.020921 0.237960 0.468120 -0.783496
H47   H     H_    0.066916 0.184002 0.500039 0.267831
H48   H     H_    0.054878 0.257009 0.398504 0.230778
H49   H     H_    0.914890 0.207587 0.471851 0.219848
N10   N     N_2   0.416799 0.861323 0.353742 -0.308377
H50   H     H_    0.327644 0.834974 0.329381 0.261578
C54   C     C_3   0.522386 0.868378 0.292642 -0.755818
H51   H     H_    0.505132 0.802588 0.263817 0.239354
H52   H     H_    0.614865 0.878693 0.326487 0.237987
H53   H     H_    0.529082 0.927721 0.238989 0.251523
N11   N     N_2   0.192534 0.131568 0.310433 -0.308813
H54   H     H_    0.163987 0.187788 0.277960 0.204047
C55   C     C_3   0.084111 0.056188 0.349474 -0.693869
H55   H     H_    0.015856 0.034102 0.298196 0.231836
H56   H     H_    0.032158 0.079889 0.399945 0.225706
H57   H     H_    0.115303 0.994120 0.379925 0.266688
N12   N     N_2   0.835512 0.431948 0.657138 -0.328365
H58   H     H_    0.827546 0.362446 0.653405 0.202932
C56   C     C_3   0.822976 0.452929 0.744741 -0.809976
H59   H     H_    0.752585 0.393353 0.784636 0.244836
H60   H     H_    0.787208 0.516606 0.742945 0.244264
H61   H     H_    0.916998 0.464237 0.776280 0.249073
N13   N     N_2   0.095431 0.430625 0.663372 -0.333249
H62   H     H_    0.022374 0.372222 0.685618 0.211249
C57   C     C_3   0.188387 0.453900 0.729177 -0.750304
H63   H     H_    0.214485 0.389545 0.759386 0.226788
H64   H     H_    0.146244 0.482736 0.781076 0.224099
H65   H     H_    0.276796 0.505700 0.699638 0.301342

loop_
_geom_bond_atom_site_label_1
_geom_bond_atom_site_label_2
_ccdc_geom_bond_type
C55   H57   S    
N7    H34   S    
C23   O5    A    
N6    H30   S    
C32   H12   S    
C26   N1    A    
C44   N4    S    
C16   H2    S    
C50   H31   S    
C53   H47   S    
C45   C46   S    
C7    C11   A    
C12   O4    A    
C42   N3    S    
C30   C35   A    
C1    C5    S    
C15   H7    S    
C28   C29   A    
C57   H64   S    
C54   H51   S    
C56   H60   S    
C48   H23   S    
C30   C31   A    
C47   H20   S    
C4    N13   S    
O4    Zn2   S    
C15   C16   A    
O2    Zn2   S    
C29   C33   A    
C45   H16   S    
C45   N12   S    
O1    Zn1   S    
C17   C18   A    
C18   C19   A    
C42   C46   S    
C3    H1    S    
C20   C24   A    
C41   H9    S    
C51   H35   S    
C57   H63   S    
C50   H32   S    
C56   H59   S    
C4    O9    S    
C19   C20   A    
C40   H10   S    
O6    Zn2   S    
C1    O1    A    
N2    Zn1   S    
O5    Zn1   S    
O3    Zn1   S    
N5    C49   S    
C55   H55   S    
C9    C10   A    
C43   N9    S    
C43   H13   S    
C22   H4    S    
C54   H53   S    
C2    C34   S    
C47   H19   S    
N7    C51   S    
C21   C22   A    
N8    C52   S    
C23   O6    A    
C8    N6    S    
N13   C57   S    
C44   C46   S    
C18   H5    S    
N13   H62   S    
C4    C45   S    
C3    H15   S    
C25   C29   A    
C12   O3    A    
C3    C44   S    
C48   H24   S    
C14   C20   A    
C7    C8    A    
C57   H65   S    
C26   O13   S    
C38   C41   A    
C12   C46   S    
C27   H11   S    
C52   H41   S    
C49   H27   S    
O7    Zn1   S    
C53   H49   S    
C25   C26   A    
C47   H18   S    
O9    H21   S    
C35   C36   A    
C2    C4    S    
N3    H17   S    
N10   C54   S    
C5    C9    A    
C37   C38   A    
C49   H28   S    
C11   C16   A    
N4    H22   S    
C2    C43   S    
N8    H38   S    
C6    C24   A    
C1    O2    A    
C51   H36   S    
C35   N10   S    
N3    C47   S    
N9    H46   S    
C21   N8    S    
C27   N1    A    
O8    Zn2   S    
N4    C48   S    
N11   H54   S    
C56   H61   S    
C42   C43   S    
N10   H50   S    
C34   O8    A    
C39   C40   A    
C50   H33   S    
N12   H58   S    
O10   H42   S    
C39   N11   S    
C48   H25   S    
C24   H3    S    
C55   H56   S    
C36   C37   A    
C19   C21   A    
C31   C32   A    
C10   C13   A    
C25   O12   S    
C5    C8    A    
O13   H45   S    
N6    C50   S    
N1    Zn2   S    
C33   O10   S    
C40   N2    A    
C31   C38   A    
C13   C17   A    
C32   C33   A    
C52   H40   S    
C2    C3    S    
C37   C39   A    
O12   H44   S    
C49   H29   S    
N12   C56   S    
C44   H14   S    
C6    C23   S    
C17   H8    S    
C28   C30   A    
C7    N5    S    
C51   H37   S    
N9    C53   S    
C53   H48   S    
C10   C11   A    
C9    N7    S    
C52   H39   S    
C27   C28   A    
N11   C55   S    
C14   C15   A    
C41   N2    A    
N5    H26   S    
C13   C14   A    
C36   O11   S    
C34   O7    A    
O11   H43   S    
C42   H6    S    
C54   H52   S    
C6    C22   A    
