data_mof_unit_18607.cif
_audit_creation_date              2012-12-10T17:56:19-0500
_audit_creation_method            fapswitch 2.2
_symmetry_space_group_name_H-M    P1
_symmetry_Int_Tables_number       1
_space_group_crystal_system       triclinic
_cell_length_a                    13.002371
_cell_length_b                    10.761437
_cell_length_c                    9.568589
_cell_angle_alpha                 89.328833
_cell_angle_beta                  95.612243
_cell_angle_gamma                 91.068541
_cell_volume                      1332.16173256

loop_
_atom_site_label
_atom_site_type_symbol
_atom_type_description
_atom_site_fract_x
_atom_site_fract_y
_atom_site_fract_z
_atom_type_partial_charge
C1    C     C_R   0.499821 0.262548 0.500596 0.919438
C2    C     C_R   0.500178 0.737452 0.499404 0.919436
C3    C     C_R   0.500528 0.871366 0.498319 -0.248061
C4    C     C_R   0.499471 0.128634 0.501680 -0.248059
C5    C     C_R   0.437165 0.420517 0.068298 -0.059712
C6    C     C_R   0.562835 0.579483 0.931702 -0.059713
C7    C     C_R   0.436938 0.419794 0.920409 0.368773
C8    C     C_R   0.563062 0.580206 0.079591 0.368774
C9    C     C_R   0.300737 0.500667 0.474147 0.872545
C10   C     C_R   0.699263 0.499333 0.525853 0.872548
C11   C     C_R   0.811732 0.495609 0.540727 -0.108425
C12   C     C_R   0.188268 0.504391 0.459273 -0.108426
C13   C     C_R   0.027793 0.547976 0.318665 0.305575
C14   C     C_R   0.972207 0.452024 0.681335 0.305576
C15   C     C_R   0.134831 0.539457 0.331292 -0.130527
C16   C     C_R   0.865169 0.460543 0.668708 -0.130526
C17   C     C_R   0.134411 0.476002 0.575088 -0.149384
C18   C     C_R   0.865588 0.523999 0.424912 -0.149384
C19   C     C_R   0.027005 0.481674 0.564864 0.038303
C20   C     C_R   0.972995 0.518326 0.435136 0.038303
C21   C     C_R   0.415323 0.063714 0.431461 0.222141
C22   C     C_R   0.584677 0.936286 0.568536 0.222143
C23   C     C_R   0.415912 0.934118 0.429609 0.217096
C24   C     C_R   0.584088 0.065882 0.570387 0.217095
Cu1   Cu    Cu3+1 0.500000 0.500020 0.640660 1.052755
Cu2   Cu    Cu3+1 0.500000 0.499980 0.359340 1.052756
H1    H     H_    0.822983 0.550289 0.326867 0.224308
H2    H     H_    0.177017 0.449711 0.673133 0.224308
H3    H     H_    0.823620 0.436991 0.758436 0.208605
H4    H     H_    0.176380 0.563009 0.241564 0.208606
H5    H     H_    0.386979 0.356933 0.119345 0.199852
H6    H     H_    0.613020 0.643067 0.880655 0.199852
N1    N     N_R   0.500030 0.500030 0.852080 -0.220017
N2    N     N_R   0.499970 0.499970 0.147920 -0.220017
O1    O     O_R   0.499990 0.319660 0.618740 -0.529588
O2    O     O_R   0.500010 0.680340 0.381260 -0.529587
O3    O     O_R   0.499990 0.319630 0.381170 -0.573022
O4    O     O_R   0.500010 0.680370 0.618830 -0.573023
O5    O     O_R   0.349000 0.499990 0.599490 -0.565082
O6    O     O_R   0.651000 0.500010 0.400510 -0.565082
O7    O     O_R   0.348990 0.499960 0.361920 -0.577889
O8    O     O_R   0.651010 0.500040 0.638080 -0.577890
Br1   Br    Br    0.961979 0.604046 0.140906 -0.353441
Br2   Br    Br    0.038021 0.395954 0.859094 -0.353441
Br3   Br    Br    0.297597 0.152002 0.343485 -0.356817
Br4   Br    Br    0.702404 0.847997 0.656512 -0.356815
Br5   Br    Br    0.299235 0.842748 0.338483 -0.370867
Br6   Br    Br    0.700769 0.157252 0.661502 -0.370871
Br7   Br    Br    0.345656 0.300824 0.823570 -0.386561
Br8   Br    Br    0.654344 0.699176 0.176430 -0.386560

loop_
_geom_bond_atom_site_label_1
_geom_bond_atom_site_label_2
_ccdc_geom_bond_type
C12   C17   A    
Cu1   O8    S    
C6    H6    S    
C6    N1    A    
Cu2   O3    S    
Cu1   O4    S    
C10   O8    A    
C11   C16   A    
C2    O4    A    
C18   C20   A    
C19   C20   A    
C12   C15   A    
C1    O3    A    
C1    C4    S    
C5    N2    A    
C21   C23   A    
C2    C3    S    
C16   H3    S    
C11   C18   A    
C8    N2    A    
Cu1   O5    S    
C4    C21   A    
C7    N1    A    
Cu2   O6    S    
Cu1   O1    S    
C22   C24   A    
C14   Br2   S    
C17   C19   A    
C21   Br3   S    
C13   C15   A    
C4    C24   A    
C9    C12   S    
C14   C16   A    
C23   Br5   S    
C10   C11   S    
C24   Br6   S    
C8    Br8   S    
C13   Br1   S    
C7    Br7   S    
C15   H4    S    
C10   O6    A    
C2    O2    A    
C5    C7    A    
C1    O1    A    
C3    C22   A    
C6    C8    A    
C3    C23   A    
C13   C20   A    
C22   Br4   S    
Cu1   Cu2   S    
C17   H2    S    
C9    O7    A    
C14   C19   A    
Cu2   N2    S    
C9    O5    A    
C18   H1    S    
Cu2   O2    S    
Cu2   O7    S    
Cu1   N1    S    
C5    H5    S    
