data_mof_unit_42096.cif
_audit_creation_date              2013-03-05T15:53:32-0500
_audit_creation_method            fapswitch 2.2
_symmetry_space_group_name_H-M    P1
_symmetry_Int_Tables_number       1
_space_group_crystal_system       triclinic
_cell_length_a                    30.680947
_cell_length_b                    7.253782
_cell_length_c                    25.87848
_cell_angle_alpha                 89.997681
_cell_angle_beta                  111.943651
_cell_angle_gamma                 89.997858
_cell_volume                      5342.07776711

loop_
_atom_site_label
_atom_site_type_symbol
_atom_site_description
_atom_site_fract_x
_atom_site_fract_y
_atom_site_fract_z
_atom_type_partial_charge
O1    O     O_R   0.295360 0.592990 0.320420 -0.586240
O2    O     O_R   0.704640 0.407010 0.679580 -0.580272
O3    O     O_R   0.204640 0.092990 0.179580 -0.586254
O4    O     O_R   0.795360 0.907010 0.820420 -0.580300
O5    O     O_R   0.294060 0.265620 0.213230 -0.586301
O6    O     O_R   0.705940 0.734380 0.786770 -0.584309
O7    O     O_R   0.205940 0.765620 0.286770 -0.586304
O8    O     O_R   0.794060 0.234380 0.713230 -0.584348
C1    C     C_R   0.303924 0.431949 0.198919 0.942244
C2    C     C_R   0.696329 0.568250 0.800794 0.924002
C3    C     C_R   0.196079 0.931947 0.301083 0.942231
C4    C     C_R   0.803669 0.068251 0.699202 0.923987
O9    O     O_R   0.300850 0.263360 0.322080 -0.582406
O10   O     O_R   0.699150 0.736640 0.677920 -0.591287
O11   O     O_R   0.199150 0.763360 0.177920 -0.582382
O12   O     O_R   0.800850 0.236640 0.822080 -0.591296
O13   O     O_R   0.211480 0.091820 0.289210 -0.594240
O14   O     O_R   0.788520 0.908180 0.710790 -0.584066
O15   O     O_R   0.288520 0.591820 0.210790 -0.594243
O16   O     O_R   0.711480 0.408180 0.789210 -0.584054
C5    C     C_R   0.313554 0.432217 0.342944 0.975883
C6    C     C_R   0.686628 0.567343 0.656909 0.978973
C7    C     C_R   0.186447 0.932227 0.157055 0.975896
C8    C     C_R   0.813375 0.067329 0.843087 0.979040
O17   O     O_3   0.220670 0.426670 0.239090 -0.288145
O18   O     O_3   0.779330 0.573330 0.760910 -0.282979
O19   O     O_3   0.279330 0.926670 0.260910 -0.288153
O20   O     O_3   0.720670 0.073330 0.739090 -0.282946
V1    V     V_3+5 0.255440 0.152290 0.252020 1.146523
V2    V     V_3+5 0.744560 0.847710 0.747980 1.163882
V3    V     V_3+5 0.244560 0.652290 0.247980 1.146524
V4    V     V_3+5 0.755440 0.347710 0.752020 1.163866
C9    C     C_R   0.849657 0.049758 0.900272 -0.222750
C10   C     C_R   0.148062 0.944450 0.101328 -0.215862
C11   C     C_R   0.650355 0.549804 0.599715 -0.222773
C12   C     C_R   0.351962 0.444432 0.398656 -0.215897
C13   C     C_R   0.868392 0.920967 0.993142 0.247190
C14   C     C_R   0.123485 0.968734 0.000086 0.215388
C15   C     C_R   0.631625 0.420810 0.506873 0.247190
C16   C     C_R   0.376578 0.468885 0.499898 0.215486
C17   C     C_R   0.834937 0.990065 0.943026 0.187155
C18   C     C_R   0.158099 0.921201 0.052577 0.190306
C19   C     C_R   0.665081 0.489874 0.556988 0.187117
C20   C     C_R   0.341959 0.421179 0.447430 0.190243
C21   C     C_R   0.898191 0.044323 0.908986 0.193187
C22   C     C_R   0.101684 0.990066 0.096728 0.180083
C23   C     C_R   0.601813 0.544674 0.590972 0.193342
C24   C     C_R   0.398329 0.490102 0.403219 0.180184
C25   C     C_R   0.932731 0.022870 0.964573 -0.006177
C26   C     C_R   0.065195 0.003685 0.042720 0.002048
C27   C     C_R   0.567284 0.523169 0.535379 -0.006228
C28   C     C_R   0.434825 0.503917 0.457216 0.001905
C29   C     C_R   0.917088 0.958827 0.007060 -0.011868
C30   C     C_R   0.079032 0.035244 0.997178 -0.003302
C31   C     C_R   0.582935 0.458897 0.492922 -0.011866
C32   C     C_R   0.420995 0.535606 0.502754 -0.003025
C33   C     C_R   0.982447 0.052312 0.978995 0.060320
C34   C     C_R   0.015664 0.992451 0.031367 0.058171
C35   C     C_R   0.517567 0.552729 0.520925 0.060345
C36   C     C_R   0.484357 0.492724 0.468568 0.058151
C37   C     C_R   0.998539 0.917178 0.069795 -0.245338
C38   C     C_R   0.000423 0.150044 0.944444 -0.243709
C39   C     C_R   0.501490 0.417340 0.430163 -0.245327
C40   C     C_R   0.499579 0.650684 0.555424 -0.243822
C41   C     C_R   0.951059 0.924997 0.061406 0.254427
C42   C     C_R   0.047832 0.137304 0.951544 0.265592
C43   C     C_R   0.548975 0.425062 0.438573 0.254433
C44   C     C_R   0.452170 0.637947 0.548325 0.265850
H1    H     H_    0.022065 0.857900 0.108387 0.176424
H2    H     H_    0.977810 0.237661 0.911620 0.173944
H3    H     H_    0.477972 0.358017 0.391577 0.176426
H4    H     H_    0.522181 0.738442 0.588210 0.174044
C45   C     C_R   0.092642 0.950897 0.482710 0.507538
C46   C     C_R   0.917563 0.153802 0.531042 0.513068
C47   C     C_R   0.407369 0.450817 0.017302 0.507567
C48   C     C_R   0.582403 0.653979 0.968912 0.513114
N1    N     N_R   0.076374 0.009225 0.428314 -0.184009
N2    N     N_R   0.930497 0.067827 0.581772 -0.182626
N3    N     N_R   0.423627 0.509264 0.071685 -0.183997
N4    N     N_R   0.569491 0.567852 0.918210 -0.182623
C49   C     C_R   0.032621 0.087919 0.404610 0.536700
C50   C     C_R   0.972975 0.979078 0.604369 0.529110
C51   C     C_R   0.467365 0.588083 0.095368 0.536764
C52   C     C_R   0.527034 0.478957 0.895640 0.529147
C53   C     C_R   0.004502 0.120036 0.436568 -0.207752
C54   C     C_R   0.005248 0.980290 0.576805 -0.207074
C55   C     C_R   0.495474 0.620213 0.063398 -0.207735
C56   C     C_R   0.494759 0.480171 0.923202 -0.207048
C57   C     C_R   0.019739 0.047177 0.491214 -0.019629
C58   C     C_R   0.990609 0.058182 0.522781 -0.018801
C59   C     C_R   0.480252 0.547216 0.008773 -0.019608
C60   C     C_R   0.509379 0.558216 0.977202 -0.018779
C61   C     C_R   0.064006 0.961994 0.514257 -0.070283
C62   C     C_R   0.946627 0.145872 0.499990 -0.071778
C63   C     C_R   0.436004 0.461901 0.985753 -0.070240
C64   C     C_R   0.553341 0.646051 0.999967 -0.071761
C65   C     C_R   0.961098 0.216668 0.415402 0.386436
C66   C     C_R   0.050869 0.901362 0.600260 0.382001
C67   C     C_R   0.538854 0.716989 0.084536 0.386438
C68   C     C_R   0.449155 0.401102 0.899769 0.381992
C69   C     C_R   0.932654 0.225983 0.446919 -0.208487
C70   C     C_R   0.079223 0.891746 0.568644 -0.199096
C71   C     C_R   0.567296 0.726307 0.053015 -0.208502
C72   C     C_R   0.420802 0.391506 0.931386 -0.199100
O21   O     O_2   0.136581 0.882636 0.506507 -0.542154
O22   O     O_2   0.876556 0.246905 0.510529 -0.546081
O23   O     O_2   0.363442 0.382453 0.993520 -0.542196
O24   O     O_2   0.623386 0.747229 0.989395 -0.546084
O25   O     O_2   0.015675 0.127783 0.349759 -0.488300
O26   O     O_2   0.982998 0.884162 0.652213 -0.497397
O27   O     O_2   0.484307 0.628060 0.150210 -0.488318
O28   O     O_2   0.517035 0.383897 0.847828 -0.497386
H5    H     H_    0.899597 0.299583 0.429809 0.210778
H6    H     H_    0.113806 0.830452 0.587397 0.212954
H7    H     H_    0.600335 0.800019 0.070102 0.210770
H8    H     H_    0.386232 0.330104 0.912650 0.212944
C73   C     C_R   0.912282 0.135504 0.665549 -0.024332
C74   C     C_R   0.114578 0.134990 0.366529 -0.063570
C75   C     C_R   0.587691 0.635310 0.834407 -0.024208
C76   C     C_R   0.385414 0.635023 0.133463 -0.063591
H9    H     H_    0.947209 0.191836 0.686119 0.153542
H10   H     H_    0.099884 0.269494 0.368292 0.146885
H11   H     H_    0.552748 0.691489 0.813813 0.153558
H12   H     H_    0.400093 0.769542 0.131685 0.146913
C77   C     C_R   0.881198 0.133396 0.693675 -0.238709
C78   C     C_R   0.142676 0.112641 0.335142 -0.227270
C79   C     C_R   0.618777 0.633189 0.806285 -0.238825
C80   C     C_R   0.357318 0.612663 0.164851 -0.227265
H13   H     H_    0.892851 0.187642 0.735650 0.137924
H14   H     H_    0.147720 0.230216 0.312368 0.157858
H15   H     H_    0.607110 0.687270 0.764288 0.137962
H16   H     H_    0.352262 0.730241 0.187614 0.157874
C81   C     C_R   0.835489 0.062700 0.668085 -0.127898
C82   C     C_R   0.164149 0.942550 0.333068 -0.171358
C83   C     C_R   0.664506 0.562698 0.831907 -0.127829
C84   C     C_R   0.335858 0.442560 0.166939 -0.171365
C85   C     C_R   0.820720 0.997534 0.612510 0.266636
C86   C     C_R   0.155422 0.790948 0.362966 0.257222
C87   C     C_R   0.679291 0.497744 0.887506 0.266622
C88   C     C_R   0.344603 0.290953 0.137059 0.257220
C89   C     C_R   0.852601 0.997469 0.585125 -0.077555
C90   C     C_R   0.125407 0.814025 0.392498 -0.059269
C91   C     C_R   0.647408 0.497682 0.914889 -0.077505
C92   C     C_R   0.374620 0.314034 0.107530 -0.059187
H17   H     H_    0.841533 0.945147 0.542926 0.153822
H18   H     H_    0.117844 0.697683 0.414055 0.141042
H19   H     H_    0.658490 0.445517 0.957107 0.153829
H20   H     H_    0.382197 0.197683 0.085989 0.141090
C93   C     C_R   0.898393 0.066488 0.611089 0.126805
C94   C     C_R   0.105469 0.985961 0.395487 0.140998
C95   C     C_R   0.601596 0.566503 0.888895 0.126772
C96   C     C_R   0.394538 0.485988 0.104520 0.140961
C97   C     C_3   0.939873 0.918325 0.113550 -0.894255
H21   H     H_    0.906048 0.986708 0.107542 0.263607
H22   H     H_    0.940291 0.773976 0.127943 0.254530
H23   H     H_    0.966828 0.996533 0.147547 0.255613
C98   C     C_3   0.064323 0.256451 0.914590 -0.932711
H24   H     H_    0.052237 0.197300 0.871953 0.264012
H25   H     H_    0.049389 0.397362 0.911899 0.247380
H26   H     H_    0.103044 0.273373 0.931439 0.262298
C99   C     C_3   0.560183 0.418253 0.386444 -0.894288
H27   H     H_    0.594036 0.486424 0.392471 0.263616
H28   H     H_    0.559722 0.273887 0.372051 0.254514
H29   H     H_    0.533262 0.496587 0.352443 0.255646
C100  C     C_3   0.435663 0.757343 0.585210 -0.933899
H30   H     H_    0.448118 0.699375 0.627994 0.264049
H31   H     H_    0.450236 0.898632 0.587391 0.247593
H32   H     H_    0.396925 0.772925 0.568662 0.262625
C101  C     C_3   0.771160 0.936859 0.579529 -1.023052
H33   H     H_    0.748430 0.934437 0.604196 0.251722
H34   H     H_    0.755130 0.032451 0.543949 0.260578
H35   H     H_    0.771857 0.797145 0.562558 0.264996
C102  C     C_3   0.178415 0.605782 0.365958 -0.951418
H36   H     H_    0.165431 0.541392 0.324108 0.257338
H37   H     H_    0.217134 0.622674 0.381482 0.255699
H38   H     H_    0.170491 0.510048 0.394791 0.237722
C103  C     C_3   0.728868 0.437297 0.920511 -1.023072
H39   H     H_    0.751595 0.434818 0.895840 0.251691
H40   H     H_    0.744872 0.533062 0.956046 0.260565
H41   H     H_    0.728210 0.297652 0.937547 0.265011
C104  C     C_3   0.321624 0.105779 0.134079 -0.951526
H42   H     H_    0.334607 0.041418 0.175936 0.257349
H43   H     H_    0.282904 0.122662 0.118549 0.255726
H44   H     H_    0.329556 0.010037 0.105257 0.237728
C105  C     C_3   0.094256 0.055123 0.148631 -0.994628
H45   H     H_    0.060556 0.129474 0.138847 0.262872
H46   H     H_    0.096472 0.936771 0.176725 0.235866
H47   H     H_    0.121403 0.157790 0.171459 0.260617
C106  C     C_3   0.910659 0.026184 0.857596 -1.003802
H48   H     H_    0.909622 0.163343 0.838175 0.238105
H49   H     H_    0.945016 0.957852 0.866672 0.268259
H50   H     H_    0.885453 0.934237 0.826258 0.241639
C107  C     C_3   0.405733 0.554998 0.351287 -0.994601
H51   H     H_    0.439423 0.629385 0.361037 0.262858
H52   H     H_    0.403527 0.436554 0.323231 0.235881
H53   H     H_    0.378571 0.657588 0.328432 0.260595
C108  C     C_3   0.589313 0.526921 0.642349 -1.003873
H54   H     H_    0.590348 0.664201 0.661698 0.238213
H55   H     H_    0.554948 0.458673 0.633282 0.268263
H56   H     H_    0.614500 0.435066 0.673746 0.241473
C109  C     C_3   0.206043 0.854758 0.055859 -0.943289
H57   H     H_    0.231657 0.834275 0.098878 0.236593
H58   H     H_    0.202510 0.719992 0.034408 0.258779
H59   H     H_    0.221571 0.956698 0.035681 0.259273
C110  C     C_3   0.782923 0.975121 0.932451 -0.924727
H60   H     H_    0.761629 0.073783 0.900249 0.234876
H61   H     H_    0.770123 0.834066 0.917965 0.255014
H62   H     H_    0.776496 0.006761 0.970977 0.259867
C111  C     C_3   0.294045 0.354576 0.444201 -0.943130
H63   H     H_    0.268444 0.333679 0.401198 0.236622
H64   H     H_    0.297637 0.220008 0.465774 0.258926
H65   H     H_    0.278475 0.456640 0.464290 0.259141
C112  C     C_3   0.717096 0.474691 0.567586 -0.924506
H66   H     H_    0.738414 0.573237 0.599805 0.234818
H67   H     H_    0.729855 0.333574 0.582055 0.254985
H68   H     H_    0.723544 0.506321 0.529072 0.259824
C113  C     C_3   0.851812 0.779749 0.025186 -0.922359
H69   H     H_    0.824731 0.688187 0.996128 0.249849
H70   H     H_    0.880172 0.683486 0.049071 0.256128
H71   H     H_    0.836527 0.848886 0.052770 0.260786
C114  C     C_3   0.132393 0.926246 0.947469 -0.881049
H72   H     H_    0.145312 0.782798 0.948745 0.253186
H73   H     H_    0.099921 0.932113 0.909547 0.260594
H74   H     H_    0.158892 0.022911 0.943168 0.258101
C115  C     C_3   0.648187 0.279402 0.474868 -0.922429
H75   H     H_    0.675226 0.187732 0.503951 0.249829
H76   H     H_    0.619805 0.183267 0.450965 0.256137
H77   H     H_    0.663521 0.348372 0.447304 0.260794
C116  C     C_3   0.367740 0.426162 0.552546 -0.881928
H78   H     H_    0.355130 0.282340 0.551382 0.253226
H79   H     H_    0.400164 0.433125 0.590482 0.260895
H80   H     H_    0.341037 0.521919 0.556742 0.258259
N5    N     N_R   0.946403 0.316197 0.363777 0.268562
O29   O     O_R   0.973258 0.445097 0.356918 -0.346270
O30   O     O_R   0.902953 0.306041 0.329134 -0.339521
N6    N     N_R   0.070321 0.838763 0.656907 0.268774
O31   O     O_R   0.075442 0.954579 0.697166 -0.312648
O32   O     O_R   0.091824 0.680631 0.668529 -0.347869
N7    N     N_R   0.553526 0.816662 0.136131 0.268556
O33   O     O_R   0.526636 0.945491 0.142957 -0.346359
O34   O     O_R   0.596980 0.806703 0.170774 -0.339529
N8    N     N_R   0.429718 0.338335 0.843141 0.268776
O35   O     O_R   0.424575 0.454047 0.802847 -0.312595
O36   O     O_R   0.408249 0.180137 0.831565 -0.347894

loop_
_geom_bond_atom_site_label_1
_geom_bond_atom_site_label_2
_geom_bond_distance
_ccdc_geom_bond_type
O17   V3    1.772769 S    
N4    C95   1.450632 S    
C67   C71   1.401218 A    
C16   C116  1.517212 S    
O1    C5    1.329716 A    
C100  H30   1.110157 S    
C55   C59   1.415450 A    
C24   C107  1.519037 S    
O19   V1    1.772702 S    
C9    C21   1.420824 A    
C109  H57   1.106853 S    
C46   C62   1.407055 A    
O3    C7    1.329717 A    
N7    O33   1.301529 A    
C10   C18   1.416077 A    
C45   C61   1.407475 A    
C92   H20   1.083510 S    
C11   C23   1.420862 A    
C115  H77   1.109607 S    
C99   H27   1.107524 S    
C105  H45   1.108317 S    
C89   C93   1.403756 A    
C33   C38   1.405246 A    
C5    C12   1.485017 S    
C112  H66   1.107460 S    
C113  H71   1.109605 S    
C81   C85   1.417808 A    
C6    C11   1.488046 S    
C35   C40   1.405274 A    
C52   O28   1.347914 S    
C36   C39   1.397721 A    
C87   C103  1.504770 S    
C50   O26   1.347915 S    
C14   C114  1.517220 S    
O9    V1    1.997409 S    
C79   C83   1.405049 A    
C14   C18   1.419043 A    
C114  H74   1.110282 S    
C80   C84   1.409101 A    
C74   H10   1.082869 S    
O4    C8    1.326556 A    
C105  H46   1.110502 S    
C78   H14   1.080191 S    
C77   C81   1.405065 A    
C104  H42   1.107871 S    
C60   C64   1.406583 A    
C111  H65   1.110041 S    
O13   V1    1.976840 S    
N6    O31   1.301393 A    
C38   H2    1.079941 S    
O2    V4    1.986119 S    
C20   C111  1.519764 S    
C101  H33   1.107642 S    
O3    V1    1.986176 S    
C90   H18   1.083510 S    
C41   C97   1.512350 S    
C28   C36   1.438268 A    
C115  H76   1.106652 S    
C72   H8    1.083566 S    
C28   C32   1.412595 A    
C87   C91   1.406095 A    
C1    O15   1.330814 A    
C68   C72   1.401069 A    
C15   C31   1.426583 A    
C56   C60   1.416384 A    
C62   C69   1.402692 A    
C2    O16   1.326001 A    
C103  H40   1.109917 S    
O12   C8    1.339893 A    
O2    C6    1.326572 A    
N8    O36   1.301180 A    
C10   C22   1.421892 A    
C13   C113  1.520171 S    
C97   H22   1.109797 S    
C11   C19   1.410351 A    
N5    O29   1.301525 A    
C55   C67   1.421070 A    
C84   C88   1.426327 A    
C13   C29   1.426601 A    
C44   C100  1.509632 S    
C107  H53   1.108878 S    
C34   C37   1.397724 A    
O11   C7    1.336599 A    
C92   C96   1.403914 A    
O15   V3    1.976836 S    
C35   C36   1.425374 A    
C48   O24   1.349626 S    
C102  H36   1.107873 S    
C57   C61   1.405901 A    
C109  H58   1.109328 S    
C100  H31   1.111153 S    
O10   V2    1.997409 S    
O16   V4    1.976833 S    
C80   H16   1.080180 S    
C99   H28   1.109801 S    
C74   C94   1.401715 A    
C58   C62   1.406582 A    
O5    V1    1.994098 S    
C102  H37   1.109474 S    
O1    V3    1.986120 S    
C75   C95   1.403463 A    
C39   C43   1.391408 A    
C76   C96   1.401722 A    
O7    V3    1.994093 S    
C38   C42   1.399394 A    
C47   C63   1.407470 A    
N4    C52   1.373033 A    
C26   C34   1.438276 A    
C101  H35   1.107914 S    
C88   C92   1.409291 A    
C47   O23   1.349533 S    
C53   C65   1.421069 A    
C2    C83   1.480105 S    
C71   H7    1.083527 S    
C111  H63   1.106840 S    
C86   C90   1.409300 A    
C104  H43   1.109457 S    
C59   C60   1.420606 A    
C53   C57   1.415452 A    
O18   V4    1.772771 S    
C105  H47   1.108883 S    
C23   C27   1.441290 A    
C16   C32   1.421803 A    
C113  H69   1.109082 S    
C32   C44   1.419097 A    
C98   H24   1.110536 S    
O8    V4    1.994099 S    
C61   C70   1.402621 A    
C108  H56   1.109926 S    
O7    C3    1.329717 A    
O5    C1    1.329725 A    
C116  H78   1.109186 S    
C70   H6    1.083561 S    
C8    C9    1.488005 S    
C66   C70   1.401071 A    
C46   O22   1.349628 S    
C114  H72   1.109549 S    
C43   C99   1.512345 S    
C65   C69   1.401213 A    
C45   O21   1.349528 S    
C14   C30   1.421891 A    
C21   C25   1.441243 A    
O8    C4    1.323201 A    
C103  H41   1.107910 S    
C65   N5    1.434938 S    
C29   C41   1.424378 A    
C86   C102  1.505585 S    
C107  H52   1.110504 S    
C115  H75   1.109087 S    
O9    C5    1.336605 A    
N7    O34   1.301188 A    
C26   C30   1.412641 A    
C97   H23   1.111786 S    
N5    O30   1.301184 A    
C51   C55   1.419774 A    
C56   C68   1.421381 A    
C103  H39   1.107652 S    
C37   C41   1.391417 A    
O14   V2    1.976845 S    
C110  H60   1.107465 S    
C21   C106  1.520682 S    
C100  H32   1.108305 S    
O6    V2    1.994098 S    
C49   O25   1.348022 S    
C107  H51   1.108320 S    
C98   H26   1.108774 S    
C75   H11   1.082755 S    
C4    C81   1.480125 S    
C54   C58   1.416387 A    
C109  H59   1.110085 S    
C51   O27   1.348023 S    
C3    C82   1.502233 S    
C113  H70   1.106656 S    
C19   C112  1.518903 S    
C40   C44   1.399404 A    
C91   H19   1.083863 S    
C99   H29   1.111780 S    
C68   N8    1.434371 S    
C63   C72   1.402622 A    
C101  H34   1.109929 S    
C112  H68   1.110177 S    
C37   H1    1.079098 S    
C106  H48   1.109722 S    
C85   C89   1.406101 A    
C3    O13   1.330822 A    
C7    C10   1.484992 S    
C91   C95   1.403758 A    
C104  H44   1.110678 S    
N8    O35   1.301392 A    
C85   C101  1.504782 S    
C48   N4    1.371294 A    
C39   H3    1.079093 S    
N2    C50   1.373028 A    
N1    C94   1.453863 S    
C82   C86   1.426340 A    
C25   C33   1.444358 A    
C102  H38   1.110678 S    
C76   C80   1.397315 A    
O11   V3    1.997304 S    
C30   C42   1.419153 A    
C73   H9    1.082759 S    
O12   V4    1.997306 S    
C22   C26   1.430758 A    
C88   C104  1.505546 S    
C69   H5    1.083527 S    
C114  H73   1.107587 S    
C83   C87   1.417788 A    
C9    C17   1.410325 A    
C13   C17   1.411294 A    
C90   C94   1.403910 A    
C79   H15   1.082770 S    
C108  H55   1.107666 S    
C97   H21   1.107522 S    
C112  H67   1.109800 S    
C67   N7    1.434944 S    
C31   C43   1.424366 A    
C116  H79   1.107270 S    
C50   C54   1.420303 A    
C106  H50   1.109923 S    
C48   C64   1.407053 A    
N3    C51   1.374290 A    
O10   C6    1.339890 A    
C33   C34   1.425338 A    
C52   C56   1.420301 A    
C73   C77   1.399395 A    
C25   C29   1.431565 A    
O20   V2    1.772702 S    
C89   H17   1.083867 S    
C111  H64   1.109331 S    
N6    O32   1.301179 A    
C12   C24   1.421936 A    
C27   C31   1.431574 A    
C40   H4    1.079957 S    
C22   C105  1.519048 S    
C17   C110  1.518880 S    
C108  H54   1.109729 S    
C54   C66   1.421379 A    
O4    V2    1.986179 S    
C15   C115  1.520188 S    
C12   C20   1.416099 A    
O6    C2    1.323188 A    
C59   C63   1.405900 A    
C116  H80   1.109905 S    
C1    C84   1.502254 S    
C77   H13   1.082773 S    
C16   C20   1.419055 A    
C27   C35   1.444373 A    
C78   C82   1.409102 A    
C98   H25   1.111606 S    
N1    C49   1.374278 A    
C46   N2    1.371286 A    
C64   C71   1.402698 A    
C4    O14   1.326014 A    
C45   N1    1.372788 A    
C23   C108  1.520683 S    
C18   C109  1.519824 S    
C73   C93   1.403457 A    
C110  H62   1.110179 S    
C74   C78   1.397310 A    
C106  H49   1.107666 S    
C57   C58   1.420611 A    
C24   C28   1.430751 A    
C110  H61   1.109808 S    
C47   N3    1.372801 A    
C15   C19   1.411271 A    
C42   C98   1.509662 S    
C49   C53   1.419774 A    
C76   H12   1.082868 S    
N2    C93   1.450629 S    
N3    C96   1.453877 S    
C66   N6    1.434369 S    
C75   C79   1.399400 A    
