data_mof_unit_6533.cif
_audit_creation_date              2012-12-10T17:31:07-0500
_audit_creation_method            fapswitch 2.2
_symmetry_space_group_name_H-M    P1
_symmetry_Int_Tables_number       1
_space_group_crystal_system       triclinic
_cell_length_a                    12.064697
_cell_length_b                    12.85265
_cell_length_c                    15.27617
_cell_angle_alpha                 86.194418
_cell_angle_beta                  116.611957
_cell_angle_gamma                 93.443389
_cell_volume                      2111.9360981

loop_
_atom_site_label
_atom_site_type_symbol
_atom_type_description
_atom_site_fract_x
_atom_site_fract_y
_atom_site_fract_z
_atom_type_partial_charge
C1    C     C_R   0.475238 0.299949 0.494289 0.998681
C2    C     C_R   0.524510 0.700263 0.505625 0.979094
C3    C     C_R   0.572894 0.669056 0.063367 0.765575
C4    C     C_R   0.337908 0.510624 0.870465 0.740977
C5    C     C_R   0.659314 0.689915 0.026853 -0.205946
C6    C     C_R   0.253659 0.485415 0.907984 -0.195696
C7    C     C_R   0.540370 0.811922 0.511589 -0.222044
C8    C     C_R   0.456816 0.188944 0.485890 -0.225452
C9    C     C_R   0.349587 0.031175 0.501919 0.495284
C10   C     C_R   0.644230 0.970448 0.491801 0.499549
C11   C     C_R   0.362420 0.138534 0.502787 -0.256586
C12   C     C_R   0.634109 0.862811 0.494038 -0.223324
C13   C     C_R   0.531752 0.132931 0.458844 0.452892
C14   C     C_R   0.461899 0.868207 0.535187 0.477197
C15   C     C_R   0.543032 0.026575 0.485236 -0.187379
C16   C     C_R   0.449499 0.974196 0.506966 -0.192424
C17   C     C_R   0.991375 0.586192 0.398215 -0.285712
C18   C     C_R   0.009209 0.415062 0.602786 -0.247738
C19   C     C_R   0.111962 0.579869 0.406764 0.580837
C20   C     C_R   0.888177 0.420397 0.593623 0.586770
C21   C     C_R   0.166767 0.465246 0.547295 0.006877
C22   C     C_R   0.833487 0.535136 0.453013 -0.008125
C23   C     C_R   0.579022 0.504482 0.680804 0.999498
C24   C     C_R   0.421439 0.499326 0.318328 1.018801
C25   C     C_R   0.044451 0.469950 0.537986 0.001206
C26   C     C_R   0.956090 0.531102 0.462881 -0.014264
C27   C     C_R   0.630846 0.533835 0.783699 -0.290344
C28   C     C_R   0.369148 0.498427 0.210534 -0.320298
C29   C     C_R   0.740675 0.655698 0.913181 -0.146142
C30   C     C_R   0.216342 0.447952 0.048939 -0.193058
C31   C     C_R   0.727086 0.611998 0.827072 0.331304
C32   C     C_R   0.258040 0.442189 0.150315 0.433524
C33   C     C_R   0.556101 0.502709 0.829940 0.638799
C34   C     C_R   0.439104 0.551722 0.167329 0.614093
C35   C     C_R   0.553772 0.562988 0.902329 -0.006094
C36   C     C_R   0.400448 0.551685 0.065575 0.005470
C37   C     C_R   0.652876 0.635009 0.948771 -0.081488
C38   C     C_R   0.288358 0.497268 0.007079 -0.100900
C39   C     C_R   0.457243 0.552253 0.931336 -0.111405
C40   C     C_R   0.477573 0.591628 0.021944 -0.125889
H1    H     H_    0.730872 0.750031 0.059297 0.198035
H2    H     H_    0.164273 0.450163 0.860836 0.200300
H3    H     H_    0.922299 0.631389 0.338461 0.224298
H4    H     H_    0.078382 0.370129 0.662722 0.230082
H5    H     H_    0.814116 0.713894 0.947742 0.204533
H6    H     H_    0.132551 0.404334 0.002919 0.208123
H7    H     H_    0.704106 0.818674 0.488191 0.224003
H8    H     H_    0.294026 0.182952 0.510605 0.221451
H9    H     H_    0.766271 0.583396 0.395041 0.208130
H10   H     H_    0.233882 0.416463 0.604819 0.216360
N1    N     N_R   0.799120 0.480200 0.517090 -0.151446
N2    N     N_R   0.200880 0.519800 0.482910 -0.162433
O1    O     O_R   0.580150 0.341050 0.504560 -0.553282
O2    O     O_R   0.419850 0.658950 0.495440 -0.548003
O3    O     O_R   0.388090 0.353760 0.493600 -0.616873
O4    O     O_R   0.611910 0.646240 0.506400 -0.614078
O5    O     O_R   0.650890 0.490020 0.640860 -0.540008
O6    O     O_R   0.349110 0.509980 0.359140 -0.544566
O7    O     O_R   0.458830 0.502730 0.629890 -0.584301
O8    O     O_R   0.541170 0.497270 0.370110 -0.569099
Zn1   Zn    Zn3+2 0.628240 0.491510 0.507320 1.131522
Zn2   Zn    Zn3+2 0.371760 0.508490 0.492680 1.115035
S1    S     S_3+6 0.870263 0.354898 0.693979 0.082712
O9    O     O_2   0.889430 0.432345 0.769214 -0.331819
O10   O     O_2   0.748174 0.298124 0.666379 -0.243390
O11   O     O_3   0.980510 0.265752 0.747701 -0.524771
H11   H     H_    0.979014 0.245023 0.810803 0.403147
S2    S     S_3+6 0.128935 0.641512 0.304975 0.074162
O12   O     O_2   0.249920 0.700070 0.331741 -0.249263
O13   O     O_2   0.113520 0.559975 0.234380 -0.274190
O14   O     O_3   0.015737 0.727163 0.245850 -0.566105
H12   H     H_    0.019408 0.746137 0.183253 0.398473
F1    F     F_    0.553206 0.591230 0.227316 -0.623663
F2    F     F_    0.484519 0.413705 0.802209 -0.609615
S3    S     S_3+6 0.178295 0.345784 0.192167 0.099209
O15   O     O_2   0.222429 0.340098 0.300877 -0.272778
O16   O     O_2   0.042055 0.366897 0.142293 -0.239813
O17   O     O_3   0.197958 0.229389 0.157815 -0.492008
H13   H     H_    0.153369 0.178193 0.183098 0.405519
S4    S     S_3+6 0.823609 0.674235 0.776894 0.104009
O18   O     O_2   0.820152 0.626422 0.688918 -0.248931
O19   O     O_2   0.786083 0.785612 0.749489 -0.202061
O20   O     O_3   0.970918 0.675360 0.865199 -0.489188
H14   H     H_    0.988897 0.601150 0.886179 0.364274
F3    F     F_    0.573708 0.734791 0.129611 -0.576524
F4    F     F_    0.297902 0.502693 0.772822 -0.658208
S5    S     S_3+6 0.423200 0.817009 0.630180 0.102397
O21   O     O_2   0.522188 0.745173 0.697646 -0.348897
O22   O     O_2   0.417292 0.903806 0.689057 -0.218868
O23   O     O_3   0.287182 0.748984 0.584055 -0.492102
H15   H     H_    0.283368 0.711032 0.641292 0.396496
S6    S     S_3+6 0.566116 0.185466 0.362174 0.099246
O24   O     O_2   0.467398 0.259406 0.297489 -0.302405
O25   O     O_2   0.689191 0.243993 0.402412 -0.241533
O26   O     O_3   0.567477 0.088754 0.293737 -0.477507
H16   H     H_    0.584658 0.124055 0.241245 0.410650
S7    S     S_3+6 0.198849 0.977368 0.472853 0.110562
O27   O     O_2   0.104429 0.053240 0.405262 -0.279821
O28   O     O_2   0.181540 0.959023 0.564196 -0.187865
O29   O     O_3   0.175244 0.865336 0.415594 -0.458798
H17   H     H_    0.094914 0.836440 0.410982 0.412081
S8    S     S_3+6 0.793860 0.026815 0.520254 0.134360
O30   O     O_2   0.812260 0.127129 0.570982 -0.217427
O31   O     O_2   0.890453 0.952430 0.587710 -0.209898
O32   O     O_3   0.812513 0.048465 0.417857 -0.458512
H18   H     H_    0.893067 0.087418 0.439110 0.414764

loop_
_geom_bond_atom_site_label_1
_geom_bond_atom_site_label_2
_ccdc_geom_bond_type
O6    Zn2   S    
S5    O21   D    
S1    O10   D    
C8    C13   A    
C5    C37   A    
C3    F3    S    
C1    C8    S    
O26   H16   S    
N1    Zn1   S    
C32   S3    S    
S7    O27   D    
C31   S4    S    
C27   C33   A    
C23   O7    A    
C17   C26   A    
C35   C37   A    
C9    C16   A    
C14   S5    S    
C20   N1    A    
C10   C15   A    
S4    O20   S    
C4    F4    S    
C15   C16   A    
O3    Zn2   S    
C30   C38   A    
S8    O32   S    
C1    O1    A    
S6    O24   D    
C36   C40   A    
C5    H1    S    
C17   C19   A    
O1    Zn1   S    
C19   N2    A    
C7    C14   A    
C2    C7    S    
S2    O12   D    
C6    C38   A    
C23   C27   S    
C34   C36   A    
O11   H11   S    
S1    O11   S    
C28   C34   A    
C11   H8    S    
C18   C25   A    
C12   H7    S    
C21   H10   S    
S7    O28   D    
C7    C12   A    
C27   C31   A    
C24   O6    A    
C28   C32   A    
C4    C6    A    
C2    O2    A    
C39   C40   A    
O17   H13   S    
O2    Zn2   S    
C25   C26   A    
S6    O26   S    
C29   H5    S    
O8    Zn1   S    
C35   C39   A    
S3    O15   D    
C17   H3    S    
C18   H4    S    
S3    O16   D    
O20   H14   S    
C4    C39   A    
C10   S8    S    
C24   O8    A    
S6    O25   D    
C19   S2    S    
S2    O14   S    
S8    O31   D    
C9    C11   A    
C10   C12   A    
C22   H9    S    
S4    O19   D    
C3    C40   A    
C13   C15   A    
C13   S6    S    
C6    H2    S    
C14   C16   A    
S7    O29   S    
C23   O5    A    
C21   C25   A    
O7    Zn2   S    
C9    S7    S    
C30   H6    S    
C24   C28   S    
S4    O18   D    
C3    C5    A    
O5    Zn1   S    
O32   H18   S    
C20   S1    S    
S5    O22   D    
C1    O3    A    
O14   H12   S    
C29   C31   A    
N2    Zn2   S    
C30   C32   A    
O23   H15   S    
C8    C11   A    
C36   C38   A    
O29   H17   S    
C33   C35   A    
C18   C20   A    
S8    O30   D    
S3    O17   S    
C34   F1    S    
S1    O9    D    
C33   F2    S    
S2    O13   D    
C22   C26   A    
S5    O23   S    
C29   C37   A    
O4    Zn1   S    
C2    O4    A    
C21   N2    A    
C22   N1    A    
