data_mof_unit_64194.cif
_audit_creation_date              2012-12-10T17:52:40-0500
_audit_creation_method            fapswitch 2.2
_symmetry_space_group_name_H-M    P1
_symmetry_Int_Tables_number       1
_space_group_crystal_system       triclinic
_cell_length_a                    18.809854
_cell_length_b                    18.636661
_cell_length_c                    18.624681
_cell_angle_alpha                 109.136973
_cell_angle_beta                  109.441393
_cell_angle_gamma                 109.273268
_cell_volume                      5060.51072921

loop_
_atom_site_label
_atom_site_type_symbol
_atom_type_description
_atom_site_fract_x
_atom_site_fract_y
_atom_site_fract_z
_atom_type_partial_charge
C1    C     C_R   0.120445 0.120263 0.500029 0.914067
C2    C     C_R   0.309736 0.330060 0.576452 0.364728
C3    C     C_R   0.245108 0.266804 0.576012 -0.205339
C4    C     C_R   0.122581 0.002077 0.620055 0.893904
C5    C     C_R   0.187056 0.186195 0.500028 -0.112176
C6    C     C_R   0.736640 0.923315 0.253674 -0.253507
C7    C     C_R   0.671543 0.922913 0.190612 -0.174832
C8    C     C_R   0.685850 0.000036 0.187461 -0.085537
C9    C     C_R   0.764461 0.077684 0.247532 -0.203668
C10   C     C_R   0.829189 0.078803 0.311693 0.381372
C11   C     C_R   0.814747 0.001129 0.314197 -0.096738
C12   C     C_R   0.260552 0.087516 0.761215 0.053245
C13   C     C_R   0.829611 0.758809 0.526838 0.080577
C14   C     C_R   0.763720 0.696598 0.525955 -0.179389
C15   C     C_R   0.683375 0.692373 0.501659 -0.134564
C16   C     C_R   0.879781 0.880371 0.499954 0.858865
C17   C     C_R   0.665582 0.751859 0.476842 0.139566
C18   C     C_R   0.731698 0.815229 0.476241 0.119136
C19   C     C_R   0.811927 0.815936 0.499437 -0.125916
C20   C     C_R   0.500568 0.880159 0.880605 0.854435
C21   C     C_R   0.380707 0.003539 0.883243 0.887874
C22   C     C_R   0.499700 0.120198 0.120043 0.899164
C23   C     C_R   0.193805 0.006231 0.685909 -0.211794
C24   C     C_R   0.619917 0.999762 0.120451 0.873026
C25   C     C_R   0.499837 0.620273 0.620554 0.890111
C26   C     C_R   0.380387 0.379747 0.500238 0.944580
C27   C     C_R   0.499998 0.379936 0.380045 0.975695
C28   C     C_R   0.880253 0.000412 0.379917 0.910001
C29   C     C_R   0.619359 0.623152 0.501805 0.900280
C30   C     C_R   0.531325 0.759051 0.837519 0.147595
C31   C     C_R   0.529540 0.694611 0.771099 -0.113336
C32   C     C_R   0.500062 0.686423 0.687627 -0.072222
C33   C     C_R   0.472309 0.742124 0.668922 -0.181866
C34   C     C_R   0.193744 0.927855 0.675945 0.377030
C35   C     C_R   0.474112 0.806467 0.733811 -0.192184
C36   C     C_R   0.502491 0.814184 0.816708 -0.061140
C37   C     C_R   0.516641 0.265640 0.187275 -0.221140
C38   C     C_R   0.516416 0.329683 0.250876 0.354625
C39   C     C_R   0.500232 0.313950 0.314122 -0.207089
C40   C     C_R   0.270737 0.168780 0.768203 -0.137305
C41   C     C_R   0.484437 0.234703 0.313839 0.324943
C42   C     C_R   0.483102 0.170594 0.248807 -0.196784
C43   C     C_R   0.499511 0.186356 0.186172 -0.154464
C44   C     C_R   0.333994 0.246891 0.845263 -0.121721
C45   C     C_R   0.254550 0.929324 0.743182 -0.240024
C46   C     C_R   0.388660 0.245921 0.916365 -0.119973
C47   C     C_R   0.382507 0.167121 0.909484 -0.152542
C48   C     C_R   0.320514 0.087489 0.830840 0.096435
C49   C     C_3   0.919213 0.766313 0.557565 -0.326178
C50   C     C_3   0.935995 0.712575 0.601556 -0.808875
C51   C     C_3   0.578046 0.748876 0.452623 -0.400265
C52   C     C_3   0.513249 0.688939 0.354478 -0.749310
C53   C     C_3   0.716732 0.880436 0.448856 -0.394923
C54   C     C_3   0.735655 0.961915 0.525387 -0.790072
C55   C     C_3   0.564199 0.771776 0.930037 -0.414516
C56   C     C_R   0.316427 0.007440 0.819705 -0.170694
C57   C     C_3   0.602371 0.714689 0.948123 -0.844974
C58   C     C_3   0.260048 0.208428 0.338136 -0.366204
C59   C     C_3   0.188349 0.210600 0.271079 -0.807743
C60   C     C_R   0.192714 0.168190 0.423868 -0.162894
C61   C     C_R   0.256344 0.231104 0.422339 0.120868
C62   C     C_R   0.315216 0.312370 0.499705 -0.129428
Cl1   Cl    Cl    0.120196 0.825211 0.580719 -0.634942
Cl2   Cl    Cl    0.928359 0.177135 0.385161 -0.594817
Cl3   Cl    Cl    0.540118 0.429794 0.251468 -0.625023
Cl4   Cl    Cl    0.464676 0.212723 0.392561 -0.635058
Cl5   Cl    Cl    0.380487 0.431930 0.673220 -0.630558
H1    H     H_    0.240625 0.280312 0.635082 0.180360
H2    H     H_    0.529415 0.277378 0.138415 0.181552
H3    H     H_    0.470710 0.109149 0.247943 0.193363
H4    H     H_    0.340489 0.308371 0.849812 0.156567
H5    H     H_    0.436852 0.306499 0.976611 0.162798
H6    H     H_    0.426414 0.169311 0.966230 0.138094
H7    H     H_    0.254590 0.868961 0.735136 0.191706
H8    H     H_    0.146972 0.105319 0.365205 0.167042
H9    H     H_    0.922588 0.727546 0.656879 0.248297
H10   H     H_    0.895681 0.641691 0.553441 0.260768
H11   H     H_    0.004961 0.729175 0.628073 0.291917
H12   H     H_    0.725959 0.863511 0.256057 0.152709
H13   H     H_    0.929718 0.746789 0.500544 0.263502
H14   H     H_    0.968904 0.835751 0.605934 0.209754
H15   H     H_    0.530689 0.718946 0.316120 0.229056
H16   H     H_    0.510947 0.624948 0.329679 0.296497
H17   H     H_    0.447524 0.677680 0.342079 0.235049
H18   H     H_    0.550724 0.729368 0.491824 0.204571
H19   H     H_    0.584050 0.814087 0.470724 0.205408
H20   H     H_    0.699657 0.944862 0.559151 0.236504
H21   H     H_    0.805444 0.001704 0.574588 0.279832
H22   H     H_    0.716422 0.002930 0.500512 0.251615
H23   H     H_    0.611003 0.862521 0.143582 0.160517
H24   H     H_    0.756691 0.900994 0.419601 0.190556
H25   H     H_    0.649842 0.849983 0.395349 0.206668
H26   H     H_    0.551910 0.644648 0.907440 0.281704
H27   H     H_    0.657526 0.725749 0.935218 0.261304
H28   H     H_    0.626819 0.732167 0.017941 0.253808
H29   H     H_    0.615421 0.841001 0.977002 0.198595
H30   H     H_    0.510033 0.759038 0.944572 0.230933
H31   H     H_    0.123632 0.161779 0.254102 0.258901
H32   H     H_    0.194804 0.276581 0.297400 0.278645
H33   H     H_    0.193271 0.194917 0.210632 0.249357
H34   H     H_    0.775288 0.137351 0.244807 0.188400
H35   H     H_    0.323265 0.253406 0.349021 0.225780
H36   H     H_    0.252865 0.142131 0.310569 0.228421
H37   H     H_    0.773819 0.649318 0.543012 0.186922
H38   H     H_    0.231871 0.173447 0.714083 0.148564
H39   H     H_    0.550027 0.649895 0.783001 0.188115
H40   H     H_    0.450250 0.736499 0.604655 0.161248
H41   H     H_    0.452436 0.849736 0.719316 0.153053
O1    O     O_R   0.091590 0.143330 0.551700 -0.609654
O2    O     O_R   0.551730 0.591680 0.643420 -0.622353
O3    O     O_R   0.356670 0.408480 0.448390 -0.628641
O4    O     O_R   0.091620 0.039900 0.448280 -0.628871
O5    O     O_R   0.460120 0.408460 0.551810 -0.567244
O6    O     O_R   0.448270 0.408490 0.356760 -0.599913
O7    O     O_R   0.551720 0.408480 0.460170 -0.582308
O8    O     O_R   0.539880 0.591710 0.448370 -0.608942
O9    O     O_R   0.643330 0.591700 0.551790 -0.636982
O10   O     O_R   0.091610 0.051730 0.643330 -0.641551
O11   O     O_R   0.091640 0.948310 0.539920 -0.557483
O12   O     O_R   0.551760 0.960180 0.908450 -0.613682
O13   O     O_R   0.908380 0.960100 0.551720 -0.625128
O14   O     O_R   0.908410 0.856670 0.448300 -0.617960
O15   O     O_R   0.908360 0.051690 0.460080 -0.582060
O16   O     O_R   0.908390 0.948270 0.356670 -0.626367
O17   O     O_R   0.448330 0.856720 0.908450 -0.621387
O18   O     O_R   0.356660 0.948290 0.908410 -0.612704
O19   O     O_R   0.460090 0.051750 0.908420 -0.621338
O20   O     O_R   0.448250 0.039900 0.091630 -0.620872
O21   O     O_R   0.551680 0.143360 0.091630 -0.625019
O22   O     O_R   0.539910 0.948330 0.091670 -0.627128
O23   O     O_R   0.643340 0.051790 0.091670 -0.617915
O24   O     O_R   0.448280 0.591700 0.540000 -0.629318
Zn1   Zn    Zn3+2 0.999980 0.069060 0.569050 0.996388
Zn2   Zn    Zn3+2 0.000020 0.930940 0.430950 1.021694
Zn3   Zn    Zn3+2 0.430940 0.930960 0.000040 0.977087
Zn4   Zn    Zn3+2 0.569060 0.069120 0.000040 0.984536
Zn5   Zn    Zn3+2 0.430920 0.500100 0.431040 0.995477
Zn6   Zn    Zn3+2 0.569080 0.500080 0.569140 1.040789

loop_
_geom_bond_atom_site_label_1
_geom_bond_atom_site_label_2
_ccdc_geom_bond_type
C37   C43   A    
C8    C24   S    
C37   H2    S    
C59   H32   S    
C41   C42   A    
O9    Zn6   S    
C33   H40   S    
C12   C48   A    
C51   H18   S    
C28   O15   A    
C7    C8    A    
C39   C41   A    
C53   C54   S    
C12   C23   A    
O15   Zn1   S    
C1    C5    S    
C3    H1    S    
C1    O4    A    
C38   C39   A    
C42   H3    S    
C44   H4    S    
C15   C17   A    
C18   C19   A    
O6    Zn5   S    
C49   H14   S    
C52   H17   S    
C16   O14   A    
O14   Zn2   S    
C35   H41   S    
C18   C53   S    
C1    O1    A    
C14   H37   S    
C22   C43   S    
C45   C56   A    
C27   C39   S    
C8    C9    A    
C53   H24   S    
C38   Cl3   S    
C4    O11   A    
C58   H35   S    
C21   O19   A    
C9    C10   A    
C46   H5    S    
O17   Zn3   S    
C58   C61   S    
C57   H26   S    
C13   C14   A    
C59   H33   S    
C4    O10   A    
C50   H11   S    
C51   H19   S    
C44   C46   A    
C15   C29   S    
O11   Zn2   S    
C13   C19   A    
O1    Zn1   S    
C51   C52   S    
O2    Zn6   S    
O19   Zn4   S    
C47   H6    S    
C54   H22   S    
O23   Zn4   S    
O20   Zn3   S    
C6    C11   A    
C4    C23   S    
C58   C59   S    
C7    H23   S    
C29   O9    A    
C60   C61   A    
O12   Zn4   S    
C35   C36   A    
C12   C40   A    
C52   H16   S    
C16   O13   A    
C37   C38   A    
C50   H9    S    
O21   Zn4   S    
C22   O20   A    
C47   C48   A    
O7    Zn6   S    
C23   C34   A    
C55   H30   S    
C53   H25   S    
C17   C18   A    
C34   C45   A    
C52   H15   S    
C41   Cl4   S    
O10   Zn1   S    
C25   O2    A    
C54   H20   S    
C13   C49   S    
C29   O8    A    
O18   Zn3   S    
C2    Cl5   S    
C57   H27   S    
C55   C57   S    
C22   O21   A    
C31   H39   S    
C42   C43   A    
C50   H10   S    
C20   O12   A    
O3    Zn5   S    
O8    Zn5   S    
C48   C56   A    
C46   C47   A    
C5    C60   A    
C14   C15   A    
C31   C32   A    
C10   Cl2   S    
O4    Zn2   S    
C55   H29   S    
C3    C5    A    
C21   C56   S    
C28   O16   A    
C6    C7    A    
O16   Zn2   S    
C17   C51   S    
C30   C55   S    
C60   H8    S    
C49   H13   S    
C30   C36   A    
C32   C33   A    
C2    C3    A    
C26   C62   S    
C26   O5    A    
C20   O17   A    
C54   H21   S    
C24   O23   A    
C6    H12   S    
C30   C31   A    
C11   C28   S    
C25   C32   S    
C16   C19   S    
C34   Cl1   S    
C33   C35   A    
C61   C62   A    
O22   Zn3   S    
C10   C11   A    
C20   C36   S    
C27   O6    A    
C24   O22   A    
C40   C44   A    
C9    H34   S    
C49   C50   S    
C57   H28   S    
C59   H31   S    
O5    Zn6   S    
C45   H7    S    
C58   H36   S    
O24   Zn5   S    
O13   Zn1   S    
C21   O18   A    
C25   O24   A    
C26   O3    A    
C2    C62   A    
C40   H38   S    
C27   O7    A    
