data_mof_unit_26194.cif
_audit_creation_date              2012-12-10T18:34:36-0500
_audit_creation_method            fapswitch 2.2
_symmetry_space_group_name_H-M    P1
_symmetry_Int_Tables_number       1
_space_group_crystal_system       triclinic
_cell_length_a                    15.206266
_cell_length_b                    15.597622
_cell_length_c                    15.695737
_cell_angle_alpha                 93.372966
_cell_angle_beta                  104.366962
_cell_angle_gamma                 81.649416
_cell_volume                      3567.07241063

loop_
_atom_site_label
_atom_site_type_symbol
_atom_type_description
_atom_site_fract_x
_atom_site_fract_y
_atom_site_fract_z
_atom_type_partial_charge
C1    C     C_R   0.442006 0.661064 0.483038 0.875577
C2    C     C_R   0.555249 0.101180 0.520164 0.052473
C3    C     C_R   0.355845 0.929748 0.429751 0.110215
C4    C     C_R   0.644235 0.070206 0.570051 0.110325
C5    C     C_R   0.512505 0.955178 0.507030 0.101601
C6    C     C_R   0.487564 0.044777 0.492844 0.101612
C7    C     C_R   0.394947 0.075708 0.454485 -0.235657
C8    C     C_R   0.605135 0.924234 0.545368 -0.235703
C9    C     C_R   0.331576 0.019398 0.420196 -0.223880
C10   C     C_R   0.668521 0.980546 0.579599 -0.223828
C11   C     C_R   0.822882 0.670564 0.580446 0.125729
C12   C     C_R   0.557992 0.338930 0.516929 0.875458
C13   C     C_R   0.177121 0.329429 0.419544 0.125724
C14   C     C_R   0.749003 0.630541 0.591710 0.293841
C15   C     C_R   0.251002 0.369456 0.408288 0.293805
C16   C     C_R   0.501530 0.500529 0.661849 0.877870
C17   C     C_R   0.498470 0.499471 0.338151 0.877801
C18   C     C_R   0.798250 0.501857 0.516584 0.202771
C19   C     C_R   0.201732 0.498155 0.483374 0.202604
C20   C     C_R   0.883586 0.532457 0.522924 -0.050383
C21   C     C_R   0.116386 0.467564 0.477006 -0.050303
C22   C     C_R   0.886393 0.622099 0.538862 0.076318
C23   C     C_R   0.293521 0.870337 0.391524 0.194483
C24   C     C_R   0.113584 0.377916 0.461080 0.076267
C25   C     C_R   0.964257 0.480055 0.509171 0.120212
C26   C     C_R   0.035705 0.519971 0.490735 0.120205
C27   C     C_R   0.021524 0.610287 0.481632 -0.235648
C28   C     C_R   0.978444 0.389740 0.518281 -0.235521
C29   C     C_R   0.952728 0.660814 0.512412 -0.175439
C30   C     C_R   0.047238 0.339209 0.487515 -0.175445
C31   C     C_3   0.452778 0.574990 0.020584 -0.217485
C32   C     C_3   0.547219 0.425019 0.979416 -0.217498
C33   C     C_3   0.541904 0.567167 0.987967 -0.216665
C34   C     C_R   0.706560 0.129626 0.608230 0.194417
C35   C     C_3   0.458094 0.432841 0.012033 -0.216673
C36   C     C_1   0.504994 0.501072 0.751810 -0.158859
C37   C     C_1   0.495005 0.498932 0.248190 -0.158707
C38   C     C_3   0.414847 0.508395 0.949175 0.223652
C39   C     C_3   0.585150 0.491613 0.050825 0.223661
C40   C     C_3   0.503409 0.500622 0.917990 0.110256
C41   C     C_3   0.496588 0.499386 0.082010 0.110246
C42   C     C_1   0.505679 0.501075 0.827458 -0.006578
C43   C     C_1   0.494319 0.498931 0.172542 -0.006594
C44   C     C_R   0.406643 0.752274 0.462702 -0.107685
C45   C     C_R   0.323765 0.780025 0.400260 0.172631
C46   C     C_R   0.593359 0.247705 0.537199 -0.107705
C47   C     C_3   0.224382 0.579761 0.536160 -0.785523
C48   C     C_3   0.775627 0.420221 0.463817 -0.785510
C49   C     C_3   0.308140 0.326615 0.348023 -0.835493
C50   C     C_3   0.691870 0.673378 0.651984 -0.835776
C51   C     C_3   0.837429 0.761986 0.614815 -0.940180
C52   C     C_3   0.162606 0.237975 0.385224 -0.940036
C53   C     C_3   0.727561 0.283935 0.662042 -0.862580
C54   C     C_3   0.272394 0.716041 0.337854 -0.863764
C55   C     C_3   0.197116 0.903413 0.340401 -0.933729
C56   C     C_R   0.676264 0.219940 0.599578 0.172389
C57   C     C_3   0.803033 0.096588 0.659170 -0.934032
C58   C     C_R   0.462980 0.812525 0.503679 -0.310672
C59   C     C_R   0.537031 0.187458 0.496228 -0.310684
C60   C     C_R   0.444804 0.898783 0.479701 0.052492
H1    H     H_    0.576633 0.621722 0.976393 0.166420
H2    H     H_    0.522003 0.790684 0.554803 0.166680
H3    H     H_    0.369065 0.143605 0.451411 0.157934
H4    H     H_    0.631014 0.856323 0.548435 0.158012
H5    H     H_    0.950761 0.730442 0.512915 0.160879
H6    H     H_    0.049209 0.269581 0.487035 0.160871
H7    H     H_    0.219220 0.633909 0.491928 0.222550
H8    H     H_    0.180143 0.598108 0.582572 0.221573
H9    H     H_    0.292801 0.571610 0.579879 0.281822
H10   H     H_    0.707036 0.428149 0.420423 0.281981
H11   H     H_    0.819649 0.402102 0.417167 0.221841
H12   H     H_    0.423365 0.378286 0.023607 0.166417
H13   H     H_    0.781157 0.365999 0.508050 0.221876
H14   H     H_    0.363431 0.361388 0.343256 0.282335
H15   H     H_    0.339727 0.261320 0.370396 0.204974
H16   H     H_    0.263985 0.321470 0.280496 0.220806
H17   H     H_    0.636557 0.638641 0.656691 0.282391
H18   H     H_    0.735996 0.678445 0.719505 0.220846
H19   H     H_    0.660336 0.738696 0.629684 0.205005
H20   H     H_    0.792793 0.790474 0.657886 0.247826
H21   H     H_    0.908883 0.761913 0.654596 0.253677
H22   H     H_    0.825025 0.805786 0.558589 0.237863
H23   H     H_    0.064999 0.643139 0.453558 0.159444
H24   H     H_    0.207324 0.209409 0.342249 0.247713
H25   H     H_    0.174923 0.194223 0.441485 0.237871
H26   H     H_    0.091185 0.238040 0.345361 0.253673
H27   H     H_    0.683031 0.344951 0.670964 0.254450
H28   H     H_    0.752237 0.257057 0.729070 0.240637
H29   H     H_    0.786972 0.298201 0.638808 0.234685
H30   H     H_    0.316620 0.654786 0.329295 0.254915
H31   H     H_    0.212664 0.702293 0.360821 0.234694
H32   H     H_    0.248217 0.742677 0.270721 0.240737
H33   H     H_    0.152774 0.851808 0.319818 0.256368
H34   H     H_    0.935024 0.356886 0.546415 0.159387
H35   H     H_    0.162593 0.949337 0.382511 0.237040
H36   H     H_    0.199869 0.936785 0.280736 0.245979
H37   H     H_    0.847356 0.148235 0.679504 0.256360
H38   H     H_    0.800467 0.063308 0.718947 0.246061
H39   H     H_    0.837438 0.050602 0.617023 0.237081
H40   H     H_    0.413680 0.635989 0.039124 0.166284
H41   H     H_    0.586317 0.364019 0.960876 0.166284
H42   H     H_    0.263209 0.047491 0.387198 0.166249
H43   H     H_    0.736907 0.952449 0.612559 0.166257
H44   H     H_    0.477980 0.209327 0.445173 0.166662
I1    I     I_    0.720690 0.478163 0.133889 -0.383631
I2    I     I_    0.279307 0.521846 0.866110 -0.383660
N1    N     N_R   0.731710 0.552730 0.549140 -0.119247
N2    N     N_R   0.268290 0.447270 0.450860 -0.119216
O1    O     O_R   0.383110 0.605620 0.475230 -0.615087
O2    O     O_R   0.616890 0.394380 0.524770 -0.615068
O3    O     O_R   0.531900 0.639510 0.506760 -0.609448
O4    O     O_R   0.468100 0.360490 0.493240 -0.609437
O5    O     O_R   0.425620 0.483070 0.607460 -0.605451
O6    O     O_R   0.574380 0.516930 0.392540 -0.605480
O7    O     O_R   0.574400 0.516960 0.638990 -0.633294
O8    O     O_R   0.425600 0.483040 0.361010 -0.633419
Zn1   Zn    Zn3+2 0.400660 0.477370 0.478940 0.939282
Zn2   Zn    Zn3+2 0.599340 0.522630 0.521060 0.939343

loop_
_geom_bond_atom_site_label_1
_geom_bond_atom_site_label_2
_ccdc_geom_bond_type
C58   H2    S    
C21   C26   A    
C16   O7    A    
C34   C56   A    
C23   C45   A    
C22   C29   A    
C46   C59   A    
C27   C29   A    
C36   C42   T    
C55   H33   S    
C16   O5    A    
O2    Zn2   S    
C12   O2    A    
O1    Zn1   S    
C39   C41   S    
C14   C50   S    
C25   C28   A    
C26   C27   A    
C33   C39   S    
O3    Zn2   S    
C59   H44   S    
C52   H25   S    
C19   C21   A    
C54   H30   S    
O4    Zn1   S    
C11   C14   A    
C19   C47   S    
C20   C25   A    
C58   C60   A    
C57   H39   S    
O8    Zn1   S    
C28   H34   S    
C32   C39   S    
C52   H24   S    
C18   N1    A    
C47   H9    S    
C1    O1    A    
C51   H20   S    
C3    C23   A    
C44   C58   A    
C9    H42   S    
C34   C57   S    
C31   C33   S    
C51   H21   S    
N1    Zn2   S    
C3    C60   A    
C40   C42   S    
C50   H19   S    
C41   C43   S    
C2    C6    A    
C16   C36   S    
C50   H18   S    
C47   H7    S    
C17   O6    A    
C4    C34   A    
C33   C40   S    
C32   C35   S    
C35   C38   S    
C55   H35   S    
C2    C59   A    
C17   C37   S    
C25   C26   A    
C13   C24   A    
C15   N2    A    
C37   C43   T    
C2    C4    A    
C54   H32   S    
C3    C9    A    
C13   C52   S    
C1    C44   S    
O7    Zn2   S    
C57   H37   S    
C38   I2    S    
C49   H15   S    
C49   H16   S    
C53   H27   S    
C30   H6    S    
C31   H40   S    
C51   H22   S    
C7    H3    S    
O6    Zn2   S    
C8    H4    S    
C29   H5    S    
C12   C46   S    
C14   N1    A    
C20   C22   A    
C35   H12   S    
C13   C15   A    
C53   H29   S    
O5    Zn1   S    
C48   H11   S    
C4    C10   A    
C50   H17   S    
C47   H8    S    
C12   O4    A    
C32   C40   S    
C44   C45   A    
C53   C56   S    
C39   I1    S    
C10   H43   S    
C31   C41   S    
C5    C60   A    
C49   H14   S    
C48   H13   S    
C48   H10   S    
C55   H36   S    
C18   C48   S    
C45   C54   S    
C5    C8    A    
C23   C55   S    
C6    C7    A    
C11   C22   A    
C31   C38   S    
C52   H26   S    
C54   H31   S    
C19   N2    A    
C38   C40   S    
C5    C6    A    
C33   H1    S    
C57   H38   S    
N2    Zn1   S    
C28   C30   A    
C53   H28   S    
C18   C20   A    
C15   C49   S    
C35   C41   S    
C24   C30   A    
C11   C51   S    
C27   H23   S    
C7    C9    A    
C8    C10   A    
C21   C24   A    
C46   C56   A    
C32   H41   S    
C1    O3    A    
C17   O8    A    
