data_mof_unit_46966.cif
_audit_creation_date              2013-03-05T15:55:43-0500
_audit_creation_method            fapswitch 2.2
_symmetry_space_group_name_H-M    P1
_symmetry_Int_Tables_number       1
_space_group_crystal_system       triclinic
_cell_length_a                    6.930564
_cell_length_b                    17.591108
_cell_length_c                    19.45646
_cell_angle_alpha                 108.544536
_cell_angle_beta                  89.584138
_cell_angle_gamma                 90.793761
_cell_volume                      2248.66852921

loop_
_atom_site_label
_atom_site_type_symbol
_atom_site_description
_atom_site_fract_x
_atom_site_fract_y
_atom_site_fract_z
_atom_type_partial_charge
O1    O     O_R   0.494330 0.415710 0.413720 -0.595791
O2    O     O_R   0.819360 0.430070 0.560210 -0.612702
O3    O     O_R   0.994320 0.584290 0.586280 -0.584518
C1    C     C_R   0.650103 0.415596 0.582232 0.936227
O4    O     O_R   0.823740 0.406290 0.412670 -0.609667
O5    O     O_R   0.998730 0.560340 0.437690 -0.578661
C2    C     C_R   0.654604 0.383254 0.384599 0.972845
O6    O     O_R   0.489920 0.439660 0.562310 -0.591620
O7    O     O_3   0.662330 0.550570 0.508380 -0.220675
V1    V     V_3+5 0.935370 0.490620 0.498440 1.226519
O8    O     O_R   0.328720 0.569930 0.439790 -0.553771
C3    C     C_R   0.161482 0.583401 0.416772 1.018570
O9    O     O_R   0.324340 0.593710 0.587330 -0.562525
C4    C     C_R   0.156086 0.617310 0.614951 1.005569
V2    V     V_3+5 0.435940 0.509380 0.501560 1.287657
O10   O     O_3   0.159110 0.449430 0.491620 -0.306354
C5    C     C_R   0.287283 0.748145 0.702287 0.394647
C6    C     C_R   0.270422 0.811521 0.767526 -0.168258
C7    C     C_R   0.117721 0.814294 0.816126 -0.348448
C8    C     C_R   0.978341 0.751515 0.797853 0.389119
C9    C     C_R   0.995146 0.688154 0.732594 -0.139281
H1    H     H_    0.888004 0.640273 0.720142 0.177419
C10   C     C_R   0.147720 0.685438 0.683952 -0.348880
C11   C     C_R   0.298969 0.619935 0.310269 0.387684
C12   C     C_R   0.156836 0.630091 0.364954 -0.318719
C13   C     C_R   0.008173 0.684589 0.370493 -0.071343
C14   C     C_R   0.999894 0.732056 0.324598 0.043574
C15   C     C_R   0.141852 0.722134 0.269413 0.025373
C16   C     C_R   0.291896 0.665360 0.261147 -0.139173
C17   C     C_R   0.848904 0.787666 0.331180 0.346941
C18   C     C_R   0.838083 0.830869 0.282103 -0.335105
C19   C     C_R   0.978278 0.822754 0.228380 0.177498
C20   C     C_R   0.131229 0.768490 0.221783 0.073609
C21   C     C_R   0.271694 0.760407 0.167023 -0.039904
C22   C     C_R   0.416949 0.702650 0.157091 0.190254
C23   C     C_R   0.426880 0.655120 0.203195 0.220635
C24   C     C_R   0.967398 0.868760 0.181303 -0.153936
C25   C     C_R   0.111330 0.863791 0.129161 -0.163550
C26   C     C_R   0.263379 0.810207 0.122798 -0.105361
H2    H     H_    0.898668 0.689420 0.411452 0.196956
H3    H     H_    0.373797 0.807092 0.082382 0.173790
C27   C     C_R   0.777828 0.193517 0.876500 0.327926
C28   C     C_R   0.625604 0.137382 0.871372 -0.313271
C29   C     C_R   0.480181 0.129216 0.819513 -0.170854
C30   C     C_R   0.484288 0.174978 0.772323 0.165008
C31   C     C_R   0.636859 0.230225 0.776352 0.011019
C32   C     C_R   0.783357 0.240101 0.828770 -0.064910
C33   C     C_R   0.337093 0.166366 0.721190 -0.174904
C34   C     C_R   0.340824 0.211641 0.673845 -0.193750
C35   C     C_R   0.491523 0.266609 0.676831 0.212388
C36   C     C_R   0.640638 0.276435 0.728495 0.037897
C37   C     C_R   0.790953 0.333192 0.732969 -0.023647
C38   C     C_R   0.935816 0.344048 0.786508 0.310630
C39   C     C_R   0.929206 0.297968 0.833625 -0.203069
C40   C     C_R   0.493951 0.312402 0.629404 -0.153469
C41   C     C_R   0.642617 0.368302 0.633028 -0.169369
C42   C     C_R   0.788069 0.379128 0.685316 -0.129054
C43   C     C_R   0.811613 0.277066 0.281403 -0.120056
C44   C     C_R   0.800749 0.213263 0.216416 -0.091182
H4    H     H_    0.933489 0.185443 0.191786 0.124100
C45   C     C_R   0.621299 0.185682 0.183874 -0.122646
C46   C     C_R   0.453049 0.223855 0.218049 -0.116690
C47   C     C_R   0.463917 0.287659 0.283042 -0.064842
H5    H     H_    0.331205 0.315541 0.307639 0.128711
C48   C     C_R   0.643327 0.315057 0.315711 -0.127209
O11   O     O_R   0.774940 0.060470 0.937800 -0.576045
O12   O     O_R   0.440880 0.093730 0.087350 -0.604822
O13   O     O_R   0.266130 0.939630 0.062280 -0.613047
C49   C     C_R   0.610022 0.117083 0.115276 0.939645
O14   O     O_R   0.445480 0.069960 0.939820 -0.574905
O15   O     O_R   0.270770 0.915690 0.913690 -0.583660
C50   C     C_R   0.615279 0.086253 0.919233 1.030755
O16   O     O_R   0.770300 0.084410 0.086380 -0.600734
O17   O     O_3   0.602600 0.949510 0.991670 -0.251986
V3    V     V_3+5 0.329470 0.009370 0.001550 1.241463
O18   O     O_R   0.940760 0.906160 0.912560 -0.567255
C51   C     C_R   0.109106 0.882542 0.885035 1.000527
O19   O     O_R   0.936150 0.929930 0.060100 -0.591185
C52   C     C_R   0.103975 0.914623 0.081435 0.937286
V4    V     V_3+5 0.828930 0.990450 0.998310 1.261918
O20   O     O_3   0.105670 0.050490 0.008320 -0.248001
N1    N     N_R   0.443620 0.750232 0.654465 0.234117
O21   O     O_R   0.454388 0.808123 0.626405 -0.361121
O22   O     O_R   0.595060 0.706883 0.652925 -0.373976
N2    N     N_R   0.547326 0.687537 0.096599 0.257386
O23   O     O_R   0.481162 0.661373 0.030707 -0.282970
O24   O     O_R   0.732562 0.695991 0.107026 -0.327846
N3    N     N_R   0.565002 0.591968 0.185907 0.280469
O25   O     O_R   0.745027 0.608008 0.203831 -0.322177
O26   O     O_R   0.517431 0.521681 0.141740 -0.261162
N4    N     N_R   0.921048 0.205573 0.932003 0.237665
O27   O     O_R   0.870568 0.229886 0.999997 -0.358602
O28   O     O_R   0.100024 0.187407 0.914618 -0.406172
H6    H     H_    0.363826 0.086108 0.815319 0.156835
H7    H     H_    0.218411 0.124600 0.717903 0.145285
H8    H     H_    0.224888 0.203972 0.635056 0.136246
H9    H     H_    0.380730 0.304322 0.589441 0.121609
H10   H     H_    0.895676 0.425255 0.689105 0.178472
N5    N     N_R   0.089188 0.402282 0.795242 0.242600
O29   O     O_R   0.192697 0.404370 0.739855 -0.424878
O30   O     O_R   0.146540 0.443941 0.859979 -0.292194
H11   H     H_    0.377649 0.859368 0.780000 0.171452
H12   H     H_    0.040960 0.307933 0.874159 0.221798
H13   H     H_    0.952301 0.296552 0.304721 0.121769
H14   H     H_    0.312378 0.204407 0.194697 0.127752
N6    N     N_R   0.822365 0.749313 0.845785 0.236527
O31   O     O_R   0.670397 0.792356 0.847283 -0.374728
O32   O     O_R   0.812596 0.691596 0.874077 -0.314882
N7    N     N_R   0.445947 0.561655 0.304148 0.243562
O33   O     O_R   0.612249 0.584122 0.335015 -0.369356
O34   O     O_R   0.402075 0.485634 0.279699 -0.374918
N8    N     N_R   0.706996 0.802383 0.388012 0.239016
O35   O     O_R   0.761657 0.822338 0.455330 -0.357145
O36   O     O_R   0.527359 0.812096 0.374074 -0.405815
H15   H     H_    0.721661 0.872903 0.287312 0.167831
H16   H     H_    0.849466 0.910130 0.186505 0.112194

loop_
_geom_bond_atom_site_label_1
_geom_bond_atom_site_label_2
_geom_bond_distance
_ccdc_geom_bond_type
C40   C41   1.400860 A    
C47   C48   1.407968 A    
C28   C50   1.487013 S    
C33   H7    1.083779 S    
C7    C8    1.415908 A    
C1    O6    1.298276 A    
N8    O36   1.301155 A    
C26   H3    1.082583 S    
C24   H16   1.084589 S    
C38   C39   1.403792 A    
C23   N3    1.432034 S    
O13   V3    1.998378 S    
C16   C23   1.427990 A    
C13   C14   1.405072 A    
C5    C10   1.415904 A    
C15   C16   1.424386 A    
C21   C22   1.408441 A    
N7    O34   1.301254 A    
O5    C3    1.299305 A    
C17   C18   1.399711 A    
O19   V4    1.994974 S    
N4    O28   1.300491 A    
C25   C52   1.481420 S    
V2    O10   2.156417 S    
C41   C42   1.404919 A    
C6    C7    1.405013 A    
C6    H11   1.083952 S    
C7    C51   1.489779 S    
C11   C16   1.428947 A    
O8    V2    1.995058 S    
O11   C50   1.297907 A    
C22   C23   1.409977 A    
C49   O16   1.297467 A    
O1    V2    2.004220 S    
O7    V1    2.156544 S    
O13   C52   1.296103 A    
C44   H4    1.082757 S    
O17   V4    1.705373 S    
O9    C4    1.297430 A    
C1    C41   1.480763 S    
C14   C17   1.419557 A    
C18   H15   1.084313 S    
N8    O35   1.301269 A    
C5    C6    1.403234 A    
C8    N6    1.430726 S    
N2    O24   1.300268 A    
C44   C45   1.407953 A    
O17   V3    2.156431 S    
C36   C37   1.416659 A    
C39   H12   1.081548 S    
C11   C12   1.415302 A    
N4    O27   1.301144 A    
C46   H14   1.082715 S    
O19   C52   1.297858 A    
V3    O20   1.707010 S    
C12   C13   1.397242 A    
N2    O23   1.301166 A    
C31   C36   1.417385 A    
C38   N5    1.438705 S    
C21   C26   1.411649 A    
C17   N8    1.437410 S    
O12   C49   1.300795 A    
C4    C10   1.489756 S    
O2    C1    1.295485 A    
C28   C29   1.404647 A    
C24   C25   1.401155 A    
C2    C48   1.489267 S    
C43   C48   1.406770 A    
N5    O29   1.300173 A    
C5    N1    1.430750 S    
C40   H9    1.084410 S    
C46   C47   1.400265 A    
C35   C36   1.417013 A    
C19   C24   1.404908 A    
O18   C51   1.297500 A    
O3    C4    1.300170 A    
C32   C39   1.406626 A    
C33   C34   1.396157 A    
N5    O30   1.301382 A    
N3    O26   1.301101 A    
C15   C20   1.418613 A    
C34   C35   1.402265 A    
O6    V2    1.995606 S    
N1    O22   1.300451 A    
O9    V2    2.005514 S    
O12   V3    1.999090 S    
C27   C28   1.417063 A    
O2    V1    2.000465 S    
O15   C51   1.300144 A    
C29   C30   1.400363 A    
O4    C2    1.300743 A    
C30   C33   1.402853 A    
C45   C49   1.489337 S    
C31   C32   1.413716 A    
C8    C9    1.403305 A    
O1    C2    1.297503 A    
C18   C19   1.396858 A    
C11   N7    1.432610 S    
O18   V4    2.005568 S    
V4    O20   2.156495 S    
O5    V1    1.998429 S    
O8    C3    1.297218 A    
O11   V4    1.996196 S    
C35   C40   1.404611 A    
C3    C12   1.489961 S    
C19   C20   1.414038 A    
C9    C10   1.405073 A    
C43   C44   1.400185 A    
O4    V1    1.999075 S    
O3    V1    2.000776 S    
V1    O10   1.707075 S    
N7    O33   1.300674 A    
O15   V3    2.000759 S    
C22   N2    1.436859 S    
C13   H2    1.080836 S    
C25   C26   1.402021 A    
N6    O32   1.300573 A    
C42   H10   1.079832 S    
O16   V4    2.010029 S    
C20   C21   1.412625 A    
C27   C32   1.420591 A    
C34   H8    1.083711 S    
O7    V2    1.707272 S    
C45   C46   1.406832 A    
C29   H6    1.084727 S    
C37   C42   1.410753 A    
C47   H5    1.082761 S    
C30   C31   1.411745 A    
C43   H13   1.082722 S    
N3    O25   1.300732 A    
N1    O21   1.300629 A    
N6    O31   1.300415 A    
O14   V3    2.000371 S    
O14   C50   1.297805 A    
C9    H1    1.083977 S    
C27   N4    1.435420 S    
C37   C38   1.418756 A    
C14   C15   1.421785 A    
