data_mof_unit_53295.cif
_audit_creation_date              2012-12-10T18:18:25-0500
_audit_creation_method            fapswitch 2.2
_symmetry_space_group_name_H-M    P1
_symmetry_Int_Tables_number       1
_space_group_crystal_system       triclinic
_cell_length_a                    14.06077
_cell_length_b                    14.927867
_cell_length_c                    15.36676
_cell_angle_alpha                 89.793081
_cell_angle_beta                  67.42325
_cell_angle_gamma                 89.720322
_cell_volume                      2978.22253545

loop_
_atom_site_label
_atom_site_type_symbol
_atom_type_description
_atom_site_fract_x
_atom_site_fract_y
_atom_site_fract_z
_atom_type_partial_charge
Br1   Br    Br    0.207143 0.692825 0.291816 -0.576785
Br2   Br    Br    0.792054 0.313326 0.714334 -0.611415
Br3   Br    Br    0.441677 0.366329 0.235746 -0.502824
Br4   Br    Br    0.558692 0.635791 0.761872 -0.501988
Br5   Br    Br    0.116392 0.551966 0.994342 -0.496069
Br6   Br    Br    0.886099 0.460543 0.005752 -0.522372
Br7   Br    Br    0.575650 0.113761 0.212458 -0.431029
Br8   Br    Br    0.445595 0.886692 0.782989 -0.427347
C1    C     C_R   0.500953 0.672783 0.497038 0.893764
C2    C     C_R   0.501675 0.768013 0.493638 -0.096936
C3    C     C_R   0.522752 0.188811 0.420145 -0.208834
C4    C     C_R   0.488520 0.811467 0.576974 -0.208345
C5    C     C_R   0.523460 0.096298 0.416394 0.044779
C6    C     C_R   0.486753 0.903986 0.580904 0.043533
C7    C     C_R   0.502724 0.047073 0.500528 0.000561
C8    C     C_R   0.503849 0.953177 0.497401 0.001724
C9    C     C_R   0.479614 0.091658 0.587951 0.065606
C10   C     C_R   0.521040 0.908596 0.411004 0.064669
C11   C     C_R   0.544697 0.052054 0.330412 0.278042
C12   C     C_R   0.499165 0.327263 0.502377 0.896082
C13   C     C_R   0.468097 0.948289 0.666458 0.279007
C14   C     C_R   0.542605 0.959422 0.328448 -0.253783
C15   C     C_R   0.463828 0.040936 0.669513 -0.254691
C16   C     C_R   0.435548 0.504738 0.676235 0.922956
C17   C     C_R   0.564437 0.495467 0.323749 0.921515
C18   C     C_R   0.178293 0.443181 0.558052 -0.035269
C19   C     C_R   0.823158 0.553655 0.438516 -0.035317
C20   C     C_R   0.226879 0.555279 0.440316 0.012790
C21   C     C_R   0.773170 0.445546 0.560347 0.010186
C22   C     C_R   0.127427 0.556093 0.437132 -0.057972
C23   C     C_R   0.381039 0.502232 0.108145 -0.135073
C24   C     C_R   0.873649 0.442484 0.561068 -0.059248
C25   C     C_R   0.051402 0.498185 0.498093 0.010213
C26   C     C_R   0.950394 0.498538 0.498073 0.010869
C27   C     C_R   0.076981 0.439720 0.558836 -0.043737
C28   C     C_R   0.925732 0.554773 0.435024 -0.038290
C29   C     C_R   0.103426 0.611879 0.373578 0.206099
C30   C     C_R   0.898856 0.384420 0.622328 0.212259
C31   C     C_R   0.003863 0.609426 0.369959 0.034897
C32   C     C_R   0.001343 0.379901 0.618625 0.050056
C33   C     C_R   0.394268 0.515622 0.778224 -0.181897
C34   C     C_R   0.618991 0.502663 0.891820 -0.146255
C35   C     C_R   0.605744 0.485932 0.221644 -0.175512
C36   C     C_R   0.256301 0.512381 0.931732 0.280710
C37   C     C_R   0.743858 0.493059 0.068376 0.278266
C38   C     C_R   0.289909 0.505203 0.833880 -0.259828
C39   C     C_R   0.709871 0.497760 0.166375 -0.242731
C40   C     C_R   0.460833 0.541020 0.820887 0.217853
C41   C     C_R   0.539380 0.461649 0.178422 0.209981
C42   C     C_R   0.435861 0.518427 0.915492 -0.019313
C43   C     C_R   0.564338 0.485815 0.084221 -0.021167
C44   C     C_R   0.329784 0.507322 0.974766 0.006623
C45   C     C_R   0.303001 0.494758 0.073041 0.116496
C46   C     C_R   0.670443 0.497715 0.025084 0.004594
C47   C     C_R   0.513922 0.506977 0.951349 0.056270
C48   C     C_R   0.486179 0.497789 0.048532 0.061020
C49   C     C_3   0.195198 0.467110 0.139884 -0.384904
C50   C     C_3   0.191579 0.405944 0.222008 -0.361515
C51   C     C_3   0.083905 0.367626 0.273713 -0.803958
C52   C     C_3   0.804714 0.538472 0.859873 -0.383227
C53   C     C_3   0.809868 0.594550 0.773891 -0.356992
C54   C     C_3   0.918580 0.629806 0.720003 -0.806738
C55   C     C_3   0.982699 0.663084 0.294777 -0.380160
C56   C     C_R   0.697021 0.510765 0.926818 0.122575
C57   C     C_3   0.932413 0.753629 0.333298 -0.330856
C58   C     C_3   0.910352 0.806673 0.258033 -0.810631
C59   C     C_3   0.031063 0.308977 0.675331 -0.396642
C60   C     C_3   0.030502 0.347001 0.768283 -0.318420
C61   C     C_3   0.094750 0.289369 0.807593 -0.804137
C62   C     C_3   0.434172 0.236628 0.684619 -0.477846
C63   C     C_3   0.521516 0.253897 0.718923 -0.305980
C64   C     C_3   0.479400 0.283591 0.821773 -0.799370
C65   C     C_3   0.524361 0.763657 0.320835 -0.412372
C66   C     C_3   0.637224 0.749470 0.254837 -0.398508
C67   C     C_R   0.472727 0.185854 0.591261 0.061583
C68   C     C_3   0.646027 0.723307 0.156113 -0.803456
C69   C     C_R   0.515894 0.814351 0.409737 0.055314
C70   C     C_R   0.497904 0.232142 0.505583 -0.092903
H1    H     H_    0.201669 0.401805 0.604098 0.142905
H2    H     H_    0.477383 0.771566 0.639111 0.215636
H3    H     H_    0.559392 0.928506 0.260734 0.193944
H4    H     H_    0.449248 0.072049 0.736775 0.192009
H5    H     H_    0.025926 0.422304 0.296832 0.263555
H6    H     H_    0.063740 0.321568 0.226867 0.272187
H7    H     H_    0.081606 0.329694 0.336794 0.261277
H8    H     H_    0.246620 0.349383 0.194659 0.273484
H9    H     H_    0.212466 0.444193 0.273776 0.246662
H10   H     H_    0.148391 0.528123 0.168738 0.244167
H11   H     H_    0.159546 0.427468 0.099526 0.246760
H12   H     H_    0.799362 0.595556 0.393164 0.133534
H13   H     H_    0.940474 0.677596 0.764296 0.273863
H14   H     H_    0.974823 0.573639 0.699384 0.260698
H15   H     H_    0.921667 0.665030 0.655190 0.261006
H16   H     H_    0.788510 0.553221 0.724441 0.247814
H17   H     H_    0.756163 0.652457 0.797439 0.274145
H18   H     H_    0.838315 0.581634 0.899322 0.246320
H19   H     H_    0.852524 0.477557 0.834502 0.241897
H20   H     H_    0.983488 0.822885 0.198348 0.288775
H21   H     H_    0.860517 0.767307 0.231280 0.253623
H22   H     H_    0.870193 0.870183 0.288655 0.253033
H23   H     H_    0.287558 0.597988 0.395084 0.177796
H24   H     H_    0.858950 0.743514 0.394794 0.220480
H25   H     H_    0.984630 0.793337 0.357074 0.263634
H26   H     H_    0.054162 0.674431 0.231869 0.261398
H27   H     H_    0.934209 0.623974 0.266278 0.193015
H28   H     H_    0.065152 0.219662 0.819323 0.275011
H29   H     H_    0.176711 0.288807 0.757966 0.235863
H30   H     H_    0.090381 0.317445 0.875865 0.284701
H31   H     H_    0.061203 0.416415 0.758451 0.226144
H32   H     H_    0.949994 0.348851 0.820718 0.276734
H33   H     H_    0.979361 0.250127 0.690908 0.252999
H34   H     H_    0.712324 0.404172 0.607070 0.167340
H35   H     H_    0.107495 0.280142 0.631704 0.196908
H36   H     H_    0.426583 0.341513 0.832293 0.244265
H37   H     H_    0.436761 0.227766 0.868095 0.270816
H38   H     H_    0.543919 0.303467 0.842264 0.286023
H39   H     H_    0.569123 0.192674 0.711920 0.254915
H40   H     H_    0.572145 0.307142 0.674807 0.242135
H41   H     H_    0.398974 0.301861 0.678392 0.185589
H42   H     H_    0.369815 0.199575 0.738307 0.215127
H43   H     H_    0.595912 0.665188 0.159361 0.260047
H44   H     H_    0.622465 0.780386 0.122216 0.278378
H45   H     H_    0.765275 0.504158 0.199230 0.199301
H46   H     H_    0.727051 0.705242 0.112329 0.258522
H47   H     H_    0.682454 0.811526 0.249390 0.239916
H48   H     H_    0.671413 0.695603 0.283953 0.223517
H49   H     H_    0.486468 0.697323 0.337385 0.206836
H50   H     H_    0.480519 0.799556 0.284679 0.234190
H51   H     H_    0.234195 0.499094 0.801331 0.200715
H52   H     H_    0.359139 0.508405 0.183195 0.183064
H53   H     H_    0.640683 0.495617 0.816937 0.185151
H54   H     H_    0.540384 0.228803 0.356938 0.210734
N1    N     N_R   0.249980 0.499930 0.499960 -0.106256
N2    N     N_R   0.750020 0.500070 0.500040 -0.104229
O1    O     O_R   0.419720 0.632140 0.499980 -0.619937
O2    O     O_R   0.580280 0.367860 0.500020 -0.618351
O3    O     O_R   0.580270 0.632160 0.499970 -0.600226
O4    O     O_R   0.419730 0.367840 0.500030 -0.602542
O5    O     O_R   0.373870 0.499980 0.632250 -0.628483
O6    O     O_R   0.626130 0.500020 0.367750 -0.629090
O7    O     O_R   0.534420 0.500000 0.632240 -0.589928
O8    O     O_R   0.465580 0.500000 0.367760 -0.591449
Zn1   Zn    Zn3+2 0.392800 0.499980 0.500010 0.967958
Zn2   Zn    Zn3+2 0.607200 0.500020 0.499990 0.965730

loop_
_geom_bond_atom_site_label_1
_geom_bond_atom_site_label_2
_ccdc_geom_bond_type
C47   C48   A    
C55   C57   S    
Br6   C37   S    
C65   C66   S    
C21   H34   S    
C17   O8    A    
C50   H9    S    
C17   C35   S    
C38   H51   S    
C61   H29   S    
C64   H37   S    
C9    C15   A    
C49   H11   S    
C68   H43   S    
C6    C13   A    
C15   H4    S    
C51   H5    S    
C21   C24   A    
O4    Zn1   S    
C66   H47   S    
C12   O4    A    
C7    C8    A    
C64   H36   S    
C19   H12   S    
C43   C48   A    
C58   H22   S    
O5    Zn1   S    
C20   H23   S    
C2    C69   A    
C62   H42   S    
C60   C61   S    
C41   C43   A    
C32   C59   S    
C54   H14   S    
C42   C44   A    
C33   C38   A    
C62   C63   S    
C24   C30   A    
C23   C48   A    
C55   H27   S    
C1    C2    S    
C16   O7    A    
C22   C25   A    
Br1   C29   S    
C36   C44   A    
C40   C42   A    
C21   N2    A    
C3    H54   S    
C16   C33   S    
C1    O3    A    
C57   H24   S    
C50   H8    S    
C61   H30   S    
C36   C38   A    
C25   C26   A    
C37   C39   A    
C16   O5    A    
Br3   C41   S    
N1    Zn1   S    
C63   H39   S    
C20   N1    A    
C68   H46   S    
C14   H3    S    
C17   O6    A    
C51   H6    S    
C52   H19   S    
O7    Zn2   S    
C45   C49   S    
C53   H16   S    
C35   C41   A    
C5    C11   A    
C50   C51   S    
C65   H49   S    
C23   C45   A    
C18   H1    S    
C59   C60   S    
C22   C29   A    
C52   C53   S    
C24   C26   A    
C58   H21   S    
C51   H7    S    
C3    C70   A    
C34   C47   A    
Br2   C30   S    
C39   H45   S    
C62   H41   S    
C54   H13   S    
C11   C14   A    
Br8   C13   S    
C8    C10   A    
C60   H32   S    
C12   O2    A    
C34   H53   S    
C2    C4    A    
C1    O1    A    
C59   H33   S    
O3    Zn2   S    
C4    C6    A    
C37   C46   A    
Br7   C11   S    
C13   C15   A    
C6    C8    A    
C66   C68   S    
C34   C56   A    
C44   C45   A    
Br4   C40   S    
C7    C9    A    
C65   C69   S    
C63   H40   S    
C10   C14   A    
C19   N2    A    
Br5   C36   S    
C28   C31   A    
O6    Zn2   S    
C55   H26   S    
C61   H28   S    
C53   H17   S    
C19   C28   A    
C23   H52   S    
C65   H50   S    
C31   C55   S    
C64   H38   S    
C42   C47   A    
C49   H10   S    
C12   C70   S    
C52   C56   S    
C43   C46   A    
C68   H44   S    
C58   H20   S    
C5    C7    A    
C27   C32   A    
C59   H35   S    
C63   C64   S    
O2    Zn2   S    
C18   N1    A    
C30   C32   A    
C3    C5    A    
C49   C50   S    
C66   H48   S    
C46   C56   A    
C10   C69   A    
C4    H2    S    
C20   C22   A    
O1    Zn1   S    
C25   C27   A    
C33   C40   A    
C26   C28   A    
C60   H31   S    
C53   C54   S    
C67   C70   A    
N2    Zn2   S    
C18   C27   A    
C29   C31   A    
C57   C58   S    
C54   H15   S    
C62   C67   S    
C9    C67   A    
C57   H25   S    
O8    Zn1   S    
C52   H18   S    
C35   C39   A    
