data_mof_unit_55218.cif
_audit_creation_date              2012-10-26T17:12:45-0400
_audit_creation_method            fapswitch 2.2
_symmetry_space_group_name_H-M    P1
_symmetry_Int_Tables_number       1
_space_group_crystal_system       monoclinic
_cell_length_a                    27.800311
_cell_length_b                    19.052516
_cell_length_c                    16.751519
_cell_angle_alpha                 90.0
_cell_angle_beta                  62.518668
_cell_angle_gamma                 90.0
_cell_volume                      7871.52246155

loop_
_atom_site_label
_atom_site_type_symbol
_atom_type_description
_atom_site_fract_x
_atom_site_fract_y
_atom_site_fract_z
_atom_type_partial_charge
Br1   Br    Br    0.560273 0.720770 0.498335 -0.274447
Br2   Br    Br    0.787885 0.382916 0.243535 -0.431828
Br3   Br    Br    0.769902 0.611443 0.264206 -0.393992
Br4   Br    Br    0.212115 0.382916 0.756464 -0.431828
Br5   Br    Br    0.735089 0.113845 0.734966 -0.324701
Br6   Br    Br    0.285098 0.880975 0.242550 -0.341980
Br7   Br    Br    0.264911 0.113845 0.265034 -0.324701
Br8   Br    Br    0.714901 0.880975 0.757450 -0.341979
Br9   Br    Br    0.439832 0.280580 0.502101 -0.342672
Br10  Br    Br    0.439728 0.720770 0.501661 -0.274446
Br11  Br    Br    0.560168 0.280580 0.497899 -0.342672
Br12  Br    Br    0.060105 0.221000 0.499158 -0.289250
Br13  Br    Br    0.939914 0.780545 0.501677 -0.356041
Br14  Br    Br    0.939894 0.221000 0.500844 -0.289250
Br15  Br    Br    0.060086 0.780545 0.498322 -0.356041
Br16  Br    Br    0.230098 0.611443 0.735794 -0.393992
C1    C     C_R   0.296289 0.731093 0.328239 0.589127
C2    C     C_R   0.603611 0.000271 0.489784 0.000474
C3    C     C_R   0.700670 0.698718 0.896148 0.017743
C4    C     C_R   0.110118 0.817218 0.051035 -0.071320
C5    C     C_R   0.837594 0.099343 0.009134 -0.074022
C6    C     C_R   0.889882 0.817218 0.948965 -0.071320
C7    C     C_R   0.162406 0.099343 0.990866 -0.074022
C8    C     C_R   0.611763 0.319749 0.050609 -0.068573
C9    C     C_R   0.337554 0.597846 0.008680 -0.073084
C10   C     C_R   0.388237 0.319749 0.949391 -0.068573
C11   C     C_R   0.662446 0.597846 0.991320 -0.073084
C12   C     C_R   0.137103 0.796544 0.100424 -0.026114
C13   C     C_R   0.897081 0.500326 0.507159 -0.006010
C14   C     C_R   0.808056 0.114358 0.962790 -0.028738
C15   C     C_R   0.862897 0.796544 0.899576 -0.026114
C16   C     C_R   0.191944 0.114358 0.037210 -0.028739
C17   C     C_R   0.639305 0.300693 0.099700 -0.025043
C18   C     C_R   0.307960 0.612157 0.962188 -0.029107
C19   C     C_R   0.360695 0.300693 0.900300 -0.025043
C20   C     C_R   0.692040 0.612157 0.037812 -0.029108
C21   C     C_R   0.240103 0.693406 0.793344 0.209332
C22   C     C_R   0.765186 0.304922 0.194886 0.191906
C23   C     C_R   0.759897 0.693406 0.206656 0.209331
C24   C     C_R   0.102919 0.500326 0.492841 -0.006010
C25   C     C_R   0.234814 0.304922 0.805114 0.191906
C26   C     C_R   0.743046 0.197004 0.792368 0.210494
C27   C     C_R   0.262704 0.802012 0.195613 0.189108
C28   C     C_R   0.256954 0.197004 0.207632 0.210494
C29   C     C_R   0.737296 0.802012 0.804386 0.189108
C30   C     C_R   0.273851 0.683723 0.833520 -0.014100
C31   C     C_R   0.730960 0.317532 0.154749 -0.026761
C32   C     C_R   0.726148 0.683723 0.166480 -0.014100
C33   C     C_R   0.269040 0.317531 0.845251 -0.026761
C34   C     C_R   0.776563 0.188205 0.833031 -0.016011
C35   C     C_R   0.610668 0.876294 0.460150 0.047790
C36   C     C_R   0.228211 0.813795 0.155842 -0.031386
C37   C     C_R   0.223436 0.188205 0.166969 -0.016012
C38   C     C_R   0.771789 0.813795 0.844158 -0.031386
C39   C     C_R   0.928138 0.900301 0.064601 0.521183
C40   C     C_R   0.076976 0.091719 0.930328 0.540920
C41   C     C_R   0.071862 0.900301 0.935399 0.521184
C42   C     C_R   0.923024 0.091719 0.069671 0.540919
C43   C     C_R   0.428010 0.400433 0.064665 0.520500
C44   C     C_R   0.577106 0.591505 0.930292 0.540639
C45   C     C_R   0.571990 0.400433 0.935335 0.520501
C46   C     C_R   0.389330 0.124449 0.539631 0.046242
C47   C     C_R   0.422894 0.591505 0.069708 0.540638
C48   C     C_R   0.054733 0.628193 0.484132 -0.055179
C49   C     C_R   0.945327 0.372938 0.516059 0.009361
C50   C     C_R   0.945267 0.628193 0.515868 -0.055179
C51   C     C_R   0.054672 0.372938 0.483942 0.009360
C52   C     C_R   0.554994 0.128239 0.482807 -0.052764
C53   C     C_R   0.445024 0.872751 0.517530 0.011557
C54   C     C_R   0.445006 0.128239 0.517193 -0.052764
C55   C     C_R   0.554976 0.872751 0.482469 0.011558
C56   C     C_R   0.027199 0.692545 0.492508 0.161860
C57   C     C_R   0.389332 0.876294 0.539850 0.047791
C58   C     C_R   0.972867 0.308636 0.507305 0.205095
C59   C     C_R   0.972801 0.692545 0.507492 0.161860
C60   C     C_R   0.027132 0.308636 0.492696 0.205096
C61   C     C_R   0.527288 0.192576 0.492019 0.160050
C62   C     C_R   0.472750 0.808459 0.507908 0.203076
C63   C     C_R   0.472712 0.192576 0.507981 0.160050
C64   C     C_R   0.527250 0.808459 0.492090 0.203076
C65   C     C_R   0.973417 0.564629 0.505258 -0.008932
C66   C     C_R   0.026574 0.436490 0.494646 -0.022982
C67   C     C_R   0.026583 0.564629 0.494742 -0.008931
C68   C     C_R   0.610670 0.124449 0.460369 0.046242
C69   C     C_R   0.973426 0.436490 0.505355 -0.022981
C70   C     C_R   0.473235 0.064612 0.506114 -0.006749
C71   C     C_R   0.526768 0.936358 0.493751 -0.021086
C72   C     C_R   0.526765 0.064612 0.493886 -0.006749
C73   C     C_R   0.473232 0.936358 0.506248 -0.021087
C74   C     C_R   0.447075 0.000429 0.510086 0.017297
C75   C     C_R   0.552925 0.000429 0.489913 0.017297
C76   C     C_R   0.947464 0.500500 0.508260 0.015742
C77   C     C_R   0.052536 0.500500 0.491741 0.015742
C78   C     C_R   0.370479 0.936273 0.512719 -0.055843
C79   C     C_R   0.110233 0.376559 0.462249 0.051535
C80   C     C_R   0.629580 0.064102 0.487182 0.023099
C81   C     C_R   0.629522 0.936273 0.487281 -0.055842
C82   C     C_R   0.370420 0.064102 0.512818 0.023098
C83   C     C_R   0.871188 0.436352 0.509682 -0.059669
C84   C     C_R   0.128937 0.564099 0.490090 0.018584
C85   C     C_R   0.128811 0.436352 0.490318 -0.059669
C86   C     C_R   0.871063 0.564099 0.509910 0.018584
C87   C     C_R   0.327084 0.935541 0.489428 -0.037796
C88   C     C_R   0.672856 0.064603 0.510767 0.003684
C89   C     C_R   0.672916 0.935541 0.510572 -0.037796
C90   C     C_R   0.889712 0.624293 0.537661 0.050024
C91   C     C_R   0.327144 0.064603 0.489233 0.003685
C92   C     C_R   0.827313 0.435570 0.487529 -0.050740
C93   C     C_R   0.172726 0.564582 0.512520 -0.010386
C94   C     C_R   0.172686 0.435570 0.512471 -0.050741
C95   C     C_R   0.827274 0.564582 0.487480 -0.010386
C96   C     C_R   0.310616 0.000037 0.468186 -0.052321
C97   C     C_R   0.689383 0.000037 0.531814 -0.052321
C98   C     C_R   0.809590 0.500013 0.468195 -0.055864
C99   C     C_R   0.190410 0.500013 0.531806 -0.055864
C100  C     C_2   0.286518 0.999953 0.406525 0.338498
C101  C     C_R   0.889766 0.376560 0.537752 0.051536
C102  C     C_2   0.713482 0.999953 0.593475 0.338498
C103  C     C_2   0.777719 0.499699 0.417870 0.334051
C104  C     C_2   0.222281 0.499699 0.582130 0.334050
C105  C     C_2   0.650876 0.838996 0.378250 0.303408
C106  C     C_2   0.350309 0.163501 0.620988 0.275761
C107  C     C_2   0.349124 0.838996 0.621750 0.303408
C108  C     C_2   0.649691 0.163501 0.379012 0.275761
C109  C     C_2   0.150573 0.340280 0.379485 0.307609
C110  C     C_2   0.850539 0.662539 0.619715 0.279630
C111  C     C_2   0.849426 0.340280 0.620515 0.307609
C112  C     C_R   0.703693 0.268803 0.671903 0.530966
C113  C     C_R   0.110288 0.624293 0.462339 0.050024
C114  C     C_2   0.149461 0.662539 0.380285 0.279629
C115  C     C_2   0.106474 0.794419 0.200348 0.273377
C116  C     C_2   0.805175 0.059051 0.903282 0.210299
C117  C     C_2   0.893525 0.794419 0.799652 0.273377
C118  C     C_2   0.194825 0.059051 0.096718 0.210300
C119  C     C_2   0.609075 0.299741 0.199697 0.277037
C120  C     C_2   0.306424 0.556741 0.901802 0.205215
C121  C     C_2   0.390925 0.299741 0.800303 0.277036
C122  C     C_2   0.693576 0.556741 0.098198 0.205216
C123  C     C_2   0.332049 0.667534 0.774516 0.356021
C124  C     C_R   0.208465 0.745950 0.965196 0.026504
C125  C     C_2   0.704745 0.386793 0.165850 0.296479
C126  C     C_2   0.667951 0.667535 0.225484 0.356021
C127  C     C_2   0.295256 0.386793 0.834150 0.296479
C128  C     C_2   0.834819 0.171165 0.775464 0.352084
C129  C     C_2   0.201218 0.882676 0.167504 0.298091
C130  C     C_2   0.165181 0.171165 0.224536 0.352084
C131  C     C_2   0.798782 0.882676 0.832496 0.298091
C132  C     C_R   0.769397 0.215997 0.058556 0.029765
C133  C     C_R   0.791534 0.745950 0.034804 0.026504
C134  C     C_R   0.230603 0.215997 0.941444 0.029764
C135  C     C_R   0.710458 0.249719 0.964517 0.026869
C136  C     C_R   0.267801 0.712885 0.058928 0.030387
C137  C     C_R   0.289542 0.249719 0.035483 0.026869
C138  C     C_R   0.732199 0.712885 0.941072 0.030388
C139  C     C_R   0.254119 0.701077 0.925470 -0.060493
C140  C     C_R   0.703711 0.731093 0.671761 0.589127
C141  C     C_R   0.729261 0.268717 0.091750 -0.069329
C142  C     C_R   0.745881 0.701077 0.074530 -0.060492
C143  C     C_R   0.270739 0.268717 0.908250 -0.069329
C144  C     C_R   0.756078 0.204953 0.925072 -0.060723
C145  C     C_R   0.227042 0.764853 0.092595 -0.068414
C146  C     C_R   0.243922 0.204953 0.074928 -0.060724
C147  C     C_R   0.772958 0.764853 0.907405 -0.068414
C148  C     C_R   0.277291 0.675082 0.980181 -0.023838
C149  C     C_R   0.692972 0.274533 0.053139 -0.036384
C150  C     C_R   0.722708 0.675082 0.019819 -0.023838
C151  C     C_R   0.296307 0.268803 0.328097 0.530966
C152  C     C_R   0.307028 0.274533 0.946860 -0.036384
C153  C     C_R   0.778522 0.178157 0.980179 -0.024689
C154  C     C_R   0.190782 0.770321 0.053982 -0.036355
C155  C     C_R   0.221478 0.178157 0.019821 -0.024689
C156  C     C_R   0.809218 0.770321 0.946018 -0.036355
C157  C     C_R   0.134776 0.811396 0.956357 -0.012828
C158  C     C_R   0.838658 0.145868 0.073167 -0.008845
C159  C     C_R   0.865224 0.811396 0.043643 -0.012828
C160  C     C_R   0.161342 0.145868 0.926833 -0.008845
C161  C     C_R   0.636032 0.313294 0.955959 -0.011867
C162  C     C_R   0.796539 0.231511 0.328267 0.583348
C163  C     C_R   0.338026 0.644362 0.073158 -0.007822
C164  C     C_R   0.363968 0.313294 0.044041 -0.011867
C165  C     C_R   0.661974 0.644362 0.926842 -0.007822
C166  C     C_R   0.112982 0.842850 0.902241 -0.026634
C167  C     C_R   0.874489 0.136909 0.111285 -0.024660
C168  C     C_R   0.887018 0.842850 0.097759 -0.026634
C169  C     C_R   0.125511 0.136909 0.888715 -0.024660
C170  C     C_R   0.613491 0.343429 0.902159 -0.025771
C171  C     C_R   0.374007 0.636150 0.111268 -0.022950
C172  C     C_R   0.386508 0.343429 0.097841 -0.025771
C173  C     C_R   0.203520 0.768559 0.671904 0.522862
C174  C     C_R   0.625993 0.636150 0.888732 -0.022949
C175  C     C_R   0.135012 0.824601 0.811272 -0.155713
C176  C     C_R   0.862780 0.170598 0.192092 -0.149048
C177  C     C_R   0.864988 0.824601 0.188728 -0.155713
C178  C     C_R   0.137220 0.170598 0.807908 -0.149048
C179  C     C_R   0.635181 0.324521 0.811460 -0.151461
C180  C     C_R   0.362185 0.670046 0.191950 -0.143628
C181  C     C_R   0.364819 0.324521 0.188539 -0.151461
C182  C     C_R   0.637814 0.670046 0.808050 -0.143628
C183  C     C_R   0.177874 0.776874 0.771605 -0.018967
C184  C     C_R   0.203461 0.231511 0.671733 0.583347
C185  C     C_R   0.819883 0.218039 0.230293 0.015322
C186  C     C_R   0.822126 0.776874 0.228395 -0.018966
C187  C     C_R   0.180117 0.218039 0.769706 0.015322
C188  C     C_R   0.678605 0.277622 0.771527 -0.016395
C189  C     C_R   0.318948 0.716906 0.230375 0.015891
C190  C     C_R   0.321395 0.277622 0.228473 -0.016394
C191  C     C_R   0.681052 0.716906 0.769625 0.015890
C192  C     C_R   0.199682 0.745676 0.825662 -0.001821
C193  C     C_R   0.794245 0.241327 0.178353 0.027862
C194  C     C_R   0.800318 0.745676 0.174338 -0.001821
C195  C     C_R   0.796480 0.768559 0.328096 0.522862
C196  C     C_R   0.205755 0.241327 0.821647 0.027862
C197  C     C_R   0.701436 0.247934 0.825099 -0.000855
C198  C     C_R   0.292594 0.739105 0.178857 0.025913
C199  C     C_R   0.298564 0.247934 0.174900 -0.000855
C200  C     C_R   0.707405 0.739105 0.821143 0.025913
C201  C     C_R   0.199125 0.631347 0.517946 0.564809
C202  C     C_R   0.800858 0.368692 0.482205 0.513593
C203  C     C_R   0.800875 0.631347 0.482054 0.564809
C204  C     C_R   0.199142 0.368692 0.517795 0.513593
C205  C     C_R   0.699201 0.131299 0.517389 0.573120
C206  C     C_R   0.396389 0.000271 0.510216 0.000474
C207  C     C_R   0.300762 0.868742 0.482774 0.521449
C208  C     C_R   0.300799 0.131299 0.482611 0.573121
C209  C     C_R   0.699238 0.868742 0.517226 0.521448
C210  C     C_R   0.181320 0.768405 0.915287 0.004599
C211  C     C_R   0.800644 0.201039 0.103530 0.017571
C212  C     C_R   0.818680 0.768405 0.084713 0.004599
C213  C     C_R   0.199356 0.201039 0.896470 0.017571
C214  C     C_R   0.683014 0.271133 0.914685 0.004557
C215  C     C_R   0.299330 0.698718 0.103852 0.017743
C216  C     C_R   0.316986 0.271133 0.085315 0.004557
Cu1   Cu    Cu3+1 0.209920 0.785290 0.495070 1.120298
Cu2   Cu    Cu3+1 0.504760 0.500000 0.075850 1.071064
Cu3   Cu    Cu3+1 0.995240 0.000000 0.924150 1.056556
Cu4   Cu    Cu3+1 0.004760 0.000000 0.075850 1.056556
Cu5   Cu    Cu3+1 0.790080 0.214710 0.504930 1.138259
Cu6   Cu    Cu3+1 0.790080 0.785290 0.504930 1.120298
Cu7   Cu    Cu3+1 0.209920 0.214710 0.495070 1.138260
Cu8   Cu    Cu3+1 0.709920 0.285290 0.495070 1.178059
Cu9   Cu    Cu3+1 0.290080 0.714710 0.504930 1.195491
Cu10  Cu    Cu3+1 0.290080 0.285290 0.504930 1.178059
Cu11  Cu    Cu3+1 0.709920 0.714710 0.495070 1.195489
Cu12  Cu    Cu3+1 0.495240 0.500000 0.924150 1.071063
H1    H     H_    0.119708 0.849968 0.769687 0.173671
H2    H     H_    0.857052 0.048648 0.998302 0.180239
H3    H     H_    0.931614 0.833359 0.911622 0.195083
H4    H     H_    0.142948 0.048648 0.001698 0.180239
H5    H     H_    0.569843 0.334939 0.088361 0.195944
H6    H     H_    0.357582 0.547537 0.997519 0.179879
H7    H     H_    0.430157 0.334939 0.911639 0.195944
H8    H     H_    0.642418 0.547538 0.002481 0.179879
H9    H     H_    0.242888 0.998313 0.431780 0.168301
H10   H     H_    0.757112 0.998313 0.568220 0.168301
H11   H     H_    0.799009 0.498076 0.345196 0.169910
H12   H     H_    0.885879 0.157685 0.227427 0.167487
H13   H     H_    0.200991 0.498075 0.654803 0.169911
H14   H     H_    0.693949 0.845593 0.355812 0.098938
H15   H     H_    0.363492 0.207386 0.646962 0.130397
H16   H     H_    0.306051 0.845594 0.644189 0.098936
H17   H     H_    0.636508 0.207386 0.353038 0.130397
H18   H     H_    0.193642 0.347177 0.356890 0.102122
H19   H     H_    0.863474 0.706478 0.645999 0.129041
H20   H     H_    0.806358 0.347175 0.643110 0.102125
H21   H     H_    0.136526 0.706477 0.354001 0.129041
H22   H     H_    0.122928 0.766719 0.238783 0.118133
H23   H     H_    0.880292 0.849968 0.230313 0.173671
H24   H     H_    0.768971 0.052756 0.894895 0.156999
H25   H     H_    0.877072 0.766719 0.761217 0.118133
H26   H     H_    0.231029 0.052756 0.105105 0.156999
H27   H     H_    0.625658 0.272579 0.238310 0.119109
H28   H     H_    0.270314 0.548749 0.893569 0.153472
H29   H     H_    0.374342 0.272579 0.761690 0.119110
H30   H     H_    0.729686 0.548750 0.106432 0.153472
H31   H     H_    0.361635 0.675354 0.798955 0.134393
H32   H     H_    0.701616 0.409457 0.109209 0.131854
H33   H     H_    0.638365 0.675354 0.201045 0.134393
H34   H     H_    0.114121 0.157685 0.772573 0.167487
H35   H     H_    0.298384 0.409457 0.890790 0.131854
H36   H     H_    0.863861 0.178226 0.801200 0.131913
H37   H     H_    0.198055 0.905616 0.111002 0.139308
H38   H     H_    0.136139 0.178226 0.198800 0.131913
H39   H     H_    0.801946 0.905616 0.888998 0.139308
H40   H     H_    0.619155 0.348802 0.770232 0.177057
H41   H     H_    0.385609 0.657859 0.226952 0.170423
H42   H     H_    0.380844 0.348802 0.229768 0.177057
H43   H     H_    0.614391 0.657859 0.773048 0.170423
H44   H     H_    0.068386 0.833359 0.088378 0.195083
O1    O     O_R   0.255040 0.869590 0.478480 -0.506637
O2    O     O_R   0.817950 0.203450 0.375560 -0.516589
O3    O     O_R   0.817950 0.796550 0.375560 -0.516085
O4    O     O_R   0.182050 0.203450 0.624440 -0.516589
O5    O     O_R   0.682050 0.296550 0.624440 -0.506151
O6    O     O_R   0.317950 0.703450 0.375560 -0.505526
O7    O     O_R   0.317950 0.296550 0.375560 -0.506151
O8    O     O_R   0.682050 0.703450 0.624440 -0.505526
O9    O     O_R   0.250530 0.763330 0.367210 -0.457244
O10   O     O_R   0.749470 0.236670 0.632790 -0.477106
O11   O     O_R   0.749470 0.763330 0.632790 -0.457244
O12   O     O_R   0.744960 0.130410 0.521520 -0.502614
O13   O     O_R   0.250530 0.236670 0.367210 -0.477105
O14   O     O_R   0.750530 0.263330 0.367210 -0.453582
O15   O     O_R   0.249470 0.736670 0.632790 -0.475660
O16   O     O_R   0.249470 0.263330 0.632790 -0.453581
O17   O     O_R   0.750530 0.736670 0.367210 -0.475662
O18   O     O_R   0.177260 0.690030 0.513710 -0.496831
O19   O     O_R   0.822740 0.309970 0.486290 -0.519521
O20   O     O_R   0.822740 0.690030 0.486290 -0.496831
O21   O     O_R   0.177260 0.309970 0.513710 -0.519520
O22   O     O_R   0.677260 0.190030 0.513710 -0.489722
O23   O     O_R   0.744960 0.869590 0.521520 -0.506636
O24   O     O_R   0.322740 0.809970 0.486290 -0.512056
O25   O     O_R   0.322740 0.190030 0.486290 -0.489722
O26   O     O_R   0.677260 0.809970 0.513710 -0.512057
O27   O     O_R   0.051640 0.926880 0.885090 -0.505506
O28   O     O_R   0.948360 0.073120 0.114910 -0.500424
O29   O     O_R   0.948360 0.926880 0.114910 -0.505506
O30   O     O_R   0.051640 0.073120 0.885090 -0.500425
O31   O     O_R   0.551640 0.426880 0.885090 -0.502543
O32   O     O_R   0.448360 0.573120 0.114910 -0.497145
O33   O     O_R   0.448360 0.426880 0.114910 -0.502543
O34   O     O_R   0.255040 0.130410 0.478480 -0.502614
O35   O     O_R   0.551640 0.573120 0.885090 -0.497145
O36   O     O_R   0.940620 0.926560 0.986760 -0.522271
O37   O     O_R   0.059380 0.073440 0.013240 -0.505353
O38   O     O_R   0.059380 0.926560 0.013240 -0.522271
O39   O     O_R   0.940620 0.073440 0.986760 -0.505352
O40   O     O_R   0.440620 0.426560 0.986760 -0.524600
O41   O     O_R   0.559380 0.573440 0.013240 -0.506048
O42   O     O_R   0.559380 0.426560 0.013240 -0.524600
O43   O     O_R   0.440620 0.573440 0.986760 -0.506048
O44   O     O_2   0.316609 0.001755 0.325825 -0.400576
O45   O     O_R   0.755040 0.369590 0.478480 -0.450120
O46   O     O_2   0.683391 0.001755 0.674174 -0.400576
O47   O     O_2   0.728186 0.500440 0.457203 -0.380336
O48   O     O_2   0.271814 0.500440 0.542797 -0.380335
O49   O     O_2   0.636692 0.805173 0.330881 -0.481656
O50   O     O_2   0.303409 0.143850 0.663789 -0.530459
O51   O     O_2   0.363308 0.805171 0.669116 -0.481655
O52   O     O_2   0.696591 0.143850 0.336210 -0.530459
O53   O     O_2   0.136447 0.306925 0.331704 -0.482659
O54   O     O_2   0.803820 0.642228 0.662582 -0.525654
O55   O     O_2   0.863552 0.306927 0.668298 -0.482661
O56   O     O_R   0.244960 0.630410 0.521520 -0.446665
O57   O     O_2   0.196180 0.642228 0.337418 -0.525654
O58   O     O_2   0.062420 0.823087 0.240860 -0.431429
O59   O     O_2   0.844468 0.021768 0.860314 -0.459516
O60   O     O_2   0.937580 0.823086 0.759140 -0.431429
O61   O     O_2   0.155532 0.021767 0.139685 -0.459516
O62   O     O_2   0.565186 0.328828 0.240111 -0.425762
O63   O     O_2   0.346752 0.521373 0.857834 -0.453979
O64   O     O_2   0.434814 0.328828 0.759889 -0.425762
O65   O     O_2   0.653247 0.521373 0.142166 -0.453979
O66   O     O_2   0.347869 0.646741 0.697507 -0.347628
O67   O     O_R   0.244960 0.369590 0.521520 -0.450120
O68   O     O_2   0.684886 0.417352 0.238081 -0.349121
O69   O     O_2   0.652130 0.646741 0.302493 -0.347629
O70   O     O_2   0.315114 0.417351 0.761918 -0.349121
O71   O     O_2   0.851320 0.150527 0.698249 -0.359847
O72   O     O_2   0.180727 0.912619 0.240159 -0.363170
O73   O     O_2   0.148680 0.150527 0.301750 -0.359847
O74   O     O_2   0.819273 0.912619 0.759841 -0.363170
O75   O     O_R   0.755040 0.630410 0.478480 -0.446666
O76   O     O_R   0.182050 0.796550 0.624440 -0.516085

loop_
_geom_bond_atom_site_label_1
_geom_bond_atom_site_label_2
_ccdc_geom_bond_type
C35   C81   A    
Cu3   O39   S    
C71   C75   A    
C133  C156  A    
C91   C96   A    
C24   C77   A    
C3    C165  A    
C130  O73   D    
C30   C139  A    
C174  C182  A    
Cu11  O17   S    
Cu1   O9    S    
C122  H30   S    
C2    C75   A    
C8    H5    S    
C186  C194  A    
C204  O21   A    
C127  O70   D    
C70   C72   A    
C135  C214  A    
Br4   C25   S    
C168  C177  A    
C202  O45   A    
C131  O74   D    
C52   C61   A    
C46   C54   A    
C4    H44   S    
C7    H4    S    
Br8   C29   S    
C108  O52   D    
C87   C207  S    
Cu10  O67   S    
C28   C37   A    
Cu4   O28   S    
Cu7   O4    S    
C176  H12   S    
C109  H18   S    
C137  C216  A    
C105  H14   S    
Cu9   O15   S    
C136  C215  A    
C81   C89   A    
Cu10  O16   S    
Br3   C23   S    
C84   C93   A    
C181  C190  A    
C35   C55   A    
C115  O58   D    
C198  C215  A    
C39   O29   A    
Cu3   O30   S    
C25   C33   A    
C209  O23   A    
C61   C63   A    
C103  O47   D    
C134  C143  A    
C13   C83   A    
C47   O32   A    
C177  H23   S    
C40   O37   A    
C70   C74   A    
Cu9   O6    S    
C7    C160  A    
C110  O54   D    
C34   C144  A    
C85   C94   A    
C32   C142  A    
C161  C170  A    
C87   C96   A    
C158  C211  A    
C106  O50   D    
C14   C153  A    
C165  C174  A    
Cu5   O19   S    
C18   C120  S    
C116  O59   D    
C119  H27   S    
C39   O36   A    
C120  H28   S    
C147  C156  A    
C12   C154  A    
C157  C166  A    
C80   C88   A    
C137  C152  A    
C35   C105  S    
C21   C192  A    
C163  C215  A    
C203  O75   A    
Cu7   O21   S    
Cu5   O10   S    
Cu4   O37   S    
C54   C63   A    
C194  C212  A    
C208  O25   A    
C24   C84   A    
C122  O65   D    
C41   O38   A    
C66   C69   A    
C31   C125  S    
C124  C210  A    
C162  O14   A    
C37   C130  S    
C19   C121  S    
Cu8   O5    S    
C191  C200  A    
C13   C86   A    
Cu9   O24   S    
C106  H15   S    
C40   C169  S    
C44   C174  S    
C15   C156  A    
Cu2   Cu12  S    
C30   C123  S    
C107  O51   D    
Cu8   O14   S    
C67   C77   A    
Cu2   O32   S    
C186  C195  S    
C129  H37   S    
C203  O20   A    
C6    C159  A    
Br10  C62   S    
Cu10  O7    S    
C83   C92   A    
Cu10  O25   S    
C58   C60   A    
Br14  C58   S    
C89   C97   A    
Cu8   O45   S    
C18   C148  A    
C62   C64   A    
C27   C36   A    
C116  H24   S    
C104  O48   D    
C111  H20   S    
Br9   C63   S    
Cu3   O36   S    
Br11  C61   S    
C192  C210  A    
C24   C85   A    
C114  H21   S    
Br1   C64   S    
Br13  C59   S    
C57   C107  S    
C110  H19   S    
C39   C168  S    
C89   C209  S    
C38   C147  A    
C133  C142  A    
C98   C103  S    
Cu5   O12   S    
C151  O13   A    
Cu6   O11   S    
C173  C183  S    
C51   C79   A    
C123  H31   S    
C95   C203  S    
C56   C59   A    
C53   C73   A    
C185  C193  A    
C41   C166  S    
C65   C67   A    
C69   C76   A    
C34   C128  S    
C19   C152  A    
C1    O9    A    
C138  C147  A    
C146  C155  A    
C199  C216  A    
C36   C145  A    
C141  C149  A    
C161  C214  A    
Cu11  O8    S    
C135  C149  A    
Cu6   Cu11  S    
C49   C58   A    
C179  H40   S    
C11   C165  A    
C83   C101  A    
Br2   C22   S    
C72   C75   A    
C176  C185  A    
Cu11  O75   S    
C132  C153  A    
C201  O18   A    
C111  O55   D    
C120  O63   D    
C26   C34   A    
C201  O56   A    
Cu6   O23   S    
C178  H34   S    
C47   C171  S    
Cu1   O1    S    
C207  O24   A    
C42   O28   A    
C46   C106  S    
C113  C114  S    
C31   C141  A    
C45   O31   A    
C182  C191  A    
C17   C149  A    
C114  O57   D    
C138  C150  A    
C5    H2    S    
C118  H26   S    
C9    C18   A    
C1    C189  S    
C73   C74   A    
C26   C197  A    
Cu2   O41   S    
C16   C118  S    
C196  C213  A    
C108  H17   S    
C14   C116  S    
C160  C213  A    
C82   C206  A    
C183  C192  A    
C132  C141  A    
C42   O39   A    
C93   C201  S    
C195  O17   A    
C88   C97   A    
C107  H16   S    
C20   C150  A    
C162  C185  S    
C78   C206  A    
C133  C212  A    
C49   C101  A    
C33   C143  A    
Cu9   O56   S    
C27   C198  A    
C79   C85   A    
C190  C199  A    
Br5   C26   S    
C205  O12   A    
C171  C180  A    
C162  O2    A    
C88   C205  S    
C140  O11   A    
C96   C100  S    
C169  C178  A    
C167  C176  A    
C181  H42   S    
C86   C95   A    
Cu3   Cu4   S    
C160  C169  A    
C47   O43   A    
C100  O44   D    
Cu12  O31   S    
C91   C208  S    
C37   C146  A    
C163  C171  A    
C104  H13   S    
Cu12  O43   S    
C126  H33   S    
C112  C188  S    
C92   C98   A    
C195  O3    A    
C164  C172  A    
Cu7   O13   S    
C25   C196  A    
C204  O67   A    
C144  C153  A    
C53   C57   A    
C2    C81   A    
C45   O42   A    
C130  H38   S    
Br16  C21   S    
C92   C202  S    
C208  O34   A    
C66   C77   A    
C112  O5    A    
C57   C78   A    
C102  O46   D    
C129  O72   D    
C100  H9    S    
Cu4   O38   S    
C209  O26   A    
C52   C68   A    
C151  C190  S    
C173  O76   A    
C84   C113  A    
C179  C188  A    
C109  O53   D    
C177  C186  A    
C23   C194  A    
C11   H8    S    
C48   C67   A    
Br15  C56   S    
C105  O49   D    
C131  H39   S    
C9    H6    S    
C134  C155  A    
C173  O15   A    
C184  O4    A    
C49   C69   A    
C101  C111  S    
C55   C71   A    
C16   C155  A    
C78   C87   A    
Br6   C27   S    
Br12  C60   S    
Cu12  O40   S    
Cu1   O76   S    
C41   O27   A    
C166  C175  A    
Cu3   O27   S    
C142  C150  A    
C182  H43   S    
C119  O62   D    
C126  O69   D    
C124  C154  A    
C44   O35   A    
C103  H11   S    
C158  C167  A    
C9    C163  A    
C10   C164  A    
C11   C20   A    
C4    C12   A    
C5    C14   A    
C90   C110  S    
C128  O71   D    
C8    C17   A    
C137  C146  A    
C157  C210  A    
C118  O61   D    
C7    C16   A    
C50   C65   A    
C121  O64   D    
C172  C181  A    
C50   C59   A    
C33   C127  S    
C95   C98   A    
C184  O16   A    
C159  C212  A    
C124  C139  A    
C5    C158  A    
C8    C161  A    
C3    C138  A    
C42   C167  S    
C193  C211  A    
C21   C30   A    
C20   C122  S    
C94   C99   A    
C13   C76   A    
C197  C214  A    
C23   C32   A    
C159  C168  A    
C36   C129  S    
C28   C199  A    
C2    C80   A    
Cu1   O18   S    
C15   C117  S    
C125  O68   D    
C115  H22   S    
C134  C213  A    
C175  C183  A    
C74   C206  A    
Cu5   O2    S    
C6    H3    S    
C40   O30   A    
Cu4   O29   S    
C117  O60   D    
C29   C200  A    
C143  C152  A    
C3    C200  A    
C68   C80   A    
C180  C189  A    
C140  C191  S    
C17   C119  S    
C202  O19   A    
C102  H10   S    
C46   C82   A    
Cu6   O20   S    
C94   C204  S    
C43   O33   A    
C65   C76   A    
C53   C62   A    
C132  C211  A    
C50   C90   A    
C123  O66   D    
C55   C64   A    
Cu2   O33   S    
C1    O6    A    
C151  O7    A    
C6    C15   A    
C140  O8    A    
Cu7   O34   S    
C170  C179  A    
Cu8   O22   S    
C188  C197  A    
Cu2   O42   S    
C205  O22   A    
C79   C109  S    
C117  H25   S    
C4    C157  A    
C127  H35   S    
C32   C126  S    
C43   C172  S    
C128  H36   S    
Br7   C28   S    
C22   C31   A    
C136  C148  A    
C145  C154  A    
Cu1   Cu9   S    
C29   C38   A    
C207  O1    A    
C52   C72   A    
C187  C196  A    
Cu5   Cu8   S    
C180  H41   S    
C54   C70   A    
C44   O41   A    
C164  C216  A    
Cu12  O35   S    
C136  C145  A    
C189  C198  A    
Cu6   O3    S    
C112  O10   A    
C139  C148  A    
C68   C108  S    
C43   O40   A    
C12   C115  S    
C135  C144  A    
C71   C73   A    
C184  C187  S    
C175  H1    S    
C178  C187  A    
C121  H29   S    
C45   C170  S    
C10   C19   A    
C86   C90   A    
Cu7   Cu10  S    
C48   C56   A    
C22   C193  A    
C10   H7    S    
C93   C99   A    
C97   C102  S    
C48   C113  A    
C51   C66   A    
C99   C104  S    
Cu11  O26   S    
C51   C60   A    
C125  H32   S    
C38   C131  S    
C82   C91   A    
