data_mof_unit_48015.cif
_audit_creation_date              2012-12-10T18:16:24-0500
_audit_creation_method            fapswitch 2.2
_symmetry_space_group_name_H-M    P1
_symmetry_Int_Tables_number       1
_space_group_crystal_system       triclinic
_cell_length_a                    12.549517
_cell_length_b                    13.3883
_cell_length_c                    27.611256
_cell_angle_alpha                 91.390135
_cell_angle_beta                  102.132861
_cell_angle_gamma                 84.175783
_cell_volume                      4512.09334154

loop_
_atom_site_label
_atom_site_type_symbol
_atom_type_description
_atom_site_fract_x
_atom_site_fract_y
_atom_site_fract_z
_atom_type_partial_charge
C1    C     C_R   0.440785 0.690097 0.490367 0.906623
C2    C     C_R   0.586997 0.551783 0.730070 -0.102721
C3    C     C_R   0.501360 0.516883 0.748015 0.307356
C4    C     C_R   0.507685 0.540365 0.900631 -0.120640
C5    C     C_R   0.424198 0.594770 0.866326 0.011319
C6    C     C_R   0.344058 0.658151 0.883102 -0.139008
C7    C     C_R   0.588379 0.476051 0.883438 -0.136409
C8    C     C_R   0.501144 0.504688 0.646986 -0.042194
C9    C     C_R   0.494972 0.516187 0.353906 -0.132692
C10   C     C_R   0.421278 0.611281 0.019590 0.061206
C11   C     C_R   0.603058 0.515044 0.037897 0.001061
C12   C     C_R   0.500467 0.500644 0.593990 0.878950
C13   C     C_R   0.512095 0.565475 0.054157 0.070541
C14   C     C_R   0.329058 0.654556 0.037204 -0.219418
C15   C     C_R   0.326735 0.653410 0.087167 -0.148822
C16   C     C_R   0.416423 0.609867 0.121442 0.007010
C17   C     C_R   0.510676 0.567712 0.105337 -0.116524
C18   C     C_R   0.602307 0.525813 0.140303 -0.157994
C19   C     C_R   0.594090 0.521686 0.190198 0.525515
C20   C     C_R   0.412888 0.604908 0.171576 0.514067
C21   C     C_R   0.538197 0.616144 0.290177 -0.107842
C22   C     C_R   0.539378 0.600167 0.339747 -0.276886
C23   C     C_R   0.559162 0.310099 0.502755 0.869507
C24   C     C_R   0.449488 0.447445 0.318098 0.444010
C25   C     C_R   0.446576 0.465206 0.268189 -0.206267
C26   C     C_R   0.492185 0.548565 0.254505 0.261190
C27   C     C_R   0.424259 0.609896 0.968556 0.060170
C28   C     C_R   0.509984 0.550257 0.952055 0.070783
C29   C     C_R   0.597780 0.500420 0.986507 0.009916
C30   C     C_R   0.343804 0.665595 0.933230 -0.223629
C31   C     C_R   0.670536 0.420580 0.917869 0.505925
C32   C     C_R   0.696488 0.480514 0.073704 -0.306517
C33   C     C_R   0.698093 0.488132 0.124173 0.528211
C34   C     C_R   0.499031 0.501743 0.406224 0.879799
C35   C     C_R   0.676019 0.434993 0.968433 -0.320545
C36   C     C_R   0.723428 0.068836 0.486214 -0.202725
C37   C     C_R   0.591109 0.204841 0.496280 -0.065607
C38   C     C_R   0.295202 0.830092 0.476291 -0.436907
C39   C     C_R   0.260559 0.932829 0.477853 0.489859
C40   C     C_R   0.341147 0.999869 0.488395 0.410425
C41   C     C_R   0.451179 0.969939 0.482471 -0.133136
C42   C     C_R   0.481580 0.866592 0.476016 -0.028507
C43   C     C_R   0.532847 0.037518 0.483858 0.041121
C44   C     C_R   0.642608 0.001623 0.482313 0.078735
C45   C     C_R   0.423441 0.585575 0.815736 0.500764
C46   C     C_R   0.669752 0.900040 0.475334 0.441144
C47   C     C_R   0.587608 0.835484 0.467506 -0.268729
C48   C     C_R   0.508629 0.140681 0.485204 -0.221416
C49   C     C_R   0.699121 0.169243 0.496158 -0.236213
C50   C     C_R   0.405840 0.796819 0.479667 -0.135187
C51   C     C_R   0.082666 0.353087 0.426727 0.394591
C52   C     C_R   0.808320 0.604576 0.568659 -0.021840
C53   C     C_R   0.918417 0.614223 0.587762 -0.267401
C54   C     C_R   0.996498 0.575952 0.561364 -0.214757
C55   C     C_R   0.965290 0.520672 0.517369 0.044078
C56   C     C_R   0.583178 0.468464 0.832089 0.524842
C57   C     C_R   0.852904 0.505939 0.501742 0.249391
C58   C     C_R   0.041989 0.473343 0.490638 -0.080090
C59   C     C_R   0.007092 0.404056 0.452106 0.084691
C60   C     C_R   0.897504 0.384798 0.440271 -0.234293
C61   C     C_R   0.822135 0.434951 0.464631 -0.230969
C62   C     C_R   0.152432 0.492480 0.500462 -0.084819
C63   C     C_R   0.190955 0.377102 0.438184 -0.089904
C64   C     C_R   0.415570 0.475682 0.715510 -0.104919
C65   C     C_R   0.415133 0.469931 0.665099 -0.231037
C66   C     C_R   0.587277 0.545333 0.679850 -0.216898
H1    H     H_    0.349465 0.448198 0.729382 0.143205
H2    H     H_    0.740913 0.390263 0.992657 0.159200
H3    H     H_    0.653172 0.584108 0.755142 0.144461
H4    H     H_    0.425580 0.173375 0.475242 0.214128
H5    H     H_    0.237882 0.774605 0.474397 0.192547
H6    H     H_    0.609554 0.760931 0.454773 0.192533
H7    H     H_    0.869225 0.329994 0.412205 0.196817
H8    H     H_    0.184665 0.546920 0.527566 0.141140
H9    H     H_    0.747598 0.634693 0.589094 0.137944
H10   H     H_    0.280455 0.702231 0.857452 0.186328
H11   H     H_    0.080781 0.585561 0.577691 0.146300
H12   H     H_    0.943313 0.650715 0.623104 0.166989
H13   H     H_    0.741525 0.411971 0.455410 0.210147
H14   H     H_    0.253291 0.685701 0.098723 0.179216
H15   H     H_    0.280726 0.717742 0.943245 0.142198
N1    N     N_R   0.502102 0.523246 0.799795 -0.359905
N2    N     N_R   0.500114 0.559782 0.204295 -0.347505
N3    N     N_R   0.222180 0.444690 0.474320 -0.123666
N4    N     N_R   0.776980 0.554780 0.525420 -0.131521
O1    O     O_R   0.366730 0.627160 0.487740 -0.618987
O2    O     O_2   0.322735 0.643559 0.187556 -0.574258
O3    O     O_2   0.658004 0.406993 0.814214 -0.524323
O4    O     O_2   0.677697 0.477945 0.224393 -0.525050
O5    O     O_R   0.544830 0.662520 0.504140 -0.635991
O6    O     O_R   0.410970 0.482310 0.563040 -0.621283
O7    O     O_R   0.589070 0.517670 0.579450 -0.622037
O8    O     O_R   0.455170 0.337480 0.495860 -0.625420
O9    O     O_R   0.633270 0.372840 0.512260 -0.634087
O10   O     O_R   0.410930 0.482330 0.420550 -0.578731
O11   O     O_R   0.589030 0.517690 0.436960 -0.657297
O12   O     O_2   0.345422 0.639254 0.782643 -0.571197
Zn1   Zn    Zn3+2 0.381080 0.476390 0.489050 0.957131
Zn2   Zn    Zn3+2 0.618920 0.523610 0.510950 0.926263
H16   H     H_    0.654155 0.573278 0.666748 0.155411
O13   O     O_3   0.750421 0.355883 0.902685 -0.595473
C67   C     C_3   0.723108 0.256462 0.904659 0.112491
H17   H     H_    0.639294 0.248587 0.882274 0.144760
H18   H     H_    0.726945 0.234329 0.943674 0.119955
C68   C     C_3   0.805142 0.185581 0.883396 -0.283508
H19   H     H_    0.802458 0.207065 0.844486 0.252727
H20   H     H_    0.889148 0.192411 0.905369 0.222676
C69   C     C_3   0.779709 0.076679 0.884460 -0.974770
H21   H     H_    0.783761 0.053009 0.923143 0.266951
H22   H     H_    0.840734 0.027277 0.868817 0.271015
H23   H     H_    0.696774 0.067733 0.861930 0.270552
H24   H     H_    0.771466 0.449063 0.063762 0.160721
O14   O     O_3   0.410510 0.361746 0.331651 -0.644204
C70   C     C_3   0.497177 0.283934 0.338513 0.064771
H25   H     H_    0.563330 0.301572 0.370425 0.126729
H26   H     H_    0.531883 0.272438 0.304523 0.153922
C71   C     C_3   0.453607 0.186529 0.349427 -0.330975
H27   H     H_    0.419488 0.196505 0.383411 0.226425
H28   H     H_    0.387084 0.168909 0.317943 0.234824
C72   C     C_3   0.543297 0.099085 0.356669 -0.930762
H29   H     H_    0.572928 0.083637 0.321796 0.265020
H30   H     H_    0.510215 0.030764 0.367165 0.269068
H31   H     H_    0.613150 0.116681 0.386474 0.276745
O15   O     O_3   0.792261 0.451153 0.157015 -0.598932
C73   C     C_3   0.857883 0.530311 0.173797 0.156842
H32   H     H_    0.899988 0.513434 0.212730 0.196535
H33   H     H_    0.809772 0.605091 0.174568 0.108985
C74   C     C_3   0.944968 0.535576 0.142696 -0.443992
H34   H     H_    0.989342 0.459900 0.140669 0.248838
H35   H     H_    0.904963 0.560193 0.104513 0.217613
C75   C     C_3   0.027304 0.609328 0.164888 -0.853392
H36   H     H_    0.984854 0.685781 0.166946 0.255652
H37   H     H_    0.088301 0.612167 0.141188 0.280438
H38   H     H_    0.071260 0.585012 0.202621 0.278146
H39   H     H_    0.412893 0.412230 0.240270 0.150387
H40   H     H_    0.763207 0.219324 0.501257 0.168946
O16   O     O_3   0.776742 0.863963 0.474450 -0.678454
C76   C     C_3   0.829390 0.824852 0.521681 0.070421
H41   H     H_    0.895086 0.766786 0.515740 0.188207
H42   H     H_    0.772833 0.787914 0.539939 0.148189
C77   C     C_3   0.881765 0.905905 0.556662 -0.402161
H43   H     H_    0.934374 0.947146 0.538351 0.219545
H44   H     H_    0.816698 0.959838 0.566726 0.229534
C78   C     C_3   0.952132 0.861565 0.604516 -0.933880
H45   H     H_    0.900441 0.825787 0.625782 0.260152
H46   H     H_    0.990982 0.922419 0.627628 0.270238
H47   H     H_    0.017963 0.805906 0.596364 0.265423
H48   H     H_    0.805742 0.044255 0.482050 0.174294
O17   O     O_3   0.308417 0.094097 0.504858 -0.666830
C79   C     C_3   0.342006 0.099911 0.557039 0.075039
H49   H     H_    0.358992 0.178699 0.566488 0.174994
H50   H     H_    0.419497 0.052021 0.572236 0.126573
C80   C     C_3   0.250165 0.074195 0.581991 -0.317300
H51   H     H_    0.173213 0.121189 0.565878 0.243497
H52   H     H_    0.236072 0.993990 0.575225 0.225381
C81   C     C_3   0.278897 0.092452 0.637761 -0.962192
H53   H     H_    0.354996 0.045279 0.654717 0.269416
H54   H     H_    0.211178 0.072489 0.654739 0.271290
H55   H     H_    0.290707 0.172809 0.645661 0.265367
O18   O     O_3   0.151677 0.974293 0.472918 -0.647621
C82   C     C_3   0.070808 0.905974 0.461812 0.071243
H56   H     H_    0.992604 0.947566 0.466439 0.176145
H57   H     H_    0.085978 0.843588 0.489008 0.134824
C83   C     C_3   0.052223 0.870393 0.407580 -0.394743
H58   H     H_    0.016241 0.935044 0.382975 0.219255
H59   H     H_    0.130362 0.840819 0.397383 0.230152
C84   C     C_3   0.974323 0.788302 0.398332 -0.880753
H60   H     H_    0.007989 0.722870 0.422777 0.260797
H61   H     H_    0.963684 0.762972 0.359169 0.261650
H62   H     H_    0.892973 0.817446 0.405375 0.298873
H63   H     H_    0.250472 0.342827 0.418030 0.157284
O19   O     O_3   0.047171 0.288485 0.387891 -0.652896
C85   C     C_3   0.106372 0.192154 0.394886 0.083353
H64   H     H_    0.047824 0.136994 0.398182 0.181658
H65   H     H_    0.172161 0.184450 0.429091 0.182573
C86   C     C_3   0.155603 0.165082 0.349572 -0.346313
H66   H     H_    0.088634 0.164089 0.316108 0.242885
H67   H     H_    0.209285 0.223138 0.344230 0.234937
C87   C     C_3   0.222261 0.062605 0.355264 -0.947403
H68   H     H_    0.292498 0.063103 0.387259 0.268274
H69   H     H_    0.254319 0.044294 0.321247 0.266493
H70   H     H_    0.170336 0.003501 0.360803 0.270807
H71   H     H_    0.575076 0.653296 0.367138 0.170967
H72   H     H_    0.574390 0.680015 0.279460 0.143541
H73   H     H_    0.255064 0.686219 0.013039 0.142228
H74   H     H_    0.347985 0.438074 0.640436 0.159278

loop_
_geom_bond_atom_site_label_1
_geom_bond_atom_site_label_2
_ccdc_geom_bond_type
C10   C27   A    
C58   C62   A    
C21   H72   S    
C21   C26   A    
C20   O2    S    
C8    C66   A    
C1    O5    A    
C39   O18   S    
C41   C42   A    
C12   O6    A    
C45   N1    A    
C75   H38   S    
C74   H34   S    
C82   H56   S    
O10   Zn1   S    
O17   C79   S    
C83   H59   S    
C84   H61   S    
C75   H37   S    
C85   H64   S    
O19   C85   S    
C68   H20   S    
C26   N2    S    
C68   H19   S    
N4    Zn2   S    
C31   O13   S    
C28   C29   A    
C34   O11   A    
C71   H28   S    
C5    C6    A    
C9    C22   A    
C56   O3    S    
C15   C16   A    
O11   Zn2   S    
C60   H7    S    
C35   H2    S    
C69   H21   S    
C67   C68   S    
C18   C19   A    
C66   H16   S    
C57   C61   A    
C82   H57   S    
C46   C47   A    
C36   H48   S    
C86   C87   S    
C72   H30   S    
C16   C17   A    
C79   C80   S    
C73   C74   S    
C80   H52   S    
C2    H3    S    
C43   C48   A    
C65   H74   S    
C72   H31   S    
C8    C12   S    
C87   H70   S    
C52   H9    S    
C86   H67   S    
C73   H32   S    
C24   O14   S    
C21   C22   A    
C27   C30   A    
C41   C43   A    
C38   H5    S    
C7    C56   A    
C78   H47   S    
C19   N2    A    
C4    C28   A    
C44   C46   A    
C70   H25   S    
C84   H62   S    
C85   H65   S    
C68   C69   S    
C7    C31   A    
O13   C67   S    
C51   C63   A    
C34   O10   A    
C78   H46   S    
C10   C14   A    
C77   C78   S    
C84   H60   S    
C14   H73   S    
C78   H45   S    
C4    C7    A    
C58   C59   A    
C3    C64   A    
C5    C45   A    
C10   C13   A    
C23   O8    A    
C32   C33   A    
C60   C61   A    
C37   C48   A    
C81   H53   S    
C43   C44   A    
C64   H1    S    
C22   H71   S    
C19   O4    S    
C8    C65   A    
C33   O15   S    
C37   C49   A    
C63   H63   S    
C15   H14   S    
C45   O12   S    
C16   C20   A    
C3    N1    S    
C14   C15   A    
C17   C18   A    
C24   C25   A    
C80   C81   S    
C67   H18   S    
C76   H42   S    
C56   N1    A    
C42   C50   A    
C46   O16   S    
C86   H66   S    
C6    C30   A    
C49   H40   S    
C52   N4    A    
C11   C32   A    
C55   C57   A    
C9    C34   S    
C31   C35   A    
C71   C72   S    
C51   C59   A    
C75   H36   S    
C74   C75   S    
O5    Zn2   S    
C39   C40   A    
C82   C83   S    
C52   C53   A    
O14   C70   S    
C1    C50   S    
C85   C86   S    
C1    O1    A    
C62   N3    A    
C54   C55   A    
C83   H58   S    
C32   H24   S    
C51   O19   S    
C79   H49   S    
C6    H10   S    
C12   O7    A    
C81   H55   S    
C48   H4    S    
C4    C5    A    
C2    C66   A    
C76   C77   S    
C74   H35   S    
C20   N2    A    
C70   H26   S    
C23   O9    A    
C9    C24   A    
C53   C54   A    
C38   C50   A    
O16   C76   S    
C29   C35   A    
C69   H23   S    
C13   C17   A    
C63   N3    A    
N3    Zn1   S    
O18   C82   S    
C54   H11   S    
C30   H15   S    
C77   H44   S    
C53   H12   S    
C25   C26   A    
C23   C37   S    
C71   H27   S    
C64   C65   A    
C11   C13   A    
C38   C39   A    
O9    Zn2   S    
C61   H13   S    
C81   H54   S    
C69   H22   S    
C40   O17   S    
C2    C3    A    
C79   H50   S    
C42   C47   A    
C83   C84   S    
O6    Zn1   S    
C67   H17   S    
C25   H39   S    
C18   C33   A    
C47   H6    S    
C70   C71   S    
C36   C44   A    
C76   H41   S    
O1    Zn1   S    
C87   H68   S    
C59   C60   A    
C11   C29   A    
C55   C58   A    
C27   C28   A    
C73   H33   S    
C72   H29   S    
C62   H8    S    
C40   C41   A    
C80   H51   S    
C77   H43   S    
O8    Zn1   S    
C57   N4    A    
C36   C49   A    
O7    Zn2   S    
O15   C73   S    
C87   H69   S    
