data_mof_unit_67033.cif
_audit_creation_date              2013-03-05T15:58:15-0500
_audit_creation_method            fapswitch 2.2
_symmetry_space_group_name_H-M    P1
_symmetry_Int_Tables_number       1
_space_group_crystal_system       triclinic
_cell_length_a                    8.192081
_cell_length_b                    12.829487
_cell_length_c                    14.22435
_cell_angle_alpha                 93.629471
_cell_angle_beta                  90.522924
_cell_angle_gamma                 98.650006
_cell_volume                      1474.74945746

loop_
_atom_site_label
_atom_site_type_symbol
_atom_site_description
_atom_site_fract_x
_atom_site_fract_y
_atom_site_fract_z
_atom_type_partial_charge
P1    P     P_3+3 0.054400 0.427280 0.286870 0.522252
O1    O     O_2   0.887370 0.460630 0.272300 -0.375761
O2    O     O_3   0.129410 0.451380 0.388510 -0.400675
O3    O     O_3   0.670210 0.653170 0.329170 -0.342048
O4    O     O_2   0.777734 0.583629 0.164052 -0.369764
O5    O     O_3   0.013594 0.289870 0.262004 -0.553555
O6    O     O_3   0.729584 0.779306 0.174995 -0.511207
H1    H     H_    0.745935 0.873141 0.298782 0.140850
C1    C     C_3   0.650400 0.948619 0.184181 -1.077044
H2    H     H_    0.603697 0.007301 0.233526 0.255960
H3    H     H_    0.773334 0.980830 0.157403 0.276884
P2    P     P_3+3 0.668300 0.742890 0.573060 0.451329
P3    P     P_3+3 0.131263 0.841200 0.375687 0.452259
O7    O     O_2   0.845380 0.761330 0.544970 -0.378525
O8    O     O_3   0.088930 0.704860 0.376040 -0.377034
O9    O     O_2   0.002949 0.885816 0.439164 -0.386172
O10   O     O_3   0.681806 0.765604 0.695837 -0.573959
O11   O     O_3   0.082585 0.873820 0.262325 -0.488204
C2    C     C_3   0.195889 0.837671 0.199336 0.397256
H4    H     H_    0.227989 0.759723 0.215906 0.047650
H5    H     H_    0.309210 0.896679 0.201410 0.100997
C3    C     C_3   0.122313 0.825336 0.099915 -0.880329
H6    H     H_    0.020392 0.757509 0.093767 0.286101
H7    H     H_    0.073373 0.898072 0.082590 0.257610
C4    C     C_3   0.223329 0.760036 0.656095 0.397831
H8    H     H_    0.341194 0.736940 0.631976 0.090544
H9    H     H_    0.128171 0.740170 0.599306 0.142839
C5    C     C_3   0.245952 0.878682 0.678620 -0.930126
H10   H     H_    0.344139 0.901033 0.733270 0.254923
H11   H     H_    0.281784 0.921162 0.614878 0.236859
H12   H     H_    0.128846 0.902447 0.704954 0.280604
Ba1   Ba    Ba6+2 0.855630 0.555280 0.454520 1.589026
C6    C     C_3   0.997898 0.237913 0.346310 0.422914
H13   H     H_    0.878629 0.245878 0.378729 -0.002724
H14   H     H_    0.095045 0.269712 0.398425 0.170791
C7    C     C_3   0.008948 0.121732 0.325929 -0.883816
H15   H     H_    0.903496 0.084413 0.280551 0.234777
H16   H     H_    0.004654 0.081674 0.392825 0.241613
H17   H     H_    0.126333 0.112453 0.290070 0.297040
C8    C     C_3   0.715646 0.674817 0.737057 0.439023
H18   H     H_    0.832240 0.652362 0.709719 0.093064
H19   H     H_    0.613310 0.608289 0.722952 0.124910
C9    C     C_3   0.733671 0.698786 0.843158 -0.998316
H20   H     H_    0.841048 0.761415 0.859600 0.274299
H21   H     H_    0.752832 0.627020 0.878603 0.225468
H22   H     H_    0.620046 0.726108 0.871045 0.259902
P4    P     P_3+3 0.135310 0.572810 0.713130 0.450296
O12   O     O_2   0.302330 0.539400 0.727760 -0.374211
O13   O     O_3   0.060300 0.548700 0.611500 -0.414865
O14   O     O_3   0.519500 0.346920 0.670840 -0.386648
O15   O     O_3   0.175954 0.709727 0.738101 -0.569769
P5    P     P_3+3 0.060080 0.157421 0.626366 0.438754
O16   O     O_3   0.614310 0.373510 0.452640 -0.343809
O17   O     O_3   0.100780 0.295230 0.623970 -0.393158
O18   O     O_2   0.194972 0.112415 0.568112 -0.389347
O19   O     O_3   0.094511 0.122791 0.741161 -0.521735
Ba2   Ba    Ba6+2 0.334200 0.444810 0.545490 1.583014
P6    P     P_3+3 0.654837 0.652723 0.206841 0.522361
C10   C     C_3   0.662957 0.851355 0.236120 0.523308
H23   H     H_    0.536735 0.821210 0.260304 -0.036335
H24   H     H_    0.563907 0.928470 0.122927 0.270209
O20   O     O_3   0.575400 0.626570 0.547370 -0.397069
C11   C     C_3   0.592989 0.268951 0.246084 0.748928
H25   H     H_    0.712147 0.298285 0.280722 0.037947
C12   C     C_3   0.632105 0.212165 0.152506 -0.823848
H26   H     H_    0.703368 0.269788 0.108533 0.150173
H27   H     H_    0.714881 0.154410 0.166168 0.172499
P7    P     P_3+3 0.526926 0.239221 0.422934 0.457052
O21   O     O_2   0.344320 0.238700 0.455090 -0.351206
O22   O     O_3   0.495349 0.199953 0.302432 -0.603056
H28   H     H_    0.218682 0.809996 0.048610 0.201101
C13   C     C_3   0.041571 0.198551 0.804835 0.480134
H29   H     H_    0.123327 0.275610 0.802307 0.149832
H30   H     H_    0.912471 0.209147 0.789227 0.009480
C14   C     C_3   0.049408 0.162137 0.904225 -0.932443
H31   H     H_    0.178237 0.153987 0.923068 0.312928
H32   H     H_    0.005791 0.220714 0.955114 0.226750
H33   H     H_    0.970312 0.084452 0.908904 0.244366
P8    P     P_3+3 0.531010 0.346660 0.792960 0.483123
C15   C     C_3   0.538610 0.146236 0.763922 0.496393
H34   H     H_    0.651649 0.182700 0.728807 0.009742
O23   O     O_2   0.399608 0.410254 0.834227 -0.381887
O24   O     O_3   0.466332 0.217412 0.823832 -0.468068
H35   H     H_    0.447266 0.111054 0.708256 0.127237
H36   H     H_    0.678206 0.093112 0.876621 0.267379
C16   C     C_3   0.585541 0.058912 0.821418 -0.996755
H37   H     H_    0.638909 0.000366 0.774924 0.234989
H38   H     H_    0.475056 0.018652 0.856337 0.278920
C17   C     C_R   0.982675 0.447747 0.060375 -0.117045
C18   C     C_R   0.176384 0.505329 0.196495 0.326463
C19   C     C_R   0.324294 0.566717 0.227803 -0.352066
C20   C     C_R   0.442884 0.605955 0.163898 0.252186
C21   C     C_R   0.402529 0.603188 0.068319 -0.318172
C22   C     C_R   0.245844 0.554994 0.035033 0.081967
C23   C     C_R   0.133590 0.501267 0.098013 0.001209
H39   H     H_    0.354288 0.575158 0.302392 0.175374
C24   C     C_R   0.051568 0.504184 0.901501 -0.004914
C25   C     C_R   0.939343 0.450641 0.964488 0.045248
C26   C     C_R   0.006562 0.501693 0.803610 0.253388
C27   C     C_R   0.852572 0.447820 0.772967 -0.535895
C28   C     C_R   0.738747 0.402722 0.836533 0.247865
C29   C     C_R   0.782127 0.402677 0.931450 -0.301394
C30   C     C_R   0.203453 0.557531 0.938934 -0.119347
H40   H     H_    0.493922 0.637564 0.020083 0.154114
H41   H     H_    0.691981 0.366639 0.979301 0.183704
H42   H     H_    0.817220 0.446050 0.699338 0.175902
H43   H     H_    0.895801 0.405780 0.105807 0.153238
H44   H     H_    0.290750 0.601529 0.894200 0.164136
C31   C     C_R   0.761425 0.175072 0.538940 -0.494544
C32   C     C_R   0.430386 0.813129 0.460139 -0.509124
C33   C     C_R   0.404608 0.992844 0.429559 -0.211185
C34   C     C_R   0.341606 0.886060 0.422501 0.173157
C35   C     C_R   0.576650 0.846233 0.512413 0.282241
C36   C     C_R   0.640677 0.956649 0.522568 -0.056085
C37   C     C_R   0.553384 0.030217 0.479164 -0.041667
C38   C     C_R   0.615489 0.139748 0.488119 0.224551
C39   C     C_R   0.852673 0.104433 0.577112 0.208916
C40   C     C_R   0.790135 0.996261 0.572459 -0.198105
H45   H     H_    0.332126 0.045851 0.398698 0.196824
H46   H     H_    0.861481 0.944628 0.606235 0.187556
H47   H     H_    0.809708 0.258582 0.544029 0.164274
H48   H     H_    0.379492 0.730089 0.454001 0.169641
N1    N     N_R   0.509023 0.357750 0.229676 0.205760
O25   O     O_R   0.378554 0.344872 0.175035 -0.450494
O26   O     O_R   0.536729 0.439372 0.289155 -0.380916
C41   C     C_2   0.481064 0.159144 0.097765 1.248418
O27   O     O_2   0.460128 0.181067 0.016699 -0.629463
O28   O     O_R   0.363796 0.086954 0.139632 -0.792279
H49   H     H_    0.265913 0.060064 0.096095 0.307538

loop_
_geom_bond_atom_site_label_1
_geom_bond_atom_site_label_2
_geom_bond_distance
_ccdc_geom_bond_type
C11   C12   1.536385 S    
C21   C22   1.402550 A    
C3    H28   1.110685 S    
C33   C34   1.386460 A    
C15   H35   1.110394 S    
O28   H49   1.013013 S    
C36   C37   1.432518 A    
C31   C39   1.390522 A    
N1    O25   1.299702 A    
P4    O13   1.559837 S    
H36   C16   1.109351 S    
C4    C5    1.518650 S    
C28   C29   1.393041 A    
O4    P6    1.543100 D    
C1    H24   1.110472 S    
O1    Ba1   2.822979 S    
C5    H10   1.106569 S    
C2    H5    1.105015 S    
P1    O1    1.510127 D    
P3    C34   1.837415 S    
C15   O24   1.408532 S    
H1    C10   1.111267 S    
C16   H38   1.110294 S    
N1    O26   1.294877 A    
C12   H27   1.101628 S    
C37   C38   1.418048 A    
C6    C7    1.516670 S    
P4    C26   1.866894 S    
C29   H41   1.081070 S    
C33   H45   1.078073 S    
O11   C2    1.404081 S    
C14   H32   1.110429 S    
O16   P7    1.786218 S    
C20   C21   1.393223 A    
C15   C16   1.520408 S    
C31   C38   1.391767 A    
C19   H39   1.081879 S    
C35   C36   1.432449 A    
C8    C9    1.522382 S    
P4    O12   1.510504 D    
P7    O21   1.567457 D    
O19   C13   1.405566 S    
P2    O10   1.752004 S    
C30   H44   1.080417 S    
C1    H2    1.109263 S    
O6    P6    1.736837 S    
P5    O18   1.545708 D    
P5    C39   1.846741 S    
C8    H19   1.109773 S    
C10   H23   1.113622 S    
O14   P8    1.739021 S    
C22   C23   1.423341 A    
C14   H33   1.110200 S    
Ba1   Ba2   4.567735 S    
C13   C14   1.520556 S    
C21   H40   1.083604 S    
O6    C10   1.402484 S    
C24   C26   1.434315 A    
P5    O17   1.751777 S    
C24   C25   1.422252 A    
C40   H46   1.078372 S    
C5    H12   1.110713 S    
C24   C30   1.409162 A    
P1    O5    1.756786 S    
O12   Ba2   2.823490 S    
C2    C3    1.521748 S    
C13   H30   1.108636 S    
C19   C20   1.396595 A    
O16   Ba2   2.894893 S    
C16   H37   1.110796 S    
C13   H29   1.110419 S    
P4    O15   1.750858 S    
Ba2   O20   2.819200 S    
C4    H8    1.103199 S    
C25   C29   1.404355 A    
P1    Ba1   3.378532 S    
C1    C10   1.505818 S    
O10   C8    1.399245 S    
C17   C23   1.404484 A    
C14   H31   1.108234 S    
C4    O15   1.398613 S    
P4    Ba2   3.378988 S    
P2    O20   1.588716 S    
C26   C27   1.395937 A    
C11   O22   1.397980 S    
C17   H43   1.072933 S    
C6    H13   1.100022 S    
O3    Ba1   2.805632 S    
C9    H21   1.107874 S    
C32   C35   1.399870 A    
C36   C40   1.418560 A    
P7    C38   1.852234 S    
P3    O11   1.748787 S    
C8    H18   1.105385 S    
P2    O7    1.496440 D    
C22   C30   1.410869 A    
C1    H3    1.109871 S    
C9    H20   1.110814 S    
C3    H7    1.110004 S    
C7    H16   1.108104 S    
P1    C18   1.881294 S    
O2    Ba2   2.793857 S    
Ba1   O16   2.819859 S    
P2    C35   1.870335 S    
C7    H15   1.103830 S    
C41   O28   1.395689 S    
O14   Ba2   2.805039 S    
C7    H17   1.111200 S    
O7    Ba1   2.879008 S    
C15   H34   1.110664 S    
O8    Ba1   2.790799 S    
P8    O23   1.544037 D    
C11   N1    1.446357 S    
C4    H9    1.108088 S    
C27   H42   1.082011 S    
O5    C6    1.406120 S    
C17   C25   1.410411 A    
Ba2   O21   2.879236 S    
C12   C41   1.504072 S    
C2    H4    1.110220 S    
P3    O8    1.731645 S    
Ba1   O20   2.895671 S    
C39   C40   1.402388 A    
C32   H48   1.081851 S    
P8    O24   1.747948 S    
C31   H47   1.082472 S    
C18   C19   1.394812 A    
O13   Ba2   2.910741 S    
C41   O27   1.220709 D    
C5    H11   1.106601 S    
C27   C28   1.393245 A    
C6    H14   1.096633 S    
O2    Ba1   2.909983 S    
C9    H22   1.110828 S    
C32   C34   1.397162 A    
Ba1   O13   2.793291 S    
C11   H25   1.092935 S    
P7    O22   1.761288 S    
C12   H26   1.101805 S    
P3    O9    1.542953 D    
O3    P6    1.743047 S    
C3    H6    1.110178 S    
P8    C28   1.831320 S    
C33   C37   1.406734 A    
P1    O2    1.559956 S    
P6    C20   1.835447 S    
C18   C23   1.436756 A    
P2    Ba1   3.411161 S    
P5    O19   1.750544 S    
O17   Ba2   2.791374 S    
