data_mof_unit_47554.cif
_audit_creation_date              2012-12-10T21:00:45-0500
_audit_creation_method            fapswitch 2.2
_symmetry_space_group_name_H-M    P1
_symmetry_Int_Tables_number       1
_space_group_crystal_system       triclinic
_cell_length_a                    18.104003
_cell_length_b                    18.165137
_cell_length_c                    18.389369
_cell_angle_alpha                 120.037318
_cell_angle_beta                  89.817948
_cell_angle_gamma                 119.971292
_cell_volume                      4282.4598795

loop_
_atom_site_label
_atom_site_type_symbol
_atom_type_description
_atom_site_fract_x
_atom_site_fract_y
_atom_site_fract_z
_atom_type_partial_charge
C1    C     C_R   0.109935 0.220212 0.610011 0.816395
C2    C     C_R   0.889821 0.779836 0.390032 0.815205
C3    C     C_3   0.963637 0.412495 0.417654 0.033021
C4    C     C_3   0.038447 0.589140 0.582141 0.043278
C5    C     C_3   0.412315 0.963867 0.988119 -0.223267
C6    C     C_3   0.587819 0.036339 0.013478 -0.206929
C7    C     C_3   0.477584 0.035972 0.962175 -0.142368
C8    C     C_3   0.522451 0.964153 0.039331 -0.136508
C9    C     C_3   0.550296 0.102940 0.052905 -0.051112
C10   C     C_3   0.449739 0.897178 0.948494 -0.055464
C11   C     C_3   0.486023 0.031864 0.078468 0.024129
C12   C     C_3   0.514093 0.968360 0.923044 0.021345
C13   C     C_3   0.442781 0.520071 0.478961 -0.237959
C14   C     C_3   0.555968 0.480548 0.520031 -0.239185
C15   C     C_3   0.446302 0.426258 0.413573 -0.191232
C16   C     C_3   0.552410 0.574348 0.585223 -0.193475
C17   C     C_3   0.550143 0.499933 0.448465 0.009317
C18   C     C_3   0.448812 0.500705 0.550547 0.003895
C19   C     C_3   0.546853 0.592667 0.512795 0.152513
C20   C     C_3   0.451909 0.407907 0.486025 0.155993
C21   C     C_R   0.068248 0.174619 0.837947 -0.129599
C22   C     C_R   0.914743 0.833798 0.164957 -0.138392
C23   C     C_R   0.392708 0.781074 0.888779 0.797342
C24   C     C_R   0.607299 0.218965 0.111686 0.796121
C25   C     C_R   0.072697 0.133350 0.751680 -0.069756
C26   C     C_R   0.918287 0.876389 0.253668 -0.087690
C27   C     C_R   0.003717 0.097402 0.682338 0.137317
C28   C     C_R   0.987726 0.902634 0.315579 0.140213
C29   C     C_R   0.929547 0.100685 0.699761 -0.162982
C30   C     C_R   0.054413 0.887878 0.288461 -0.148242
C31   C     C_R   0.924634 0.139977 0.785700 -0.102739
C32   C     C_R   0.051129 0.846283 0.199928 -0.096703
C33   C     C_R   0.993753 0.176385 0.854569 -0.123892
C34   C     C_R   0.981402 0.819187 0.138130 -0.112716
C35   C     C_R   0.953321 0.943212 0.534223 -0.239406
C36   C     C_R   0.046363 0.056905 0.465960 -0.242901
C37   C     C_R   0.946373 0.892236 0.444573 -0.048499
C38   C     C_R   0.053294 0.107893 0.555600 -0.047551
C39   C     C_R   0.992670 0.949775 0.409650 -0.012308
C40   C     C_R   0.005770 0.050431 0.590284 -0.010971
C41   C     C_R   0.623403 0.570529 0.769629 -0.358999
C42   C     C_R   0.360620 0.401036 0.210456 -0.357450
C43   C     C_R   0.572697 0.523126 0.809725 0.072262
C44   C     C_R   0.414883 0.457106 0.177992 0.076113
C45   C     C_R   0.111316 0.501373 0.890153 0.815514
C46   C     C_R   0.888600 0.498565 0.109819 0.812169
C47   C     C_R   0.591014 0.585138 0.902809 0.104047
C48   C     C_R   0.406886 0.402315 0.086987 0.090017
C49   C     C_R   0.663290 0.690936 0.953176 -0.271838
C50   C     C_R   0.342905 0.294140 0.030948 -0.237815
C51   C     C_R   0.716892 0.737390 0.913511 0.154363
C52   C     C_R   0.283861 0.238261 0.061970 0.143875
C53   C     C_R   0.694318 0.676717 0.819581 0.080137
C54   C     C_R   0.295835 0.292930 0.154536 0.049322
C55   C     C_R   0.591147 0.541161 0.008746 -0.239410
C56   C     C_R   0.409146 0.456795 0.989175 -0.233856
C57   C     C_R   0.550117 0.498601 0.055037 -0.001333
C58   C     C_R   0.450120 0.499671 0.943132 0.000797
C59   C     C_R   0.457659 0.454747 0.044777 0.074438
C60   C     C_R   0.542242 0.541411 0.951660 0.074348
C61   C     C_R   0.164020 0.840574 0.021997 0.027683
C62   C     C_R   0.836205 0.160363 0.981082 0.026403
C63   C     C_R   0.145279 0.756717 0.025628 -0.013805
C64   C     C_R   0.854123 0.243843 0.977099 -0.008042
C65   C     C_R   0.063010 0.657563 0.966878 0.044053
C66   C     C_R   0.937298 0.342725 0.033893 0.041570
C67   C     C_R   0.392335 0.500490 0.607878 0.763942
C68   C     C_R   0.607492 0.499926 0.391970 0.763474
C69   C     C_R   0.005635 0.641062 0.901086 -0.121674
C70   C     C_R   0.996425 0.359449 0.098400 -0.132531
C71   C     C_R   0.028176 0.721950 0.893887 -0.177536
C72   C     C_R   0.975030 0.279010 0.105883 -0.168749
C73   C     C_R   0.106135 0.821048 0.954434 -0.256720
C74   C     C_R   0.896156 0.180122 0.047161 -0.248211
C75   C     C_R   0.974706 0.568422 0.031696 -0.264944
C76   C     C_R   0.024837 0.431188 0.968044 -0.260537
C77   C     C_R   0.944267 0.496330 0.052673 -0.054163
C78   C     C_R   0.055287 0.503269 0.947048 -0.054754
C79   C     C_R   0.969108 0.425903 0.019746 -0.023203
C80   C     C_R   0.030369 0.573608 0.979985 -0.024207
C81   C     C_R   0.394129 0.499282 0.887791 0.831144
C82   C     C_R   0.605933 0.500147 0.111604 0.837082
C83   C     C_R   0.110524 0.501810 0.608165 0.871553
C84   C     C_R   0.889753 0.498413 0.391820 0.872276
C85   C     C_3   0.066274 0.497747 0.466481 0.019735
C86   C     C_3   0.935719 0.504037 0.533476 0.006158
C87   C     C_3   0.049933 0.583124 0.496467 -0.016477
C88   C     C_3   0.951598 0.418583 0.503341 -0.023082
C89   C     C_3   0.947675 0.498186 0.447914 -0.103584
C90   C     C_3   0.053830 0.503162 0.552011 -0.095634
H1    H     H_    0.990407 0.207011 0.921148 0.146986
H2    H     H_    0.978926 0.786576 0.069540 0.139265
H3    H     H_    0.122317 0.205589 0.892278 0.125779
H4    H     H_    0.860339 0.812335 0.117305 0.128377
H5    H     H_    0.130001 0.130499 0.739024 0.126158
H6    H     H_    0.866829 0.888289 0.274087 0.127243
H7    H     H_    0.875381 0.072071 0.646679 0.137128
H8    H     H_    0.108858 0.908884 0.335850 0.134295
H9    H     H_    0.867282 0.142154 0.798647 0.160526
H10   H     H_    0.102616 0.834964 0.179492 0.146563
H11   H     H_    0.916283 0.899494 0.560933 0.175951
H12   H     H_    0.082842 0.100529 0.439011 0.174054
H13   H     H_    0.608191 0.523444 0.698218 0.124864
H14   H     H_    0.367705 0.442775 0.280473 0.125956
H15   H     H_    0.679346 0.736870 0.024812 0.145309
H16   H     H_    0.338886 0.254907 0.961897 0.150684
H17   H     H_    0.661733 0.572461 0.015167 0.164573
H18   H     H_    0.338394 0.424680 0.982417 0.162726
H19   H     H_    0.119728 0.883986 0.950784 0.134275
H20   H     H_    0.884012 0.117302 0.050440 0.129329
H21   H     H_    0.942501 0.565649 0.856245 0.139378
H22   H     H_    0.060271 0.434539 0.141684 0.140209
H23   H     H_    0.983380 0.708980 0.843408 0.145445
H24   H     H_    0.021658 0.291854 0.154650 0.152136
H25   H     H_    0.956068 0.622635 0.056658 0.177752
H26   H     H_    0.043957 0.377491 0.943457 0.179317
H27   H     H_    0.459946 0.066408 0.930956 0.167523
H28   H     H_    0.540151 0.933872 0.070683 0.169732
H29   H     H_    0.340096 0.933309 0.977976 0.147181
H30   H     H_    0.660411 0.067847 0.025440 0.147863
H31   H     H_    0.404304 0.364420 0.342629 0.151035
H32   H     H_    0.592321 0.636524 0.656336 0.164079
H33   H     H_    0.396022 0.536668 0.463372 0.131207
H34   H     H_    0.602801 0.464013 0.535575 0.127445
O1    O     O_3   0.251620 0.500000 0.748430 -0.485048
O2    O     O_3   0.748380 0.500000 0.251570 -0.487611
O3    O     O_R   0.134680 0.560740 0.864590 -0.632559
O4    O     O_R   0.865320 0.439260 0.135410 -0.632005
O5    O     O_R   0.306670 0.439270 0.571150 -0.653536
O6    O     O_R   0.693330 0.560730 0.428850 -0.652075
O7    O     O_R   0.135450 0.268370 0.694460 -0.642283
O8    O     O_R   0.864550 0.731630 0.305540 -0.639129
O9    O     O_R   0.429670 0.731610 0.863510 -0.653673
O10   O     O_R   0.570330 0.268390 0.136490 -0.654506
O11   O     O_R   0.134680 0.268390 0.572240 -0.638401
O12   O     O_R   0.865320 0.731610 0.427760 -0.634651
O13   O     O_R   0.306670 0.731630 0.863510 -0.637685
O14   O     O_R   0.693330 0.268370 0.136490 -0.630482
O15   O     O_R   0.135450 0.439270 0.865360 -0.642765
O16   O     O_R   0.864550 0.560730 0.134640 -0.643395
O17   O     O_R   0.429670 0.560710 0.692610 -0.648311
O18   O     O_R   0.570330 0.439290 0.307390 -0.649183
O19   O     O_R   0.308540 0.439240 0.865360 -0.653128
O20   O     O_R   0.691460 0.560760 0.134640 -0.652024
O21   O     O_R   0.133580 0.439310 0.571150 -0.636970
O22   O     O_R   0.866420 0.560690 0.428850 -0.622988
O23   O     O_R   0.430770 0.560690 0.864590 -0.647880
O24   O     O_R   0.569230 0.439310 0.135410 -0.646838
O25   O     O_R   0.133580 0.560760 0.692610 -0.645757
O26   O     O_R   0.866420 0.439240 0.307390 -0.661016
Zn1   Zn    Zn3+2 0.207400 0.586780 0.791530 0.989966
Zn2   Zn    Zn3+2 0.792600 0.413220 0.208470 0.993034
Zn3   Zn    Zn3+2 0.208510 0.413230 0.792630 0.988652
Zn4   Zn    Zn3+2 0.791490 0.586770 0.207370 0.991470
Zn5   Zn    Zn3+2 0.383150 0.586740 0.791530 0.967449
Zn6   Zn    Zn3+2 0.616850 0.413260 0.208470 0.967894
Zn7   Zn    Zn3+2 0.207400 0.413250 0.618010 0.973612
Zn8   Zn    Zn3+2 0.792600 0.586750 0.381990 0.983981
C91   C     C_2   0.105152 0.674695 0.491833 0.355954
H35   H     H_    0.178123 0.722859 0.519979 0.057854
O27   O     O_2   0.069070 0.694718 0.455532 -0.573336
C92   C     C_2   0.894651 0.325167 0.505163 0.349953
H36   H     H_    0.823502 0.270096 0.465988 0.073051
O28   O     O_2   0.927394 0.310498 0.550139 -0.580037
C93   C     C_2   0.742670 0.718752 0.769907 0.299991
H37   H     H_    0.739577 0.666132 0.703792 0.080409
O29   O     O_2   0.782167 0.810377 0.799104 -0.580666
C94   C     C_2   0.242015 0.242644 0.197103 0.326254
H38   H     H_    0.243803 0.290582 0.264210 0.073137
O30   O     O_2   0.197988 0.148907 0.160454 -0.606657
C95   C     C_2   0.503927 0.408769 0.751412 0.356322
H39   H     H_    0.485679 0.368199 0.679743 0.051319
O31   O     O_2   0.468939 0.357820 0.781502 -0.583853
C96   C     C_2   0.477068 0.572037 0.241843 0.360384
H40   H     H_    0.484961 0.607942 0.312076 0.053013
O32   O     O_2   0.518741 0.628276 0.217792 -0.583919
C97   C     C_3   0.144322 0.497462 0.433893 -0.416504
C98   C     C_3   0.145221 0.500162 0.351832 -0.328601
C99   C     C_3   0.208904 0.475108 0.308394 -0.917896
H41   H     H_    0.278540 0.530905 0.356778 0.261850
H42   H     H_    0.185100 0.394770 0.283944 0.249417
H43   H     H_    0.210192 0.480598 0.250848 0.257575
H44   H     H_    0.076476 0.443283 0.302290 0.226247
H45   H     H_    0.167851 0.578551 0.371285 0.227346
H46   H     H_    0.209148 0.566467 0.488542 0.175905
H47   H     H_    0.138473 0.427065 0.418683 0.226081
C100  C     C_3   0.860881 0.509723 0.569805 -0.410239
C101  C     C_3   0.852558 0.492469 0.643933 -0.327094
C102  C     C_3   0.797119 0.527011 0.695416 -0.918388
H48   H     H_    0.832269 0.612067 0.730269 0.248529
H49   H     H_    0.729184 0.485361 0.649577 0.260414
H50   H     H_    0.788948 0.509534 0.745931 0.258897
H51   H     H_    0.818627 0.408649 0.614512 0.230455
H52   H     H_    0.920124 0.536010 0.691152 0.226029
H53   H     H_    0.876028 0.587288 0.595118 0.228619
H54   H     H_    0.795414 0.449659 0.514466 0.181874
C103  C     C_3   0.799569 0.848993 0.973888 -0.390870
C104  C     C_3   0.887381 0.855153 0.971624 -0.357283
C105  C     C_3   0.970148 0.965198 0.040190 -0.811833
H55   H     H_    0.973839 0.020224 0.027144 0.257370
H56   H     H_    0.967426 0.990407 0.108417 0.264390
H57   H     H_    0.032032 0.966746 0.035880 0.275264
H58   H     H_    0.885747 0.801465 0.985289 0.208384
H59   H     H_    0.894817 0.830988 0.905059 0.248253
H60   H     H_    0.797611 0.897845 0.955657 0.232981
H61   H     H_    0.799532 0.883379 0.043759 0.179066
C106  C     C_3   0.205436 0.123791 0.997510 -0.373916
C107  C     C_3   0.189380 0.076711 0.897533 -0.417566
C108  C     C_3   0.096103 0.974042 0.840395 -0.859010
H62   H     H_    0.086536 0.917669 0.854208 0.250221
H63   H     H_    0.042531 0.987415 0.853888 0.279627
H64   H     H_    0.088799 0.939938 0.768912 0.260409
H65   H     H_    0.193113 0.130053 0.882428 0.225362
H66   H     H_    0.242099 0.063475 0.878355 0.231073
H67   H     H_    0.216406 0.076657 0.011600 0.217554
H68   H     H_    0.142868 0.116188 0.010745 0.229294
C109  C     C_2   0.237451 0.950809 0.091260 0.447734
H69   H     H_    0.264313 0.007271 0.075267 0.041658
O33   O     O_2   0.264931 0.981204 0.167874 -0.559843
C110  C     C_2   0.762056 0.049969 0.912956 0.431885
H70   H     H_    0.737478 0.993829 0.929230 0.034217
O34   O     O_2   0.731484 0.019004 0.836821 -0.561119
C111  C     C_2   0.210055 0.769925 0.088298 0.424402
H71   H     H_    0.185809 0.722731 0.113920 0.051397
O35   O     O_2   0.291424 0.829962 0.108506 -0.513624
C112  C     C_2   0.787689 0.230571 0.916119 0.425015
H72   H     H_    0.810521 0.276849 0.889619 0.049555
O36   O     O_2   0.706629 0.171579 0.898364 -0.514359
C113  C     C_3   0.915059 0.308989 0.325033 -0.400637
C114  C     C_3   0.950488 0.243719 0.313019 -0.328573
C115  C     C_3   0.880843 0.128677 0.239965 -0.890529
H73   H     H_    0.820282 0.097180 0.259462 0.267500
H74   H     H_    0.860133 0.117592 0.176662 0.258441
H75   H     H_    0.910311 0.084626 0.229442 0.251290
H76   H     H_    0.012576 0.271058 0.294611 0.219405
H77   H     H_    0.967773 0.251894 0.375712 0.251984
H78   H     H_    0.841835 0.265474 0.316361 0.200015
H79   H     H_    0.923175 0.323913 0.272990 0.223246
C116  C     C_3   0.080450 0.689265 0.676276 -0.396973
C117  C     C_3   0.183069 0.763472 0.701598 -0.323624
C118  C     C_3   0.228400 0.840227 0.802059 -0.855387
H80   H     H_    0.201811 0.888204 0.830428 0.254749
H81   H     H_    0.216246 0.798015 0.833099 0.290085
H82   H     H_    0.302188 0.892303 0.817557 0.254475
H83   H     H_    0.213706 0.719486 0.675229 0.213093
H84   H     H_    0.197562 0.808408 0.672880 0.214651
H85   H     H_    0.048586 0.729413 0.680480 0.197031
H86   H     H_    0.065129 0.667529 0.723734 0.229712
C119  C     C_2   0.470967 0.070329 0.166493 0.456359
H87   H     H_    0.446883 0.119456 0.188560 0.061670
O37   O     O_2   0.486109 0.047314 0.213832 -0.539701
C120  C     C_2   0.528511 0.929606 0.834729 0.463423
H88   H     H_    0.552209 0.880092 0.812252 0.065620
O38   O     O_2   0.513076 0.952621 0.787519 -0.542952
C121  C     C_3   0.603715 0.698482 0.527405 -0.449125
C122  C     C_3   0.585753 0.774787 0.597544 -0.327749
C123  C     C_3   0.644284 0.881000 0.613329 -0.744379
H89   H     H_    0.716973 0.914944 0.638650 0.264021
H90   H     H_    0.630210 0.873910 0.550566 0.240042
H91   H     H_    0.629071 0.934251 0.663441 0.298015
H92   H     H_    0.513488 0.743969 0.575071 0.214739
H93   H     H_    0.600879 0.784413 0.661474 0.246899
H94   H     H_    0.676237 0.730033 0.549416 0.225345
H95   H     H_    0.587342 0.687750 0.463200 0.185625
C124  C     C_3   0.394969 0.302048 0.471292 -0.452407
C125  C     C_3   0.413872 0.226204 0.402106 -0.335112
C126  C     C_3   0.356565 0.120607 0.387611 -0.734510
H96   H     H_    0.371359 0.129012 0.450929 0.238077
H97   H     H_    0.283591 0.085579 0.362217 0.265078
H98   H     H_    0.372321 0.067609 0.338068 0.299577
H99   H     H_    0.398306 0.215424 0.337679 0.243791
H100  H     H_    0.486401 0.258103 0.424920 0.216534
H101  H     H_    0.410577 0.312872 0.535623 0.183422
H102  H     H_    0.322428 0.270011 0.448386 0.221697

loop_
_geom_bond_atom_site_label_1
_geom_bond_atom_site_label_2
_ccdc_geom_bond_type
C38   C40   A    
C95   H39   S    
C63   C65   A    
C85   C87   S    
C7    C9    S    
C107  H65   S    
O11   Zn7   S    
C122  H93   S    
C100  H54   S    
C3    C85   S    
C52   C106  S    
C41   C43   A    
C7    H27   S    
C103  H60   S    
C116  C117  S    
C76   C79   A    
C35   H11   S    
C1    O11   A    
C3    C113  S    
C6    C9    S    
C110  O34   D    
C98   C99   S    
C8    H28   S    
C47   C49   A    
C4    C87   S    
O2    Zn6   S    
C76   H26   S    
C66   C79   S    
C95   O31   D    
C119  H87   S    
C93   H37   S    
C13   C18   S    
C5    H29   S    
C76   C78   A    
C46   O4    A    
C82   O24   A    
C35   C37   A    
C44   C96   S    
C5    C11   S    
C125  H99   S    
O25   Zn1   S    
C6    C12   S    
C13   H33   S    
C126  H98   S    
C78   C80   A    
C57   C59   A    
C21   C33   A    
O15   Zn3   S    
C58   C60   A    
C72   H24   S    
C45   O15   A    
C108  H64   S    
C97   H46   S    
C27   C29   A    
C71   H23   S    
C18   C20   S    
C116  H85   S    
C118  H80   S    
C102  H49   S    
C16   H32   S    
C96   H40   S    
C56   H18   S    
C62   C64   A    
O1    Zn1   S    
C123  H91   S    
O3    Zn1   S    
C47   C60   S    
C83   O21   A    
O2    Zn2   S    
O4    Zn2   S    
O10   Zn6   S    
C111  H71   S    
C52   C54   A    
C107  C108  S    
C49   C51   A    
C105  H57   S    
C50   C52   A    
C91   O27   D    
C68   O18   A    
C45   C78   S    
C118  H81   S    
C31   H9    S    
C51   C103  S    
C124  C125  S    
C27   C40   S    
C92   O28   D    
C98   H44   S    
O13   Zn1   S    
C99   H43   S    
O12   Zn8   S    
C94   O30   D    
C101  H52   S    
C105  H55   S    
C93   O29   D    
C65   C80   S    
C55   C60   A    
C99   H42   S    
C117  H84   S    
C16   C19   S    
C22   H4    S    
C14   C17   S    
C107  H66   S    
C103  H61   S    
C67   O5    A    
C42   C44   A    
C70   H22   S    
C124  H101  S    
C6    H30   S    
C110  H70   S    
C82   O20   A    
O1    Zn3   S    
C4    C90   S    
O2    Zn8   S    
C26   H6    S    
C7    C12   S    
C22   C34   A    
C3    C89   S    
C119  O37   D    
C50   H16   S    
C69   C71   A    
C31   C33   A    
C23   O9    A    
C86   C88   S    
C106  C107  S    
C14   C20   S    
O7    Zn3   S    
C14   H34   S    
C72   C74   A    
C58   C81   S    
C54   C94   S    
C71   C73   A    
C43   C95   S    
O17   Zn5   S    
C13   C19   S    
C6    C8    S    
C28   C39   S    
O14   Zn2   S    
C18   C67   S    
C4    C116  S    
C102  H48   S    
C2    O12   A    
C97   H47   S    
C32   H10   S    
C55   H17   S    
C116  H86   S    
C51   C53   A    
C32   C34   A    
C37   C39   A    
C102  H50   S    
C68   O6    A    
C113  C114  S    
O26   Zn2   S    
C63   C111  S    
C46   C77   S    
C5    C7    S    
C120  O38   D    
O8    Zn4   S    
C91   H35   S    
C81   O19   A    
C64   C112  S    
C15   C20   S    
C87   C91   S    
C122  C123  S    
C106  H67   S    
C108  H62   S    
C77   C79   A    
C114  H76   S    
C115  H74   S    
C55   C57   A    
C11   C119  S    
C114  H77   S    
C48   C50   A    
C9    C11   S    
C41   C53   A    
C104  C105  S    
C10   C12   S    
C1    C38   S    
C61   C73   A    
O2    Zn4   S    
C19   C121  S    
C2    O8    A    
C115  H73   S    
C121  H94   S    
C101  H51   S    
C25   H5    S    
C112  O36   D    
C13   C15   S    
C104  H59   S    
C117  H83   S    
C14   C16   S    
C8    C10   S    
C75   H25   S    
C84   C89   S    
C113  H78   S    
C121  C122  S    
C67   O17   A    
C123  H89   S    
O23   Zn5   S    
C48   C59   S    
C46   O16   A    
C92   H36   S    
C75   C80   A    
C24   O10   A    
C5    C10   S    
C15   C17   S    
C83   C90   S    
C21   C25   A    
C88   C92   S    
C94   H38   S    
C17   C68   S    
C88   C90   S    
C15   H31   S    
C117  C118  S    
C100  H53   S    
C3    C88   S    
O9    Zn5   S    
C23   O13   A    
C36   C39   A    
C62   C74   A    
C112  H72   S    
C61   C109  S    
C1    O7    A    
C86   C89   S    
C42   H14   S    
C20   C124  S    
C74   H20   S    
C53   C93   S    
C49   H15   S    
C85   C90   S    
C111  O35   D    
C9    C24   S    
C73   H19   S    
O22   Zn8   S    
C84   O22   A    
C10   C23   S    
C109  O33   D    
C62   C110  S    
O21   Zn7   S    
C30   H8    S    
C26   C28   A    
C12   C120  S    
C56   C59   A    
C29   H7    S    
O5    Zn7   S    
O6    Zn8   S    
C126  H96   S    
C24   O14   A    
C16   C18   S    
C118  H82   S    
C33   H1    S    
C35   C40   A    
C109  H69   S    
C114  C115  S    
C29   C31   A    
C44   C48   A    
C125  H100  S    
C42   C54   A    
C36   C38   A    
C30   C32   A    
C126  H97   S    
C2    C37   S    
C81   O23   A    
C66   C70   A    
C21   H3    S    
C45   O3    A    
C8    C11   S    
C65   C69   A    
C34   H2    S    
C28   C30   A    
C106  H68   S    
C17   C19   S    
C36   H12   S    
C56   C58   A    
C115  H75   S    
O1    Zn7   S    
O20   Zn4   S    
C103  C104  S    
C69   H21   S    
C96   O32   D    
O19   Zn3   S    
C125  C126  S    
C99   H41   S    
C41   H13   S    
C124  H102  S    
C86   C100  S    
O18   Zn6   S    
C4    C86   S    
C121  H95   S    
C100  C101  S    
C85   C97   S    
C97   C98   S    
C22   C26   A    
C75   C77   A    
O16   Zn4   S    
C104  H58   S    
C105  H56   S    
C87   C89   S    
C108  H63   S    
C57   C82   S    
C101  C102  S    
C83   O25   A    
C70   C72   A    
O24   Zn6   S    
C123  H90   S    
C113  H79   S    
C122  H92   S    
C43   C47   A    
C98   H45   S    
O1    Zn5   S    
C64   C66   A    
C120  H88   S    
C61   C63   A    
C25   C27   A    
C84   O26   A    
