data_mof_unit_39740.cif
_audit_creation_date              2012-12-11T14:38:26-0500
_audit_creation_method            fapswitch 2.2
_symmetry_space_group_name_H-M    P1
_symmetry_Int_Tables_number       1
_space_group_crystal_system       triclinic
_cell_length_a                    19.627385
_cell_length_b                    11.089446
_cell_length_c                    19.691442
_cell_angle_alpha                 90.227885
_cell_angle_beta                  96.878472
_cell_angle_gamma                 90.351979
_cell_volume                      4254.99982929

loop_
_atom_site_label
_atom_site_type_symbol
_atom_type_description
_atom_site_fract_x
_atom_site_fract_y
_atom_site_fract_z
_atom_type_partial_charge
C1    C     C_R   0.723939 0.956048 0.361066 0.561275
C2    C     C_3   0.175865 0.486913 0.469106 -0.216769
C3    C     C_2   0.631195 0.967354 0.584874 0.571439
C4    C     C_3   0.511639 0.498684 0.926890 0.004390
C5    C     C_3   0.558759 0.551645 0.878560 -0.321526
C6    C     C_3   0.450917 0.489702 0.084236 -0.008202
C7    C     C_3   0.412426 0.534296 0.141668 -0.313978
C8    C     C_3   0.945397 0.007165 0.923379 -0.016984
C9    C     C_3   0.991367 0.118423 0.924829 -0.338133
C10   C     C_3   0.952307 0.979263 0.107456 -0.012278
C11   C     C_3   0.896572 0.036864 0.143200 -0.320214
C12   C     C_2   0.548525 0.995502 0.919950 0.585689
C13   C     C_3   0.324303 0.987931 0.531598 -0.216030
C14   C     C_2   0.435415 0.980727 0.083334 0.568194
C15   C     C_2   0.063292 0.540217 0.913789 0.590621
C16   C     C_2   0.945235 0.467512 0.081788 0.572967
C17   C     C_3   0.675859 0.986879 0.469093 -0.216532
C18   C     C_3   0.764814 0.294934 0.553583 -0.272285
C19   C     C_3   0.234588 0.295155 0.445637 -0.270793
C20   C     C_3   0.264823 0.794960 0.553577 -0.271959
C21   C     C_3   0.734612 0.795145 0.445634 -0.270910
C22   C     C_3   0.763627 0.429847 0.566386 0.038809
C23   C     C_3   0.236293 0.430175 0.433731 0.035917
C24   C     C_3   0.263635 0.929873 0.566378 0.038421
C25   C     C_R   0.275960 0.955723 0.639081 0.553074
C26   C     C_3   0.736299 0.930164 0.433727 0.036086
C27   C     C_3   0.748058 0.393726 0.435032 0.025123
C28   C     C_3   0.252072 0.393369 0.564956 0.025611
C29   C     C_3   0.248065 0.893743 0.435025 0.025132
C30   C     C_3   0.752068 0.893369 0.564954 0.025261
C31   C     C_3   0.806559 0.486901 0.453139 -0.072080
C32   C     C_3   0.193774 0.485666 0.547546 -0.071010
C33   C     C_3   0.306570 0.986912 0.453128 -0.071937
C34   C     C_3   0.693740 0.985608 0.547534 -0.071140
C35   C     C_3   0.767191 0.277165 0.476957 -0.241499
C36   C     C_R   0.223933 0.456059 0.361070 0.561609
C37   C     C_3   0.232726 0.276700 0.522281 -0.241929
C38   C     C_3   0.267198 0.777185 0.476952 -0.241817
C39   C     C_3   0.732756 0.776686 0.522279 -0.241940
C40   C     C_3   0.473471 0.310963 0.965518 0.143305
C41   C     C_3   0.492930 0.308853 0.042377 0.152258
C42   C     C_3   0.951254 0.810079 0.969744 0.150234
C43   C     C_3   0.980370 0.809181 0.045350 0.164105
C44   C     C_3   0.414164 0.106518 0.974188 -0.285020
C45   C     C_3   0.561358 0.117420 0.029653 -0.275853
C46   C     C_3   0.918613 0.588853 0.972758 -0.287814
C47   C     C_R   0.775954 0.455707 0.639087 0.553206
C48   C     C_3   0.061003 0.637168 0.029153 -0.285230
C49   C     C_3   0.540602 0.118886 0.951740 -0.046820
C50   C     C_3   0.435332 0.105920 0.052662 -0.061219
C51   C     C_3   0.040955 0.649805 0.951637 -0.055132
C52   C     C_3   0.937329 0.592897 0.051673 -0.070344
C53   C     C_R   0.536823 0.180449 0.339023 0.543331
C54   C     C_R   0.463302 0.180459 0.661053 0.547746
C55   C     C_R   0.036827 0.680450 0.339026 0.542204
C56   C     C_R   0.963305 0.680457 0.661055 0.551615
C57   C     C_3   0.467870 0.177608 0.937041 0.000491
C58   C     C_3   0.680659 0.444635 0.457645 -0.255807
C59   C     C_3   0.504596 0.175423 0.068261 0.007407
C60   C     C_3   0.962827 0.681670 0.937374 -0.014324
C61   C     C_3   0.001024 0.677096 0.069157 -0.002317
C62   C     C_1   0.762094 0.426235 0.904203 -0.012139
C63   C     C_1   0.219487 0.472515 0.085699 -0.018667
C64   C     C_1   0.262267 0.926739 0.904337 0.007351
C65   C     C_1   0.719381 0.971989 0.085671 -0.020416
C66   C     C_1   0.747147 0.403939 0.033940 -0.025322
C67   C     C_1   0.242898 0.433414 0.959214 -0.003193
C68   C     C_1   0.247237 0.904317 0.034034 -0.023947
C69   C     C_3   0.319518 0.445523 0.542521 -0.255289
C70   C     C_1   0.742582 0.933417 0.959063 -0.017192
C71   C     C_1   0.753582 0.413987 0.963459 -0.041194
C72   C     C_1   0.230573 0.455651 0.027431 -0.019452
C73   C     C_1   0.253765 0.914562 0.963592 -0.030222
C74   C     C_1   0.730283 0.955207 0.027330 -0.029437
C75   C     C_1   0.742465 0.389869 0.093930 0.024043
C76   C     C_1   0.252711 0.406834 0.901704 0.000517
C77   C     C_1   0.242469 0.890029 0.093981 0.024543
C78   C     C_1   0.752476 0.907106 0.901538 -0.001660
C79   C     C_R   0.738781 0.359907 0.362136 0.572807
C80   C     C_3   0.180668 0.944661 0.457638 -0.256006
C81   C     C_R   0.261359 0.359665 0.637759 0.568901
C82   C     C_R   0.238784 0.859916 0.362132 0.573499
C83   C     C_R   0.761357 0.859668 0.637760 0.570747
C84   C     C_R   0.705611 0.995755 0.154546 0.544989
C85   C     C_R   0.278083 0.954526 0.836824 0.543024
C86   C     C_R   0.205568 0.495973 0.154558 0.546077
C87   C     C_R   0.778020 0.454361 0.836760 0.537843
C88   C     C_R   0.531173 0.179337 0.141364 0.571825
C89   C     C_R   0.443225 0.182312 0.863565 0.552052
C90   C     C_R   0.029477 0.679439 0.142135 0.577210
C91   C     C_3   0.819502 0.945583 0.542527 -0.255200
C92   C     C_R   0.939471 0.683401 0.863125 0.556445
C93   C     C_R   0.735544 0.356923 0.163197 0.568030
C94   C     C_R   0.263702 0.360260 0.835730 0.544059
C95   C     C_R   0.235533 0.856919 0.163205 0.569251
C96   C     C_R   0.763622 0.860457 0.835634 0.551164
C97   C     C_1   0.484397 0.173364 0.593930 0.005125
C98   C     C_1   0.515993 0.173615 0.406249 0.006500
C99   C     C_1   0.984406 0.673358 0.593935 0.005881
C100  C     C_1   0.016004 0.673618 0.406254 0.006752
C101  C     C_1   0.505230 0.170795 0.465208 -0.015998
C102  C     C_3   0.824297 0.487900 0.531606 -0.215721
C103  C     C_1   0.495310 0.170648 0.535006 -0.016458
C104  C     C_1   0.005243 0.670795 0.465214 -0.015859
C105  C     C_1   0.995323 0.670644 0.535012 -0.016263
C106  C     C_3   0.691104 0.471702 0.534497 -0.244582
C107  C     C_3   0.309002 0.472781 0.465795 -0.244565
C108  C     C_3   0.191110 0.971724 0.534489 -0.244404
C109  C     C_3   0.808999 0.972796 0.465797 -0.244452
C110  C     C_2   0.868996 0.469824 0.415604 0.570817
C111  C     C_2   0.131247 0.467525 0.584926 0.571103
C112  C     C_2   0.369007 0.969811 0.415594 0.570439
Cr1   Cr    Cr6+3 0.765780 0.160710 0.267420 1.021019
Cr2   Cr    Cr6+3 0.383970 0.323720 0.751490 1.017123
Cr3   Cr    Cr6+3 0.116030 0.823720 0.248510 1.009014
Cr4   Cr    Cr6+3 0.883970 0.823720 0.751490 1.018158
Cr5   Cr    Cr6+3 0.234220 0.160710 0.732580 1.044765
Cr6   Cr    Cr6+3 0.265780 0.660710 0.267420 1.024309
Cr7   Cr    Cr6+3 0.734220 0.660710 0.732580 1.029207
Cr8   Cr    Cr6+3 0.612200 0.009560 0.248850 1.051422
Cr9   Cr    Cr6+3 0.387800 0.009560 0.751150 1.053563
Cr10  Cr    Cr6+3 0.112200 0.509560 0.248850 1.055393
Cr11  Cr    Cr6+3 0.887800 0.509560 0.751150 1.045913
Cr12  Cr    Cr6+3 0.616030 0.323720 0.248510 1.017844
H1    H     H_    0.682549 0.566695 0.544119 0.140139
H2    H     H_    0.129028 0.430944 0.454518 0.184190
H3    H     H_    0.371023 0.932785 0.545952 0.184766
H4    H     H_    0.629027 0.930910 0.454481 0.184216
H5    H     H_    0.421839 0.353234 0.953639 0.132118
H6    H     H_    0.543444 0.356850 0.053186 0.159980
H7    H     H_    0.894518 0.824341 0.964824 0.123874
H8    H     H_    0.029707 0.862097 0.050008 0.160725
H9    H     H_    0.363060 0.150107 0.963312 0.076992
H10   H     H_    0.610318 0.168869 0.041625 0.074575
H11   H     H_    0.863271 0.610824 0.960362 0.073989
H12   H     H_    0.317929 0.567922 0.456806 0.138775
H13   H     H_    0.107475 0.693901 0.044372 0.075125
H14   H     H_    0.395606 0.156663 0.076641 0.174362
H15   H     H_    0.577948 0.177973 0.929162 0.180681
H16   H     H_    0.893647 0.634870 0.074078 0.163204
H17   H     H_    0.070370 0.727599 0.934099 0.173876
H18   H     H_    0.572448 0.024268 0.048181 0.194920
H19   H     H_    0.407470 0.013409 0.953416 0.200930
H20   H     H_    0.076420 0.543523 0.043223 0.201214
H21   H     H_    0.924932 0.496899 0.951919 0.209932
H22   H     H_    0.650517 0.424237 0.559347 0.133471
H23   H     H_    0.182545 0.066713 0.544114 0.140116
H24   H     H_    0.349339 0.425882 0.440568 0.134221
H25   H     H_    0.150525 0.924248 0.559337 0.134815
H26   H     H_    0.849345 0.925887 0.440586 0.133884
H27   H     H_    0.638313 0.377397 0.446792 0.148315
H28   H     H_    0.361730 0.378973 0.552915 0.148153
H29   H     H_    0.138319 0.877430 0.446783 0.148564
H30   H     H_    0.861736 0.879082 0.552943 0.148198
H31   H     H_    0.665006 0.528147 0.428940 0.127812
H32   H     H_    0.335415 0.529158 0.571733 0.127373
H33   H     H_    0.165020 0.028177 0.428933 0.127817
H34   H     H_    0.817928 0.067929 0.456788 0.138924
H35   H     H_    0.835362 0.029244 0.571729 0.127335
H36   H     H_    0.341103 0.077820 0.551287 0.083952
H37   H     H_    0.658948 0.076479 0.450158 0.084100
H38   H     H_    0.841110 0.577776 0.551304 0.083984
H39   H     H_    0.158952 0.576507 0.450164 0.084175
H40   H     H_    0.285299 0.074064 0.437018 0.101828
H41   H     H_    0.715329 0.072884 0.564388 0.101684
H42   H     H_    0.785282 0.574055 0.437039 0.101736
H43   H     H_    0.215407 0.572921 0.564375 0.102096
H44   H     H_    0.809633 0.250156 0.582889 0.140400
H45   H     H_    0.820718 0.253558 0.470126 0.178766
H46   H     H_    0.189333 0.250202 0.416349 0.141197
H47   H     H_    0.309643 0.750181 0.582882 0.140647
H48   H     H_    0.689361 0.750177 0.416347 0.141268
H49   H     H_    0.717266 0.256488 0.569860 0.132546
H50   H     H_    0.281659 0.257238 0.428451 0.133820
H51   H     H_    0.217274 0.756517 0.569856 0.133351
H52   H     H_    0.781686 0.757240 0.428447 0.133544
H53   H     H_    0.733365 0.203806 0.457772 0.115264
H54   H     H_    0.266835 0.204169 0.540588 0.114017
H55   H     H_    0.233372 0.703825 0.457769 0.115202
H56   H     H_    0.179317 0.251609 0.529289 0.178547
H57   H     H_    0.766880 0.704181 0.540591 0.114246
H58   H     H_    0.916222 0.515387 0.333870 0.351956
H59   H     H_    0.083116 0.514421 0.665862 0.349938
H60   H     H_    0.416210 0.015272 0.333825 0.352391
H61   H     H_    0.582973 0.014158 0.665758 0.351890
H62   H     H_    0.522677 0.546511 0.976545 0.129584
H63   H     H_    0.457717 0.515119 0.904384 0.141054
H64   H     H_    0.549540 0.506062 0.827934 0.170574
H65   H     H_    0.548640 0.649551 0.871731 0.124383
H66   H     H_    0.613250 0.539392 0.899930 0.165279
H67   H     H_    0.320724 0.753570 0.470120 0.178692
H68   H     H_    0.429437 0.535629 0.036481 0.130800
H69   H     H_    0.505721 0.515987 0.097874 0.137069
H70   H     H_    0.432085 0.489630 0.190435 0.170776
H71   H     H_    0.418965 0.633454 0.147781 0.109740
H72   H     H_    0.357303 0.513099 0.129010 0.183109
H73   H     H_    0.906660 0.021963 0.959396 0.116567
H74   H     H_    0.917914 0.998564 0.871120 0.186896
H75   H     H_    0.027715 0.109425 0.886021 0.175065
H76   H     H_    0.959560 0.199948 0.913195 0.151029
H77   H     H_    0.021111 0.129521 0.976105 0.176687
H78   H     H_    0.679354 0.751556 0.529284 0.178495
H79   H     H_    0.962120 0.037547 0.064155 0.132350
H80   H     H_    0.999690 0.978818 0.144255 0.169425
H81   H     H_    0.882291 0.976038 0.183922 0.195522
H82   H     H_    0.915336 0.123799 0.166813 0.096717
H83   H     H_    0.851396 0.055005 0.105412 0.161200
H84   H     H_    0.593105 0.897173 0.851245 0.340944
H85   H     H_    0.403884 0.874251 0.156348 0.342812
H86   H     H_    0.115340 0.477596 0.838848 0.346028
H87   H     H_    0.916280 0.349484 0.150646 0.337375
H88   H     H_    0.871013 0.432738 0.545951 0.184815
O1    O     O_R   0.783100 0.287550 0.345460 -0.493104
O2    O     O_R   0.454350 0.284910 0.836260 -0.472491
O3    O     O_R   0.045650 0.784910 0.163740 -0.524853
O4    O     O_R   0.954350 0.784910 0.836260 -0.460076
O5    O     O_R   0.677950 0.374280 0.185410 -0.507978
O6    O     O_R   0.322050 0.374280 0.814590 -0.520505
O7    O     O_R   0.177950 0.874280 0.185410 -0.506772
O8    O     O_R   0.822050 0.874280 0.814590 -0.540791
O9    O     O_3   0.664670 0.164660 0.254930 -0.293997
O10   O     O_3   0.335330 0.164660 0.745070 -0.292674
O11   O     O_3   0.164670 0.664660 0.254930 -0.292951
O12   O     O_R   0.216900 0.287550 0.654540 -0.493955
O13   O     O_3   0.835330 0.664660 0.745070 -0.292026
O14   O     O_R   0.760020 0.037400 0.337700 -0.508842
O15   O     O_R   0.239980 0.037400 0.662300 -0.510360
O16   O     O_R   0.260020 0.537400 0.337700 -0.507671
O17   O     O_R   0.739980 0.537400 0.662300 -0.510819
O18   O     O_R   0.666600 0.921990 0.332020 -0.515869
O19   O     O_R   0.333400 0.921990 0.667980 -0.520029
O20   O     O_R   0.166600 0.421990 0.332020 -0.516593
O21   O     O_R   0.833400 0.421990 0.667980 -0.519592
O22   O     O_R   0.557260 0.082670 0.312540 -0.496018
O23   O     O_R   0.283100 0.787550 0.345460 -0.493271
O24   O     O_R   0.442740 0.082670 0.687460 -0.492736
O25   O     O_R   0.057260 0.582670 0.312540 -0.497055
O26   O     O_R   0.942740 0.582670 0.687460 -0.493086
O27   O     O_R   0.548410 0.285740 0.316480 -0.512794
O28   O     O_R   0.451590 0.285740 0.683520 -0.512457
O29   O     O_R   0.048410 0.785740 0.316480 -0.513304
O30   O     O_R   0.951590 0.785740 0.683520 -0.507681
O31   O     O_R   0.680500 0.375040 0.327000 -0.507518
O32   O     O_R   0.319500 0.375040 0.673000 -0.510691
O33   O     O_R   0.180500 0.875040 0.327000 -0.507571
O34   O     O_R   0.716900 0.787550 0.654540 -0.492546
O35   O     O_R   0.819500 0.875040 0.673000 -0.511473
O36   O     O_R   0.780350 0.286720 0.192720 -0.506762
O37   O     O_R   0.219650 0.286720 0.807280 -0.501480
O38   O     O_R   0.280350 0.786720 0.192720 -0.514422
O39   O     O_R   0.719650 0.786720 0.807280 -0.502131
O40   O     O_R   0.757470 0.036630 0.196110 -0.514189
O41   O     O_R   0.242530 0.036630 0.803890 -0.495351
O42   O     O_R   0.257470 0.536630 0.196110 -0.511827
O43   O     O_R   0.742530 0.536630 0.803890 -0.504048
O44   O     O_R   0.663840 0.921160 0.179280 -0.482679
O45   O     O_R   0.554710 0.081900 0.170950 -0.500640
O46   O     O_R   0.336160 0.921160 0.820720 -0.504131
O47   O     O_R   0.163840 0.421160 0.179280 -0.477217
O48   O     O_R   0.836160 0.421160 0.820720 -0.513975
O49   O     O_2   0.911728 0.392828 0.433463 -0.510721
O50   O     O_R   0.875650 0.540111 0.357984 -0.697819
O51   O     O_2   0.088954 0.388515 0.567321 -0.509704
O52   O     O_R   0.123859 0.539532 0.641960 -0.699901
O53   O     O_2   0.411759 0.892865 0.433487 -0.511080
O54   O     O_R   0.375637 0.040007 0.357932 -0.696198
O55   O     O_2   0.588947 0.888283 0.567242 -0.510204
O56   O     O_R   0.445290 0.081900 0.829050 -0.471424
O57   O     O_R   0.623730 0.039337 0.641896 -0.700013
O58   O     O_3   0.525962 0.374578 0.935527 -0.576661
O59   O     O_3   0.440932 0.363665 0.076556 -0.582853
O60   O     O_3   0.986642 0.903994 0.938563 -0.564912
O61   O     O_3   0.932115 0.860573 0.085669 -0.574662
O62   O     O_2   0.517064 0.907925 0.937628 -0.487615
O63   O     O_R   0.592139 0.982851 0.869254 -0.690080
O64   O     O_2   0.467398 0.898621 0.060706 -0.487878
O65   O     O_R   0.399142 0.960155 0.139107 -0.694144
O66   O     O_2   0.044010 0.438978 0.927333 -0.503466
O67   O     O_R   0.054710 0.581900 0.170950 -0.493711
O68   O     O_R   0.105662 0.556152 0.862268 -0.684513
O69   O     O_2   0.984712 0.395187 0.060822 -0.506082
O70   O     O_R   0.906751 0.434882 0.134186 -0.691899
O71   O     O_R   0.945290 0.581900 0.829050 -0.470750
O72   O     O_R   0.545650 0.284910 0.163740 -0.504603

loop_
_geom_bond_atom_site_label_1
_geom_bond_atom_site_label_2
_ccdc_geom_bond_type
C1    O14   A    
C35   H53   S    
Cr2   O32   S    
C40   H5    S    
Cr9   O56   S    
Cr8   O9    S    
Cr9   O19   S    
C32   C111  S    
C112  O54   S    
C84   O40   A    
H60   O54   S    
Cr2   O2    S    
C8    H74   S    
C28   C69   S    
C19   H46   S    
Cr1   O1    S    
C3    O57   S    
Cr4   O4    S    
C102  H88   S    
Cr10  O67   S    
C53   O27   A    
C12   C49   S    
C69   C107  S    
C81   O32   A    
C80   H29   S    
C14   C50   S    
C58   H27   S    
C13   C33   S    
C37   H54   S    
Cr3   O11   S    
C106  H1    S    
Cr7   O13   S    
C45   H10   S    
Cr1   O40   S    
C57   C89   S    
C48   H13   S    
C50   C59   S    
C4    H63   S    
C56   O26   A    
C43   H8    S    
Cr7   O34   S    
C5    H66   S    
C92   O71   A    
C27   C79   S    
C52   C61   S    
C44   H19   S    
C41   H6    S    
C83   O35   A    
C20   H51   S    
C70   C78   T    
Cr8   O45   S    
H58   O50   S    
Cr1   O14   S    
C29   C33   S    
C94   O6    A    
C49   C57   S    
C48   H20   S    
C2    C32   S    
C67   C72   S    
C4    H62   S    
C30   C83   S    
C81   O12   A    
C59   C88   S    
C90   O3    A    
C110  O49   D    
C56   O30   A    
C5    H64   S    
C19   C37   S    
C76   C94   S    
C46   H11   S    
Cr11  O21   S    
Cr5   O41   S    
Cr6   O23   S    
C31   C110  S    
C48   C51   S    
C25   O19   A    
C20   C24   S    
C78   C96   S    
C8    C9    S    
C69   H28   S    
C29   C38   S    
C84   O44   A    
C67   C76   T    
C95   O7    A    
C64   C73   T    
C31   H42   S    
C54   C97   S    
C92   O4    A    
C42   H7    S    
C24   C108  S    
C11   H82   S    
C15   C51   S    
C85   O46   A    
H84   O63   S    
C34   H41   S    
Cr6   O42   S    
C18   C35   S    
C13   H36   S    
C91   H35   S    
C7    H70   S    
C9    H76   S    
H61   O57   S    
Cr9   O46   S    
C17   H37   S    
Cr11  O26   S    
Cr8   O22   S    
Cr11  O13   S    
C21   H52   S    
C38   H55   S    
C87   O43   A    
C22   C47   S    
C28   C81   S    
C10   C11   S    
C80   H33   S    
C101  C103  S    
Cr3   O29   S    
C82   O23   A    
C36   O16   A    
C16   O70   S    
C2    H2    S    
Cr3   O7    S    
C8    H73   S    
C11   H83   S    
Cr2   O6    S    
C109  H34   S    
C88   O72   A    
C95   O38   A    
Cr5   O10   S    
C104  C105  S    
C21   C26   S    
C6    C7    S    
C51   H17   S    
C4    O58   S    
C10   H79   S    
C99   C105  T    
Cr4   O30   S    
C69   H32   S    
C3    O55   D    
C30   C34   S    
C27   C31   S    
C31   C102  S    
C28   C32   S    
C33   H40   S    
C24   C25   S    
C41   C59   S    
C91   H30   S    
C102  H38   S    
Cr6   O38   S    
C12   O62   D    
C33   C112  S    
Cr12  O27   S    
C18   H44   S    
C30   C91   S    
C65   C84   S    
C3    C34   S    
C27   C35   S    
C68   C73   S    
C96   O8    A    
C77   C95   S    
H86   O68   S    
C65   C74   T    
C13   C24   S    
C90   O67   A    
C58   C106  S    
C13   H3    S    
C2    H39   S    
C19   C23   S    
Cr8   O44   S    
C70   C74   S    
C107  H12   S    
C93   O36   A    
Cr7   O39   S    
C20   C38   S    
Cr9   O10   S    
C66   C71   S    
C21   C39   S    
Cr4   O35   S    
C45   C49   S    
C44   C57   S    
C36   O20   A    
Cr9   O24   S    
C23   C107  S    
C20   H47   S    
C100  C104  T    
Cr3   O3    S    
C9    H75   S    
H87   O70   S    
C97   C103  T    
C17   C34   S    
Cr2   O10   S    
Cr12  O31   S    
C53   O22   A    
C26   C109  S    
C111  O51   D    
C39   H57   S    
C12   O63   S    
C9    H77   S    
C88   O45   A    
C43   O61   S    
C96   O39   A    
C14   O65   S    
C40   C41   S    
C1    O18   A    
C79   O31   A    
Cr10  O11   S    
C49   H15   S    
C63   C86   S    
C45   H18   S    
C35   H45   S    
C106  H22   S    
C111  O52   S    
C32   H43   S    
Cr4   O8    S    
C42   C43   S    
C17   C26   S    
C10   O61   S    
C7    H71   S    
C21   H48   S    
C94   O37   A    
C42   C60   S    
C64   C85   S    
C61   C90   S    
C43   C61   S    
Cr2   O28   S    
C16   O69   D    
C44   C50   S    
C68   C77   T    
C37   H56   S    
Cr8   O18   S    
Cr12  O5    S    
Cr5   O15   S    
Cr5   O37   S    
C40   C57   S    
C55   O29   A    
C82   O33   A    
C46   C60   S    
C6    O59   S    
C18   C22   S    
Cr12  O72   S    
C15   O68   S    
C15   O66   D    
C16   C52   S    
C4    C5    S    
C27   C58   S    
Cr7   O43   S    
C87   O48   A    
C50   H14   S    
C17   H4    S    
Cr1   O9    S    
C47   O17   A    
C55   C100  S    
C40   O58   S    
C53   C98   S    
C86   O42   A    
Cr1   O36   S    
Cr10  O20   S    
C62   C87   S    
C80   C108  S    
C85   O41   A    
C22   C102  S    
C98   C101  T    
Cr4   O13   S    
C89   O56   A    
Cr6   O16   S    
Cr11  O71   S    
C108  H23   S    
C109  H26   S    
C19   H50   S    
C5    H65   S    
C29   C82   S    
C8    O60   S    
C22   C106  S    
C46   C52   S    
C107  H24   S    
C91   C109  S    
C48   C61   S    
C1    C26   S    
C29   C80   S    
C28   C37   S    
C75   C93   S    
H85   O65   S    
C66   C75   T    
C44   H9    S    
C83   O34   A    
C63   C72   T    
C52   H16   S    
C45   C59   S    
C25   O15   A    
C62   C71   T    
C41   O59   S    
C46   H21   S    
C42   O60   S    
C86   O47   A    
C110  O50   S    
C55   O25   A    
C58   H31   S    
Cr7   O17   S    
C54   O28   A    
C108  H25   S    
Cr10  O25   S    
C18   H49   S    
C14   O64   D    
Cr10  O47   S    
C79   O1    A    
Cr11  O48   S    
Cr12  O9    S    
C54   O24   A    
C23   C36   S    
Cr6   O11   S    
C39   H78   S    
C6    H68   S    
C2    C23   S    
C38   H67   S    
Cr5   O12   S    
C93   O5    A    
C51   C60   S    
C11   H81   S    
C56   C99   S    
Cr3   O33   S    
C7    H72   S    
C60   C92   S    
C10   H80   S    
C112  O53   D    
C6    H69   S    
H59   O52   S    
C30   C39   S    
C89   O2    A    
C47   O21   A    
