data_mof_unit_23300.cif
_audit_creation_date              2012-12-10T18:52:19-0500
_audit_creation_method            fapswitch 2.2
_symmetry_space_group_name_H-M    P1
_symmetry_Int_Tables_number       1
_space_group_crystal_system       triclinic
_cell_length_a                    15.725304
_cell_length_b                    10.683438
_cell_length_c                    9.856267
_cell_angle_alpha                 90.475452
_cell_angle_beta                  90.014638
_cell_angle_gamma                 90.551191
_cell_volume                      1655.7221921

loop_
_atom_site_label
_atom_site_type_symbol
_atom_type_description
_atom_site_fract_x
_atom_site_fract_y
_atom_site_fract_z
_atom_type_partial_charge
C1    C     C_R   0.496399 0.260156 0.499165 0.973513
C2    C     C_R   0.429289 0.463786 0.071493 0.016463
C3    C     C_R   0.337921 0.501660 0.500023 0.934036
C4    C     C_R   0.662064 0.499086 0.500018 0.929268
C5    C     C_3   0.971484 0.417326 0.591744 -0.262519
C6    C     C_3   0.028328 0.585431 0.408523 -0.266592
C7    C     C_3   0.027152 0.388475 0.467089 0.525748
C8    C     C_3   0.972610 0.614240 0.533178 0.523157
C9    C     C_1   0.249029 0.502695 0.500054 -0.119377
C10   C     C_1   0.750898 0.499075 0.500100 -0.088955
C11   C     C_3   0.028492 0.533185 0.625179 -0.264795
C12   C     C_R   0.503693 0.739757 0.500708 0.963467
C13   C     C_3   0.971309 0.469567 0.375112 -0.268600
C14   C     C_3   0.082931 0.502397 0.499935 -0.019765
C15   C     C_3   0.916919 0.500291 0.500306 -0.023723
C16   C     C_1   0.173766 0.502903 0.499936 0.078145
C17   C     C_1   0.826133 0.499447 0.500255 0.084645
C18   C     C_R   0.442660 0.057986 0.410266 0.472417
C19   C     C_R   0.559011 0.941700 0.587346 0.471922
C20   C     C_R   0.448022 0.929637 0.413162 -0.292374
C21   C     C_R   0.553057 0.070106 0.585545 -0.290218
C22   C     C_R   0.504659 0.872223 0.501275 -0.236832
C23   C     C_R   0.496102 0.127575 0.497851 -0.233384
C24   C     C_R   0.570729 0.536251 0.072148 -0.062999
C25   C     C_R   0.429305 0.463575 0.927843 -0.037833
C26   C     C_R   0.570812 0.535691 0.928505 -0.011535
H1    H     H_    0.946774 0.347708 0.665243 0.205124
H2    H     H_    0.372626 0.434621 0.125205 0.158185
H3    H     H_    0.005245 0.056491 0.382901 0.413845
H4    H     H_    0.992270 0.943096 0.632565 0.411729
H5    H     H_    0.280410 0.280770 0.312978 0.396878
H6    H     H_    0.634373 0.806100 0.900030 0.376423
H7    H     H_    0.053014 0.655066 0.335024 0.204575
H8    H     H_    0.946444 0.442130 0.273604 0.200537
H9    H     H_    0.053332 0.560648 0.726692 0.200647
H10   H     H_    0.406838 0.873375 0.348270 0.211636
H11   H     H_    0.594196 0.126289 0.650602 0.209750
H12   H     H_    0.627344 0.565733 0.126362 0.149955
H13   H     H_    0.372715 0.434022 0.873608 0.153277
H14   H     H_    0.627610 0.564191 0.874764 0.166531
N1    N     N_R   0.499980 0.499970 0.857200 -0.089917
N2    N     N_R   0.500020 0.500030 0.142800 -0.091110
O1    O     O_R   0.499990 0.316750 0.614620 -0.622480
O2    O     O_2   0.124968 0.192209 0.528927 -0.245189
O3    O     O_3   0.980728 0.137525 0.411735 -0.520949
O4    O     O_2   0.880936 0.814638 0.463889 -0.253620
O5    O     O_2   0.881781 0.756545 0.704495 -0.239014
O6    O     O_3   0.017720 0.862366 0.604885 -0.524799
O7    O     O_2   0.412173 0.181603 0.181068 -0.300898
O8    O     O_2   0.304421 0.028264 0.250519 -0.243688
O9    O     O_3   0.313447 0.237763 0.383993 -0.539767
O10   O     O_2   0.679641 0.767768 0.621562 -0.281114
O11   O     O_2   0.702248 0.970064 0.734657 -0.259184
O12   O     O_R   0.500010 0.683250 0.385380 -0.626717
O13   O     O_3   0.587929 0.819741 0.834031 -0.542797
O14   O     O_R   0.500000 0.316780 0.385290 -0.565724
O15   O     O_R   0.500000 0.683220 0.614710 -0.555468
O16   O     O_R   0.376780 0.499970 0.614640 -0.624484
O17   O     O_R   0.623220 0.500030 0.385360 -0.634461
O18   O     O_R   0.376780 0.500000 0.385310 -0.623552
O19   O     O_R   0.623220 0.500000 0.614690 -0.605053
O20   O     O_2   0.108579 0.242439 0.287537 -0.277417
S1    S     S_3+6 0.064199 0.236606 0.422349 0.059923
S2    S     S_3+6 0.934436 0.765572 0.577676 0.071823
S3    S     S_3+6 0.366790 0.125698 0.300605 0.068257
S4    S     S_3+6 0.636463 0.873743 0.694012 0.068972
Zn1   Zn    Zn3+2 0.500000 0.499980 0.653120 1.030805
Zn2   Zn    Zn3+2 0.500000 0.500020 0.346880 1.015250

loop_
_geom_bond_atom_site_label_1
_geom_bond_atom_site_label_2
_ccdc_geom_bond_type
C24   H12   S    
O5    S2    D    
C5    C11   S    
O20   S1    D    
C3    C9    S    
C14   C16   S    
O17   Zn2   S    
C6    C14   S    
C24   N2    A    
O19   Zn1   S    
H6    O13   S    
C6    H7    S    
O12   Zn2   S    
C7    S1    S    
C3    O18   A    
C19   C22   A    
C11   H9    S    
O10   S4    D    
C13   H8    S    
N1    Zn1   S    
C25   N1    A    
C25   H13   S    
C6    C13   S    
N2    Zn2   S    
O11   S4    D    
C26   H14   S    
O3    S1    S    
O7    S3    D    
C2    N2    A    
C8    C11   S    
C6    C8    S    
C12   O15   A    
C4    O17   A    
H4    O6    S    
C19   C21   A    
C9    C16   T    
O15   Zn1   S    
C1    C23   S    
C2    C25   A    
C18   C20   A    
C13   C15   S    
C21   C23   A    
O8    S3    D    
C1    O14   A    
C5    C15   S    
O6    S2    S    
C15   C17   S    
C20   C22   A    
C10   C17   T    
C4    C10   S    
C18   C23   A    
C8    S2    S    
C3    O16   A    
C12   C22   S    
O16   Zn1   S    
C7    C13   S    
O13   S4    S    
C21   H11   S    
O18   Zn2   S    
C19   S4    S    
O1    Zn1   S    
O2    S1    D    
O9    S3    S    
O14   Zn2   S    
H3    O3    S    
C11   C14   S    
C5    C7    S    
C2    H2    S    
C8    C15   S    
O4    S2    D    
C5    H1    S    
C4    O19   A    
C1    O1    A    
C7    C14   S    
C12   O12   A    
C24   C26   A    
C26   N1    A    
H5    O9    S    
C18   S3    S    
C20   H10   S    
