data_mof_unit_56141.cif
_audit_creation_date              2012-12-10T17:17:27-0500
_audit_creation_method            fapswitch 2.2
_symmetry_space_group_name_H-M    P1
_symmetry_Int_Tables_number       1
_space_group_crystal_system       triclinic
_cell_length_a                    10.199088
_cell_length_b                    10.648702
_cell_length_c                    12.246287
_cell_angle_alpha                 91.453243
_cell_angle_beta                  109.153405
_cell_angle_gamma                 95.414734
_cell_volume                      1248.55550695

loop_
_atom_site_label
_atom_site_type_symbol
_atom_type_description
_atom_site_fract_x
_atom_site_fract_y
_atom_site_fract_z
_atom_type_partial_charge
C1    C     C_R   0.054786 0.734301 0.500727 0.909578
C2    C     C_R   0.426555 0.511644 0.990038 0.039081
C3    C     C_R   0.352070 0.558430 0.883356 0.053861
C4    C     C_R   0.573422 0.516648 0.021186 0.076921
C5    C     C_R   0.643999 0.576971 0.950800 0.146744
C6    C     C_R   0.569256 0.636370 0.853604 -0.329347
C7    C     C_R   0.424922 0.634203 0.823411 0.212945
C8    C     C_R   0.653003 0.466589 0.122486 -0.240698
C9    C     C_R   0.867096 0.546865 0.091558 -0.212238
C10   C     C_R   0.206317 0.527301 0.838979 -0.109027
C11   C     C_2   0.092503 0.870971 0.521697 -0.052222
C12   C     C_R   0.135112 0.517723 0.714242 0.897900
C13   C     C_2   0.032978 0.938217 0.586075 0.164064
C14   C     C_2   0.939379 0.135850 0.539147 -0.465917
C15   C     C_2   0.052444 0.075134 0.590562 0.263493
C16   C     C_2   0.432933 0.511489 0.510030 -0.131521
C17   C     C_2   0.567405 0.487873 0.489811 -0.131180
C18   C     C_R   0.953808 0.267566 0.514812 0.944666
C19   C     C_R   0.866084 0.487203 0.285727 0.871677
C20   C     C_R   0.790229 0.586523 0.984191 -0.186848
C21   C     C_R   0.797012 0.492485 0.162499 -0.060852
C22   C     C_R   0.133202 0.480810 0.911032 -0.224557
C23   C     C_R   0.205634 0.453534 0.023489 -0.150303
C24   C     C_R   0.350798 0.464614 0.062007 -0.166357
H1    H     H_    0.979745 0.566832 0.122282 0.156075
H2    H     H_    0.564743 0.413458 0.426674 0.156338
H3    H     H_    0.436143 0.585672 0.573065 0.154978
H4    H     H_    0.315137 0.376735 0.395559 0.154803
H5    H     H_    0.606025 0.414897 0.177179 0.133440
H6    H     H_    0.399808 0.438026 0.149089 0.122482
N1    N     N_2   0.313640 0.446500 0.454900 -0.192752
N2    N     N_2   0.686360 0.553430 0.545150 -0.186890
O1    O     O_R   0.936910 0.692950 0.509080 -0.597733
O2    O     O_R   0.138320 0.658600 0.480130 -0.608899
O3    O     O_R   0.002900 0.525670 0.675280 -0.608926
O4    O     O_R   0.204310 0.491320 0.646330 -0.595922
O5    O     O_R   0.861680 0.341400 0.519870 -0.604187
O6    O     O_R   0.063090 0.307050 0.490920 -0.607557
O7    O     O_R   0.795690 0.508680 0.353670 -0.603970
O8    O     O_R   0.997100 0.474330 0.324720 -0.611464
Zn1   Zn    Zn3+2 0.865520 0.522940 0.519330 0.939535
Zn2   Zn    Zn3+2 0.134480 0.477060 0.480670 0.928973
N3    N     N_2   0.937862 0.879058 0.638062 -0.284242
H7    H     H_    0.835166 0.872666 0.584647 0.226523
C25   C     C_3   0.955520 0.923170 0.755250 -0.801594
H8    H     H_    0.885330 0.861608 0.789051 0.230252
H9    H     H_    0.928516 0.021655 0.757412 0.242988
H10   H     H_    0.064501 0.918521 0.812225 0.245826
H11   H     H_    0.835456 0.084702 0.507394 0.127504
N4    N     N_2   0.191070 0.931656 0.474713 -0.315703
H12   H     H_    0.273235 0.879940 0.479859 0.237084
C26   C     C_3   0.129256 0.973992 0.359565 -0.807385
H13   H     H_    0.211735 0.025375 0.331803 0.238852
H14   H     H_    0.050318 0.039446 0.358455 0.253949
H15   H     H_    0.079019 0.891766 0.297259 0.235433
H16   H     H_    0.684490 0.623141 0.604417 0.155445
H17   H     H_    0.623981 0.692163 0.805801 0.134519
H18   H     H_    0.845005 0.632906 0.931386 0.139306
H19   H     H_    0.020712 0.459096 0.878552 0.163315
H20   H     H_    0.149238 0.417064 0.079036 0.143252
N5    N     N_2   0.356934 0.724022 0.746382 -0.300042
H21   H     H_    0.403186 0.748323 0.685498 0.214462
C27   C     C_3   0.335789 0.834954 0.806553 -0.809451
H22   H     H_    0.286613 0.903314 0.743414 0.260510
H23   H     H_    0.437510 0.882122 0.864931 0.244009
H24   H     H_    0.267039 0.808570 0.858155 0.247005
N6    N     N_2   0.190319 0.136724 0.645141 -0.290815
H25   H     H_    0.235912 0.186870 0.593783 0.268615
C28   C     C_3   0.216609 0.193983 0.759605 -0.758229
H26   H     H_    0.140069 0.261946 0.757553 0.231358
H27   H     H_    0.323658 0.244546 0.792365 0.239810
H28   H     H_    0.208537 0.120047 0.819992 0.239254

loop_
_geom_bond_atom_site_label_1
_geom_bond_atom_site_label_2
_ccdc_geom_bond_type
O4    Zn2   S    
C28   H28   S    
N4    C26   S    
N3    H7    S    
C27   H23   S    
C6    C7    A    
N1    Zn2   S    
C12   O4    A    
C11   C13   D    
C14   C18   S    
C9    C20   A    
C2    C4    A    
O2    Zn2   S    
C26   H15   S    
C4    C8    A    
N2    Zn1   S    
O1    Zn1   S    
C16   H3    S    
O8    Zn2   S    
C8    C21   A    
C18   O6    A    
C27   H24   S    
C9    H1    S    
O7    Zn1   S    
C3    C10   A    
C25   H8    S    
C10   C22   A    
C16   N1    D    
C2    C24   A    
C4    C5    A    
N3    C25   S    
C6    H17   S    
C9    C21   A    
N5    H21   S    
C10   C12   S    
C5    C6    A    
C17   H2    S    
C19   O7    A    
C19   C21   S    
C18   O5    A    
C26   H14   S    
C1    O2    A    
O6    Zn2   S    
C3    C7    A    
C2    C3    A    
C28   H26   S    
C25   H9    S    
C13   C15   S    
O5    Zn1   S    
C23   H20   S    
O3    Zn1   S    
C24   H6    S    
C14   H11   S    
C28   H27   S    
C19   O8    A    
C8    H5    S    
C23   C24   A    
C1    O1    A    
N6    H25   S    
C15   N6    S    
C13   N3    S    
C26   H13   S    
N5    C27   S    
C25   H10   S    
N6    C28   S    
C22   H19   S    
C5    C20   A    
C17   N2    D    
C11   N4    S    
C14   C15   D    
C7    N5    S    
N4    H12   S    
C22   C23   A    
C20   H18   S    
N2    H16   S    
H4    N1    S    
C27   H22   S    
C16   C17   S    
C12   O3    A    
C1    C11   S    
