data_mof_unit_34698.cif
_audit_creation_date              2012-12-10T17:18:15-0500
_audit_creation_method            fapswitch 2.2
_symmetry_space_group_name_H-M    P1
_symmetry_Int_Tables_number       1
_space_group_crystal_system       triclinic
_cell_length_a                    10.226937
_cell_length_b                    10.772556
_cell_length_c                    14.988448
_cell_angle_alpha                 90.29809
_cell_angle_beta                  80.339232
_cell_angle_gamma                 94.835896
_cell_volume                      1622.00157047

loop_
_atom_site_label
_atom_site_type_symbol
_atom_type_description
_atom_site_fract_x
_atom_site_fract_y
_atom_site_fract_z
_atom_type_partial_charge
C1    C     C_R   0.555333 0.732777 0.497370 0.937956
C2    C     C_2   0.079646 0.508022 0.481595 -0.108856
C3    C     C_R   0.499867 0.500529 0.673244 0.880111
C4    C     C_R   0.500609 0.499909 0.326798 0.887732
C5    C     C_R   0.594545 0.435027 0.174384 -0.262008
C6    C     C_R   0.413815 0.572331 0.825341 -0.273640
C7    C     C_R   0.502134 0.500966 0.230865 -0.068895
C8    C     C_R   0.500874 0.501349 0.769071 -0.064088
C9    C     C_R   0.410949 0.568276 0.195950 -0.261225
C10   C     C_R   0.591455 0.432938 0.803927 -0.255678
C11   C     C_R   0.411586 0.570476 0.103566 0.117612
C12   C     C_R   0.444346 0.267482 0.509157 0.936332
C13   C     C_R   0.593794 0.433563 0.896113 0.116062
C14   C     C_R   0.503439 0.502629 0.046271 0.058368
C15   C     C_R   0.503352 0.502787 0.953387 0.058262
C16   C     C_R   0.595170 0.434480 0.081882 0.121800
C17   C     C_R   0.412920 0.572373 0.917731 0.126321
C18   C     C_R   0.322149 0.639299 0.067663 -0.219816
C19   C     C_R   0.684385 0.365984 0.931914 -0.218647
C20   C     C_3   0.100977 0.641829 0.603258 -0.244254
C21   C     C_3   0.181527 0.672937 0.678204 -0.307652
C22   C     C_3   0.118879 0.771580 0.741313 -0.986240
C23   C     C_R   0.323275 0.640766 0.974832 -0.215785
C24   C     C_3   0.898378 0.354680 0.399194 -0.244584
C25   C     C_3   0.797388 0.255476 0.371419 -0.286961
C26   C     C_3   0.863777 0.172199 0.297484 -0.989323
C27   C     C_R   0.685358 0.366760 0.024607 -0.215917
C28   C     C_2   0.585252 0.865015 0.507873 -0.379081
C29   C     C_2   0.412223 0.135527 0.523338 -0.368345
C30   C     C_2   0.484761 0.933581 0.538461 -0.151955
C31   C     C_2   0.507172 0.066428 0.540456 -0.157588
C32   C     C_2   0.929820 0.525914 0.492977 -0.108538
H1    H     H_    0.664327 0.382710 0.202505 0.152697
H2    H     H_    0.382353 0.893249 0.554489 0.185360
H3    H     H_    0.313311 0.094377 0.517239 0.148421
H4    H     H_    0.687124 0.906317 0.490700 0.152492
H5    H     H_    0.125110 0.452305 0.426502 0.149299
H6    H     H_    0.890582 0.604309 0.530801 0.146986
H7    H     H_    0.116152 0.859254 0.703203 0.270391
H8    H     H_    0.016063 0.737889 0.773181 0.275160
H9    H     H_    0.178982 0.791827 0.795672 0.257635
H10   H     H_    0.181275 0.587019 0.718757 0.237352
H11   H     H_    0.283783 0.710353 0.649857 0.257156
H12   H     H_    0.348829 0.629444 0.797314 0.150341
H13   H     H_    0.089492 0.729285 0.567133 0.166489
H14   H     H_    0.002374 0.603176 0.640009 0.167570
H15   H     H_    0.905478 0.227978 0.235547 0.268152
H16   H     H_    0.944818 0.125753 0.321211 0.270327
H17   H     H_    0.788918 0.099324 0.280122 0.266758
H18   H     H_    0.755740 0.194992 0.430534 0.227100
H19   H     H_    0.717587 0.297908 0.344573 0.260795
H20   H     H_    0.953727 0.402853 0.336844 0.172160
H21   H     H_    0.967608 0.301261 0.430739 0.159520
H22   H     H_    0.340771 0.620137 0.240594 0.157701
H23   H     H_    0.659256 0.378648 0.759400 0.157270
H24   H     H_    0.251696 0.691894 0.111291 0.148453
H25   H     H_    0.754255 0.312789 0.888306 0.148573
H26   H     H_    0.253645 0.694445 0.947769 0.148946
H27   H     H_    0.755993 0.314175 0.051536 0.149077
H28   H     H_    0.605521 0.107070 0.548067 0.174135
N1    N     N_2   0.842700 0.448880 0.462930 -0.076484
N2    N     N_2   0.157300 0.551120 0.537070 -0.076072
O1    O     O_R   0.431060 0.692470 0.507460 -0.623629
O2    O     O_R   0.568940 0.307530 0.492540 -0.634348
O3    O     O_R   0.651120 0.659650 0.483670 -0.614535
O4    O     O_R   0.348880 0.340350 0.516330 -0.608053
O5    O     O_R   0.389960 0.516440 0.644050 -0.640397
O6    O     O_R   0.610040 0.483560 0.355950 -0.628810
O7    O     O_R   0.610030 0.483620 0.620260 -0.619080
O8    O     O_R   0.389970 0.516380 0.379740 -0.624228
Zn1   Zn    Zn3+2 0.353060 0.521920 0.515880 0.933830
Zn2   Zn    Zn3+2 0.646940 0.478080 0.484120 0.934011

loop_
_geom_bond_atom_site_label_1
_geom_bond_atom_site_label_2
_ccdc_geom_bond_type
C31   H28   S    
C24   H20   S    
O7    Zn2   S    
C1    O3    A    
C24   C25   S    
C25   H19   S    
C11   C18   A    
C24   N1    S    
C32   H6    S    
C12   C29   S    
C1    C28   S    
O3    Zn2   S    
C19   C27   A    
C29   H3    S    
O4    Zn1   S    
C14   C15   A    
C13   C15   A    
C18   H24   S    
O6    Zn2   S    
C22   H8    S    
C16   C27   A    
C4    O8    A    
C4    O6    A    
C24   H21   S    
C5    C7    A    
C29   C31   D    
C27   H27   S    
C21   C22   S    
C20   C21   S    
C2    C32   S    
C10   H23   S    
C9    C11   A    
C2    H5    S    
C17   C23   A    
C3    O5    A    
C26   H15   S    
C4    C7    S    
C6    C8    A    
C22   H7    S    
C1    O1    A    
N1    Zn2   S    
C28   C30   D    
C3    O7    A    
O1    Zn1   S    
N2    Zn1   S    
C23   H26   S    
O5    Zn1   S    
O2    Zn2   S    
C20   N2    S    
C30   C31   S    
C12   O2    A    
C11   C14   A    
C14   C16   A    
C22   H9    S    
C30   H2    S    
C18   C23   A    
C2    N2    D    
O8    Zn1   S    
C26   H16   S    
C28   H4    S    
C7    C9    A    
C3    C8    S    
C26   H17   S    
C15   C17   A    
C6    C17   A    
C13   C19   A    
C25   H18   S    
C5    C16   A    
C6    H12   S    
C9    H22   S    
C25   C26   S    
C21   H11   S    
C20   H13   S    
C12   O4    A    
C19   H25   S    
C8    C10   A    
C20   H14   S    
C32   N1    D    
C21   H10   S    
C10   C13   A    
C5    H1    S    
