data_mof_unit_56354.cif
_audit_creation_date              2012-12-11T14:46:03-0500
_audit_creation_method            fapswitch 2.2
_symmetry_space_group_name_H-M    P1
_symmetry_Int_Tables_number       1
_space_group_crystal_system       triclinic
_cell_length_a                    10.945361
_cell_length_b                    10.889543
_cell_length_c                    18.805638
_cell_angle_alpha                 89.879127
_cell_angle_beta                  90.170225
_cell_angle_gamma                 119.914391
_cell_volume                      1942.81038624

loop_
_atom_site_label
_atom_site_type_symbol
_atom_type_description
_atom_site_fract_x
_atom_site_fract_y
_atom_site_fract_z
_atom_type_partial_charge
C1    C     C_R   0.865334 0.637200 0.603747 0.544051
C2    C     C_R   0.464102 0.646156 0.768891 -0.138639
C3    C     C_R   0.425868 0.629463 0.697900 -0.125508
C4    C     C_R   0.334813 0.675536 0.673340 0.029047
C5    C     C_R   0.833535 0.154211 0.819398 -0.025562
C6    C     C_R   0.083637 0.219587 0.823496 -0.087654
C7    C     C_R   0.204917 0.239539 0.789307 -0.118739
C8    C     C_R   0.202170 0.214293 0.716738 -0.128041
C9    C     C_R   0.080239 0.176140 0.677413 -0.083546
C10   C     C_R   0.958865 0.165418 0.709917 0.011091
C11   C     C_R   0.957794 0.177473 0.784984 -0.002297
C12   C     C_R   0.271948 0.633126 0.603486 0.539380
C13   C     C_R   0.712322 0.104756 0.704557 0.006385
C14   C     C_R   0.716433 0.136513 0.777037 0.014029
C15   C     C_R   0.584263 0.052263 0.666417 -0.071209
C16   C     C_R   0.471560 0.060139 0.695093 -0.128011
C17   C     C_R   0.482301 0.112820 0.763228 -0.109350
C18   C     C_R   0.602783 0.150926 0.803733 -0.019469
C19   C     C_R   0.839495 0.144045 0.669506 -0.040265
C20   C     C_R   0.732586 0.531759 0.714481 -0.107004
C21   C     C_R   0.724309 0.542625 0.787711 0.326300
C22   C     C_R   0.806714 0.673624 0.820515 0.036513
C23   C     C_R   0.860478 0.220347 0.601029 0.533555
C24   C     C_R   0.890250 0.795007 0.779240 -0.195116
C25   C     C_R   0.896862 0.784806 0.706819 -0.169422
C26   C     C_R   0.823086 0.652702 0.674354 -0.032324
C27   C     C_R   0.415536 0.615737 0.300814 -0.178666
C28   C     C_R   0.453348 0.632632 0.229784 -0.137674
C29   C     C_R   0.428562 0.722503 0.186617 -0.032236
C30   C     C_R   0.373492 0.802766 0.216269 -0.096548
C31   C     C_R   0.334043 0.785264 0.287480 0.358308
C32   C     C_R   0.349227 0.686417 0.329439 0.028045
C33   C     C_R   0.715374 0.118745 0.292304 -0.163431
C34   C     C_R   0.865062 0.638727 0.397664 0.549337
C35   C     C_R   0.707112 0.106161 0.219723 -0.195848
C36   C     C_R   0.826501 0.135371 0.179299 0.035120
C37   C     C_R   0.954814 0.174634 0.213185 0.348997
C38   C     C_R   0.964162 0.191588 0.286636 -0.101464
C39   C     C_R   0.845039 0.168198 0.325924 -0.036995
C40   C     C_R   0.886759 0.787926 0.296086 -0.105612
C41   C     C_R   0.879687 0.799412 0.223567 -0.109699
C42   C     C_R   0.805564 0.677510 0.181351 0.024099
C43   C     C_R   0.731072 0.544056 0.212695 -0.149628
C44   C     C_R   0.738662 0.532211 0.285843 -0.133386
C45   C     C_R   0.274638 0.636413 0.397083 0.566889
C46   C     C_R   0.821421 0.654110 0.327215 0.026843
C47   C     C_R   0.805904 0.103640 0.894376 0.527325
C48   C     C_R   0.455895 0.723501 0.889288 0.551239
C49   C     C_R   0.795156 0.694957 0.895577 0.578661
C50   C     C_R   0.804157 0.101337 0.104236 0.577020
C51   C     C_R   0.459586 0.728566 0.110947 0.556403
C52   C     C_R   0.795667 0.697967 0.106222 0.539743
C53   C     C_R   0.861964 0.227430 0.396454 0.548555
C54   C     C_R   0.284120 0.740046 0.720101 -0.129556
C55   C     C_R   0.326041 0.760228 0.790808 -0.111040
C56   C     C_R   0.415229 0.711680 0.815308 0.030640
Cr1   Cr    Cr6+3 0.791660 0.390250 0.499930 1.019002
Cr2   Cr    Cr6+3 0.098520 0.708290 0.500540 1.058245
Cr3   Cr    Cr6+3 0.109770 0.401430 0.499480 1.014284
Cr4   Cr    Cr6+3 0.874790 0.925890 0.000070 1.053222
Cr5   Cr    Cr6+3 0.574120 0.948670 0.999300 1.021949
Cr6   Cr    Cr6+3 0.551420 0.625320 0.000920 1.065934
H1    H     H_    0.208788 0.770836 0.702586 0.134619
H2    H     H_    0.376941 0.027669 0.663991 0.107409
H3    H     H_    0.574698 0.013329 0.612535 0.124738
H4    H     H_    0.396452 0.122452 0.785288 0.122355
H5    H     H_    0.673554 0.428316 0.689942 0.160893
H6    H     H_    0.950443 0.899287 0.802730 0.163581
H7    H     H_    0.966170 0.879044 0.676759 0.144695
H8    H     H_    0.430209 0.540392 0.332101 0.149168
H9    H     H_    0.496766 0.571044 0.207703 0.155650
H10   H     H_    0.355009 0.874214 0.183829 0.161117
H11   H     H_    0.285131 0.808941 0.826527 0.137869
H12   H     H_    0.621957 0.098897 0.321450 0.172878
H13   H     H_    0.605513 0.072268 0.195435 0.155631
H14   H     H_    0.065911 0.230637 0.311966 0.164438
H15   H     H_    0.949761 0.882820 0.327192 0.148211
H16   H     H_    0.933206 0.904406 0.200442 0.180914
H17   H     H_    0.669939 0.450045 0.180745 0.137325
H18   H     H_    0.687409 0.427235 0.309164 0.151285
H19   H     H_    0.528916 0.605100 0.788394 0.150063
H20   H     H_    0.462428 0.575482 0.662990 0.128024
H21   H     H_    0.300936 0.273647 0.819426 0.157341
H22   H     H_    0.295183 0.225493 0.690623 0.113249
H23   H     H_    0.090873 0.242510 0.879783 0.148372
H24   H     H_    0.081095 0.151780 0.621777 0.127420
H25   H     H_    0.607091 0.198158 0.854672 0.212149
O1    O     O_R   0.766500 0.250040 0.579790 -0.515005
O2    O     O_R   0.218690 0.701900 0.425960 -0.430151
O3    O     O_R   0.249490 0.516440 0.419420 -0.538452
O4    O     O_R   0.982880 0.281910 0.424890 -0.509290
O5    O     O_3   0.999980 0.499990 0.499980 -0.247005
O6    O     O_R   0.895110 0.806860 0.920430 -0.533359
O7    O     O_R   0.872260 0.046970 0.925000 -0.507356
O8    O     O_R   0.691430 0.085060 0.918550 -0.533795
O9    O     O_R   0.451490 0.822460 0.925250 -0.497219
O10   O     O_R   0.413330 0.603360 0.920440 -0.490961
O11   O     O_R   0.676110 0.626250 0.926750 -0.463341
O12   O     O_R   0.798570 0.516780 0.574780 -0.507260
O13   O     O_R   0.895350 0.809870 0.080950 -0.497583
O14   O     O_R   0.872490 0.049760 0.073800 -0.447923
O15   O     O_R   0.691680 0.088070 0.079070 -0.539992
O16   O     O_R   0.451720 0.825250 0.074050 -0.500228
O17   O     O_R   0.413580 0.606370 0.080960 -0.469129
O18   O     O_R   0.676340 0.629040 0.075550 -0.523475
O19   O     O_3   0.666780 0.833290 0.000090 -0.314365
O20   O     O_R   0.984000 0.732950 0.581090 -0.530440
O21   O     O_R   0.218600 0.700890 0.574760 -0.516975
O22   O     O_R   0.249390 0.515350 0.579940 -0.516738
O23   O     O_R   0.982790 0.280900 0.573700 -0.504933
O24   O     O_R   0.766600 0.251130 0.419260 -0.518016
O25   O     O_R   0.798660 0.517790 0.425980 -0.513420
O26   O     O_R   0.984100 0.734040 0.420570 -0.479715
F1    F     F_    0.633110 0.428143 0.826083 -0.679171
F2    F     F_    0.271959 0.857087 0.313322 -0.621131
F3    F     F_    0.070784 0.200288 0.175478 -0.619238

loop_
_geom_bond_atom_site_label_1
_geom_bond_atom_site_label_2
_ccdc_geom_bond_type
C7    H21   S    
C55   C56   A    
Cr1   O5    S    
C34   O25   A    
C41   C42   A    
C14   C18   A    
C20   H5    S    
C35   C36   A    
C1    O12   A    
C15   H3    S    
Cr5   O9    S    
C36   C50   S    
C7    C8    A    
Cr6   O18   S    
C38   H14   S    
C34   O26   A    
C40   C46   A    
C48   O10   A    
C5    C47   S    
C35   H13   S    
C17   H4    S    
C29   C30   A    
C6    H23   S    
C36   C37   A    
Cr5   O16   S    
C39   C53   S    
C5    C11   A    
C30   C31   A    
Cr1   O25   S    
C54   H1    S    
C43   H17   S    
C15   C16   A    
Cr1   O12   S    
Cr3   O23   S    
Cr2   O20   S    
C32   C45   S    
C33   C35   A    
C49   O11   A    
Cr6   O11   S    
C8    C9    A    
C53   O4    A    
Cr2   O26   S    
C34   C46   S    
C4    C12   S    
C45   O2    A    
C9    C10   A    
Cr4   O6    S    
C53   O24   A    
C21   C22   A    
C31   F2    S    
C12   O22   A    
C44   C46   A    
Cr6   O17   S    
C38   C39   A    
C13   C19   A    
C44   H18   S    
C24   C25   A    
C51   O16   A    
C6    C11   A    
C12   O21   A    
C16   C17   A    
Cr3   O4    S    
C51   O17   A    
C52   O13   A    
Cr3   O3    S    
C19   C23   S    
C43   C44   A    
C37   C38   A    
C45   O3    A    
C9    H24   S    
Cr6   O10   S    
C31   C32   A    
C10   C19   A    
C3    H20   S    
C17   C18   A    
C33   C39   A    
Cr5   O19   S    
C5    C14   A    
C27   H8    S    
C1    O20   A    
C22   C49   S    
C40   C41   A    
C52   O18   A    
C50   O15   A    
C23   O1    A    
C13   C15   A    
C1    C26   S    
C22   C24   A    
C28   H9    S    
C25   H7    S    
C42   C43   A    
Cr4   O14   S    
C41   H16   S    
Cr4   O19   S    
C29   C51   S    
C48   C56   S    
C23   O23   A    
C54   C55   A    
C28   C29   A    
C48   O9    A    
C4    C54   A    
C27   C32   A    
C8    H22   S    
C21   F1    S    
Cr4   O13   S    
C30   H10   S    
Cr5   O8    S    
C6    C7    A    
Cr6   O19   S    
C37   F3    S    
C18   H25   S    
Cr1   O1    S    
C2    C3    A    
C25   C26   A    
C2    C56   A    
Cr1   O24   S    
C20   C26   A    
Cr3   O22   S    
C47   O7    A    
Cr5   O15   S    
Cr2   O21   S    
Cr3   O5    S    
Cr2   O2    S    
C10   C11   A    
C24   H6    S    
C55   H11   S    
C33   H12   S    
C20   C21   A    
C50   O14   A    
C27   C28   A    
C47   O8    A    
C40   H15   S    
C2    H19   S    
C16   H2    S    
C49   O6    A    
C13   C14   A    
Cr2   O5    S    
C3    C4    A    
C42   C52   S    
Cr4   O7    S    
