data_mof_unit_25151.cif
_audit_creation_date              2012-12-10T18:43:09-0500
_audit_creation_method            fapswitch 2.2
_symmetry_space_group_name_H-M    P1
_symmetry_Int_Tables_number       1
_space_group_crystal_system       triclinic
_cell_length_a                    10.66279
_cell_length_b                    9.852125
_cell_length_c                    10.712034
_cell_angle_alpha                 89.738143
_cell_angle_beta                  89.690368
_cell_angle_gamma                 89.853602
_cell_volume                      1125.27959574

loop_
_atom_site_label
_atom_site_type_symbol
_atom_type_description
_atom_site_fract_x
_atom_site_fract_y
_atom_site_fract_z
_atom_type_partial_charge
C1    C     C_R   0.260348 0.500148 0.497452 0.876971
C2    C     C_R   0.935987 0.417633 0.403969 -0.051902
C3    C     C_R   0.872293 0.499276 0.491332 -0.061716
C4    C     C_R   0.128082 0.500666 0.490580 -0.068579
C5    C     C_R   0.935249 0.583425 0.574006 -0.191473
C6    C     C_R   0.063580 0.583724 0.573968 -0.197196
C7    C     C_R   0.591576 0.071329 0.560370 -0.056186
C8    C     C_R   0.408656 0.072398 0.439315 -0.045320
C9    C     C_R   0.591445 0.927555 0.560625 -0.057952
C10   C     C_R   0.408732 0.928645 0.439137 -0.059165
C11   C     C_1   0.672597 0.322469 0.868827 0.213723
C12   C     C_R   0.739779 0.499712 0.497522 0.868131
C13   C     C_1   0.552919 0.250877 0.112344 0.285978
C14   C     C_1   0.135607 0.344420 0.308318 0.161584
C15   C     C_1   0.868861 0.335757 0.314168 0.183061
C16   C     C_R   0.507079 0.499822 0.262255 0.943140
C17   C     C_R   0.502660 0.499408 0.737392 0.939431
C18   C     C_2   0.578048 0.405234 0.930582 -0.023578
C19   C     C_2   0.558482 0.388561 0.063621 -0.017567
C20   C     C_2   0.505789 0.495441 0.869732 -0.388603
C21   C     C_2   0.536971 0.500911 0.131686 -0.407642
C22   C     C_R   0.066251 0.419571 0.402654 -0.044228
H1    H     H_    0.438511 0.560232 0.917485 0.147263
H2    H     H_    0.547489 0.601027 0.089727 0.162933
H3    H     H_    0.884874 0.646351 0.640362 0.149219
H4    H     H_    0.112751 0.646581 0.640503 0.154414
H5    H     H_    0.665024 0.125156 0.608330 0.149814
H6    H     H_    0.335653 0.127043 0.390701 0.148551
H7    H     H_    0.664565 0.872791 0.609266 0.132589
H8    H     H_    0.335776 0.874767 0.390271 0.137214
N1    N     N_R   0.500000 0.857200 0.500000 -0.085136
N2    N     N_R   0.500000 0.142810 0.500000 -0.087127
N3    N     N_1   0.748337 0.256832 0.820066 -0.220526
N4    N     N_1   0.548394 0.140918 0.150613 -0.198150
N5    N     N_1   0.190643 0.285028 0.232745 -0.207143
N6    N     N_1   0.816068 0.270018 0.242447 -0.187434
O1    O     O_R   0.316770 0.614620 0.499990 -0.627039
O2    O     O_R   0.683230 0.614620 0.500010 -0.626883
O3    O     O_R   0.316800 0.385290 0.500000 -0.618993
O4    O     O_R   0.683200 0.385290 0.500000 -0.618711
O5    O     O_R   0.500000 0.614630 0.319080 -0.616103
O6    O     O_R   0.500000 0.614630 0.680920 -0.618298
O7    O     O_R   0.500030 0.385300 0.319080 -0.601763
O8    O     O_R   0.499970 0.385300 0.680920 -0.603431
Zn1   Zn    Zn3+2 0.500000 0.653120 0.500000 0.955826
Zn2   Zn    Zn3+2 0.500000 0.346880 0.500000 0.977999

loop_
_geom_bond_atom_site_label_1
_geom_bond_atom_site_label_2
_ccdc_geom_bond_type
C2    C22   A    
C11   C18   S    
C12   O4    A    
C16   C21   S    
C7    N2    A    
C9    H7    S    
C4    C22   A    
C10   H8    S    
C1    O3    A    
C20   H1    S    
C1    O1    A    
C1    C4    S    
C14   C22   S    
C2    C3    A    
C17   O8    A    
C13   N4    T    
O4    Zn2   S    
C2    C15   S    
C16   O7    A    
C6    H4    S    
O3    Zn2   S    
C5    H3    S    
C10   N1    A    
C4    C6    A    
C19   C21   D    
O8    Zn2   S    
C18   C20   D    
C12   O2    A    
C5    C6    A    
C8    H6    S    
O7    Zn2   S    
C9    N1    A    
O1    Zn1   S    
C8    N2    A    
C15   N6    T    
C11   N3    T    
C17   C20   S    
C7    H5    S    
C8    C10   A    
C18   C19   S    
N1    Zn1   S    
C21   H2    S    
C14   N5    T    
C7    C9    A    
C13   C19   S    
C17   O6    A    
O2    Zn1   S    
O5    Zn1   S    
C3    C12   S    
N2    Zn2   S    
C16   O5    A    
C3    C5    A    
O6    Zn1   S    
