data_mof_unit_47647.cif
_audit_creation_date              2012-12-11T21:09:32-0500
_audit_creation_method            fapswitch 2.2
_symmetry_space_group_name_H-M    P1
_symmetry_Int_Tables_number       1
_space_group_crystal_system       triclinic
_cell_length_a                    8.349607
_cell_length_b                    19.093624
_cell_length_c                    26.860658
_cell_angle_alpha                 99.07064
_cell_angle_beta                  92.853378
_cell_angle_gamma                 87.877082
_cell_volume                      4221.59622259

loop_
_atom_site_label
_atom_site_type_symbol
_atom_type_description
_atom_site_fract_x
_atom_site_fract_y
_atom_site_fract_z
_atom_type_partial_charge
Ba1   Ba    Ba6+2 0.160260 0.465850 0.521400 1.635212
Ba2   Ba    Ba6+2 0.649930 0.534160 0.478640 1.634636
C1    C     C_3   0.404167 0.336800 0.709973 -0.362465
C2    C     C_3   0.396803 0.341474 0.654017 0.329743
C3    C     C_3   0.467217 0.317114 0.398176 0.308751
C4    C     C_3   0.470150 0.237036 0.382586 -0.390541
C5    C     C_3   0.854220 0.718385 0.373119 0.352509
C6    C     C_3   0.841761 0.790666 0.355949 -0.362593
C7    C     C_3   0.362647 0.699393 0.346727 0.304455
C8    C     C_3   0.412605 0.713311 0.295625 -0.358229
C9    C     C_R   0.953597 0.801783 0.522594 -0.154760
C10   C     C_R   0.989207 0.727616 0.516333 0.057870
C11   C     C_R   0.127676 0.811285 0.455133 -0.153044
C12   C     C_3   0.972307 0.271439 0.656977 0.486720
C13   C     C_R   0.197171 0.745294 0.461450 -0.000363
C14   C     C_R   0.675727 0.185845 0.539729 -0.120540
C15   C     C_R   0.613900 0.254703 0.538603 0.035384
C16   C     C_R   0.841125 0.198847 0.471031 -0.156340
C17   C     C_R   0.815423 0.273130 0.481792 0.068709
C18   C     C_R   0.013857 0.845518 0.488978 0.002038
C19   C     C_R   0.116634 0.701064 0.487115 -0.246012
C20   C     C_R   0.784573 0.153251 0.503470 0.001114
C21   C     C_R   0.693763 0.299893 0.513411 -0.225351
C22   C     C_R   0.212407 0.964999 0.459587 -0.078940
C23   C     C_3   0.073959 0.215195 0.682595 -0.157996
C24   C     C_R   0.300541 0.017104 0.443723 -0.076583
C25   C     C_R   0.255902 0.087349 0.457571 -0.066559
C26   C     C_R   0.116605 0.104062 0.483269 -0.084269
C27   C     C_R   0.002578 0.052597 0.486612 0.016677
C28   C     C_R   0.056218 0.979208 0.478137 0.037795
C29   C     C_R   0.842512 0.074277 0.500191 -0.021556
C30   C     C_R   0.740233 0.019090 0.508697 0.036994
C31   C     C_R   0.794406 0.945925 0.500817 0.013972
C32   C     C_R   0.955378 0.924183 0.488681 -0.020030
C33   C     C_R   0.580682 0.033377 0.523965 -0.080456
C34   C     C_3   0.842395 0.624782 0.634574 0.298904
C35   C     C_R   0.489853 0.981624 0.538909 -0.087342
C36   C     C_R   0.535557 0.911407 0.525660 -0.076009
C37   C     C_R   0.679277 0.894478 0.502157 -0.072942
C38   C     C_R   0.306271 0.456364 0.176897 0.573473
C39   C     C_R   0.182094 0.571490 0.176341 0.579718
C40   C     C_2   0.032524 0.528549 0.269235 -0.070605
C41   C     C_3   0.995805 0.520590 0.322906 -0.054924
C42   C     C_1   0.279197 0.494308 0.337279 0.018057
C43   C     C_2   0.315086 0.499966 0.290844 -0.100338
C44   C     C_2   0.184837 0.516494 0.253524 0.211300
C45   C     C_3   0.881458 0.637050 0.691145 -0.350776
C46   C     C_R   0.320461 0.513322 0.102224 -0.093340
C47   C     C_R   0.367479 0.456443 0.128513 -0.036358
C48   C     C_R   0.475190 0.402587 0.105534 0.070940
C49   C     C_R   0.227382 0.570866 0.126407 -0.027513
C50   C     C_2   0.146993 0.524549 0.356499 -0.290666
C51   C     C_2   0.656077 0.481662 0.639690 -0.276413
C52   C     C_R   0.486512 0.449978 0.975030 0.024771
C53   C     C_R   0.374000 0.571101 0.976019 0.020034
C54   C     C_R   0.451002 0.509386 0.950199 0.050077
C55   C     C_R   0.549849 0.387371 0.946620 -0.107865
C56   C     C_3   0.981468 0.370785 0.365065 0.307150
C57   C     C_R   0.586179 0.384758 0.896516 -0.065055
C58   C     C_R   0.560496 0.444329 0.872384 -0.019478
C59   C     C_R   0.492638 0.506800 0.899010 -0.083171
C60   C     C_R   0.465867 0.566414 0.874448 -0.034669
C61   C     C_R   0.509714 0.563043 0.823840 0.594964
C62   C     C_R   0.598494 0.441700 0.821698 0.571639
C63   C     C_2   0.746451 0.462559 0.726716 -0.081050
C64   C     C_3   0.752761 0.435836 0.671059 -0.044476
C65   C     C_1   0.526071 0.515556 0.658482 0.015403
C66   C     C_2   0.490283 0.520901 0.706745 -0.119486
C67   C     C_3   0.007199 0.343206 0.309563 -0.373211
C68   C     C_2   0.610374 0.496126 0.744518 0.195626
C69   C     C_R   0.454711 0.454130 0.026954 0.003342
C70   C     C_R   0.366258 0.512912 0.051643 0.046815
C71   C     C_R   0.323118 0.571224 0.026073 0.024506
C72   C     C_R   0.514242 0.402097 0.055395 -0.103291
C73   C     C_R   0.182699 0.627219 0.100467 -0.062573
C74   C     C_R   0.350757 0.630505 0.950586 -0.101723
C75   C     C_R   0.396415 0.628197 0.901079 -0.062649
C76   C     C_R   0.229142 0.627478 0.051494 -0.102075
C77   C     C_3   0.335072 0.682691 0.589383 0.330036
C78   C     C_3   0.316407 0.763213 0.605550 -0.203007
H1    H     H_    0.295178 0.377054 0.645499 0.127183
H2    H     H_    0.829205 0.688794 0.708763 0.113657
H3    H     H_    0.831588 0.594467 0.708757 0.081224
H4    H     H_    0.013595 0.637030 0.698447 0.141306
H5    H     H_    0.098686 0.385619 0.384055 0.028539
H6    H     H_    0.897969 0.417649 0.368469 0.035319
H7    H     H_    0.079648 0.292824 0.305916 0.144359
H8    H     H_    0.072405 0.381824 0.292102 0.083710
H9    H     H_    0.889664 0.333431 0.288857 0.109332
H10   H     H_    0.216269 0.661843 0.576122 -0.014782
H11   H     H_    0.418899 0.671386 0.558170 0.073780
H12   H     H_    0.298615 0.311649 0.720404 0.143079
H13   H     H_    0.230902 0.774891 0.636433 0.116999
H14   H     H_    0.262725 0.786422 0.573017 0.030222
H15   H     H_    0.506555 0.366249 0.645943 -0.045023
H16   H     H_    0.404470 0.390689 0.732060 0.105940
H17   H     H_    0.592172 0.334136 0.407626 0.019117
H18   H     H_    0.394700 0.330028 0.432175 0.066074
H19   H     H_    0.544569 0.221835 0.349227 0.132022
H20   H     H_    0.522058 0.211006 0.414120 0.052446
H21   H     H_    0.346231 0.218435 0.373096 0.122209
H22   H     H_    0.511161 0.305935 0.720690 0.143530
H23   H     H_    0.034003 0.160525 0.668589 0.064732
H24   H     H_    0.759732 0.716256 0.400487 0.103073
H25   H     H_    0.973681 0.711663 0.391433 -0.042214
H26   H     H_    0.847824 0.833308 0.389150 0.071126
H27   H     H_    0.941780 0.796282 0.331242 0.119597
H28   H     H_    0.725743 0.796725 0.334785 0.141263
H29   H     H_    0.234215 0.715980 0.350787 -0.020225
H30   H     H_    0.377586 0.641499 0.347553 0.049452
H31   H     H_    0.335387 0.683576 0.265298 0.121913
H32   H     H_    0.539216 0.695440 0.289776 0.154597
H33   H     H_    0.399868 0.770859 0.293427 0.115525
H34   H     H_    0.873115 0.823665 0.551763 0.067044
H35   H     H_    0.160160 0.833048 0.422485 0.064666
H36   H     H_    0.634462 0.158852 0.568594 0.062862
H37   H     H_    0.913832 0.178035 0.439544 0.069851
H38   H     H_    0.159421 0.646790 0.486600 0.062569
H39   H     H_    0.655686 0.355128 0.516445 0.063212
H40   H     H_    0.278676 0.916525 0.460095 0.075824
H41   H     H_    0.415279 0.003557 0.427037 0.079132
H42   H     H_    0.334795 0.128696 0.451624 0.086940
H43   H     H_    0.097979 0.157924 0.500200 0.132833
H44   H     H_    0.515893 0.081950 0.521303 0.076311
H45   H     H_    0.372775 0.995259 0.553909 0.077701
H46   H     H_    0.453377 0.870764 0.530204 0.096046
H47   H     H_    0.701336 0.841008 0.484556 0.126476
H48   H     H_    0.437524 0.490769 0.279147 0.109131
H49   H     H_    0.838925 0.444827 0.752140 0.115627
H50   H     H_    0.634566 0.335307 0.876616 0.117262
H51   H     H_    0.567680 0.338359 0.961615 0.066400
H52   H     H_    0.198944 0.214806 0.670778 0.146582
H53   H     H_    0.599621 0.361879 0.039763 0.064908
H54   H     H_    0.934453 0.536935 0.242534 0.099239
H55   H     H_    0.110360 0.671768 0.118013 0.120796
H56   H     H_    0.300360 0.680455 0.968289 0.068247
H57   H     H_    0.375835 0.675287 0.883537 0.119146
H58   H     H_    0.372456 0.540660 0.718662 0.119480
H59   H     H_    0.185987 0.672130 0.034138 0.068120
H60   H     H_    0.146193 0.549666 0.395697 0.069820
H61   H     H_    0.676034 0.474100 0.599563 0.078795
H62   H     H_    0.710873 0.622153 0.627800 0.004940
H63   H     H_    0.901682 0.573822 0.618307 0.077800
N1    N     N_R   0.222402 0.514711 0.201047 -0.424059
N2    N     N_R   0.574159 0.500826 0.797658 -0.422847
O1    O     O_2   0.103290 0.325410 0.465600 -0.471646
O2    O     O_3   0.390098 0.651108 0.630724 -0.633626
O3    O     O_3   0.044248 0.338463 0.673429 -0.624634
O4    O     O_2   0.707020 0.674640 0.534420 -0.473415
O5    O     O_3   0.952550 0.585840 0.530020 -0.484659
O6    O     O_3   0.436140 0.628890 0.444040 -0.462059
O7    O     O_3   0.897697 0.681974 0.614275 -0.640241
O8    O     O_3   0.350480 0.462320 0.439870 -0.480308
O9    O     O_3   0.840680 0.592440 0.417430 -0.487225
O10   O     O_2   0.667361 0.556189 0.332244 -0.488162
O11   O     O_3   0.836106 0.665468 0.331015 -0.594965
O12   O     O_3   0.857760 0.414170 0.470020 -0.482607
O13   O     O_3   0.459840 0.537690 0.560170 -0.492458
O14   O     O_2   0.582520 0.462630 0.379680 -0.457801
O15   O     O_3   0.399841 0.349567 0.358211 -0.632295
O16   O     O_2   0.522888 0.753172 0.482874 -0.514493
O17   O     O_3   0.459236 0.738125 0.384981 -0.599966
O18   O     O_2   0.323497 0.403697 0.197310 -0.613376
O19   O     O_2   0.651418 0.385995 0.798722 -0.635889
O20   O     O_2   0.107813 0.622816 0.197977 -0.601149
O21   O     O_2   0.491754 0.615715 0.803315 -0.600263
O22   O     O_3   0.374170 0.371120 0.556000 -0.484089
O23   O     O_2   0.284705 0.242181 0.528630 -0.519641
O24   O     O_3   0.913677 0.317024 0.385878 -0.637723
O25   O     O_3   0.382297 0.274055 0.624516 -0.632174
O26   O     O_2   0.227790 0.537410 0.620340 -0.455378
O27   O     O_3   0.969630 0.407570 0.582610 -0.466867
O28   O     O_2   0.063644 0.473811 0.672910 -0.496552
P1    P     P_3+3 0.926760 0.336170 0.451740 0.981717
P2    P     P_3+3 0.399470 0.558680 0.614150 0.981756
P3    P     P_3+3 0.956235 0.412338 0.648512 0.925374
P4    P     P_3+3 0.883550 0.663840 0.548300 0.973236
P5    P     P_3+3 0.835476 0.582644 0.351211 0.966331
P6    P     P_3+3 0.415747 0.283441 0.562159 0.898271
P7    P     P_3+3 0.400990 0.441692 0.376743 0.961651
P8    P     P_3+3 0.401197 0.718202 0.442598 0.916116
C79   C     C_3   0.475833 0.800246 0.621270 -0.196127
C80   C     C_3   0.538002 0.791834 0.674526 -0.337004
H64   H     H_    0.443777 0.808330 0.702114 0.129875
H65   H     H_    0.577623 0.736342 0.676420 0.164529
H66   H     H_    0.643045 0.825887 0.685245 0.103802
H67   H     H_    0.568797 0.780824 0.593841 0.144094
H68   H     H_    0.455701 0.857942 0.620535 0.097774
N3    N     N_3   0.978068 0.253541 0.601925 -0.500990
H69   H     H_    0.978319 0.198556 0.590841 0.135646
H70   H     H_    0.084901 0.271110 0.590754 0.241826
C81   C     C_3   0.795142 0.271735 0.671724 -0.165076
C82   C     C_3   0.723769 0.198053 0.670252 -0.470538
H71   H     H_    0.774856 0.158176 0.640355 0.125194
H72   H     H_    0.744509 0.178601 0.706765 0.126191
H73   H     H_    0.592216 0.200685 0.663137 0.166881
H74   H     H_    0.782794 0.302746 0.709993 0.122351
H75   H     H_    0.722749 0.298347 0.644340 0.064862
C83   C     C_3   0.561174 0.347201 0.133233 -0.157885
C84   C     C_3   0.684596 0.380971 0.173027 -0.372378
H76   H     H_    0.776479 0.407706 0.154785 0.121037
H77   H     H_    0.627597 0.420527 0.202059 0.149836
H78   H     H_    0.745530 0.339155 0.192137 0.120753
H79   H     H_    0.475420 0.315475 0.149818 0.163746
H80   H     H_    0.627539 0.307220 0.106636 0.076652
C85   C     C_3   0.072277 0.227723 0.740917 -0.209016
C86   C     C_3   0.205443 0.184154 0.763840 -0.442945
H81   H     H_    0.190071 0.126696 0.750140 0.137814
H82   H     H_    0.325079 0.199466 0.753612 0.139081
H83   H     H_    0.200287 0.193704 0.805599 0.135632
H84   H     H_    0.085024 0.284661 0.756627 0.147816
H85   H     H_    0.956822 0.212113 0.753699 0.124144

loop_
_geom_bond_atom_site_label_1
_geom_bond_atom_site_label_2
_ccdc_geom_bond_type
C38   O18   D    
Ba2   O5    S    
O22   P6    S    
C53   C54   A    
C56   H5    S    
C57   H50   S    
C62   N2    Am   
C60   C75   A    
C66   H58   S    
O14   P7    D    
C62   O19   D    
C76   H59   S    
C42   P7    S    
C74   H56   S    
C26   H43   S    
C5    C6    S    
C41   P5    S    
C43   C44   S    
C24   C25   A    
C31   C37   A    
C2    O25   S    
C26   C27   A    
C33   C35   A    
C34   H63   S    
C75   H57   S    
Ba1   Ba2   S    
C48   C72   A    
C21   H39   S    
C3    C4    S    
C73   H55   S    
C41   C50   S    
C45   H2    S    
C78   C79   S    
Ba1   O22   S    
C43   H48   S    
C38   C47   A    
C72   H53   S    
C12   O3    S    
C83   H80   S    
C34   C45   S    
C16   C17   A    
C40   C44   D    
C4    H21   S    
O7    P4    S    
N3    H70   S    
C9    H34   S    
C34   H62   S    
C79   C80   S    
O15   P7    S    
C77   H10   S    
C12   N3    S    
O11   P5    S    
C85   H84   S    
C61   O21   D    
Ba1   P2    S    
C52   C69   A    
C65   P2    S    
C84   H76   S    
C82   H72   S    
C39   O20   D    
C86   H83   S    
C71   C76   A    
C5    H25   S    
C8    H32   S    
C1    H16   S    
Ba2   P4    S    
C45   H3    S    
C51   H61   S    
C7    C8    S    
C77   H11   S    
C59   C60   A    
C67   H7    S    
O10   P5    D    
O12   P1    S    
C12   C81   S    
C15   P6    S    
Ba2   O4    S    
C10   P4    S    
O8    P7    S    
C57   C58   A    
Ba2   O9    S    
C19   H38   S    
C64   P3    S    
Ba1   O1    S    
C7    O17   S    
C46   C70   A    
C67   H9    S    
C14   H36   S    
C36   H46   S    
C25   H42   S    
O6    P8    S    
C35   H45   S    
C46   C49   A    
C7    H29   S    
Ba1   P1    S    
C52   C54   A    
C9    C18   A    
C22   H40   S    
C37   H47   S    
C20   C29   S    
C2    H1    S    
O27   P3    S    
C65   C66   D    
C30   C33   A    
C8    H31   S    
C56   O24   S    
C74   C75   A    
O17   P8    S    
C13   P8    S    
C80   H66   S    
C28   C32   A    
C85   C86   S    
C14   C15   A    
C44   N1    S    
C6    H28   S    
C45   H4    S    
O26   P2    D    
C10   C19   A    
Ba1   O26   S    
C86   H81   S    
C30   C31   A    
C58   C59   A    
C4    H20   S    
C35   C36   A    
O24   P1    S    
C17   C21   A    
C80   H64   S    
C27   C28   A    
C56   H6    S    
C2    H15   S    
C23   C85   S    
C63   H49   S    
C29   C30   A    
Ba2   O13   S    
C3    O15   S    
C60   C61   A    
O4    P4    D    
C31   C32   A    
Ba1   O5    S    
C68   N2    S    
C15   C21   A    
C81   H74   S    
C5    O11   S    
Ba1   O8    S    
C51   C64   S    
C8    H33   S    
C16   H37   S    
C11   H35   S    
C67   H8    S    
C39   N1    Am   
O5    P4    S    
C53   C74   A    
C1    H22   S    
C66   C68   S    
C46   C47   A    
C24   H41   S    
C3    H17   S    
C63   C64   S    
Ba2   O8    S    
C81   H75   S    
C5    H24   S    
O9    P5    S    
C83   H79   S    
C47   C48   A    
C40   C41   S    
Ba2   O14   S    
C78   H14   S    
C1    C2    S    
O3    P3    S    
C6    H27   S    
C42   C43   D    
O28   P3    D    
Ba2   O6    S    
C84   H78   S    
C33   H44   S    
C14   C20   A    
C11   C18   A    
C16   C20   A    
C55   H51   S    
C23   H23   S    
C22   C24   A    
C49   C73   A    
C70   C71   A    
C6    H26   S    
C42   C50   D    
C69   C72   A    
C77   O2    S    
C48   C83   S    
C56   C67   S    
C7    H30   S    
O23   P6    D    
Ba1   O27   S    
C38   N1    Am   
C40   H54   S    
O25   P6    S    
C58   C62   A    
C81   C82   S    
C11   C13   A    
C17   P1    S    
C18   C32   S    
C69   C70   A    
C27   C29   A    
C4    H19   S    
C82   H73   S    
Ba1   O13   S    
C36   C37   A    
Ba2   O12   S    
O1    P1    D    
Ba1   O12   S    
C50   H60   S    
C39   C49   A    
O2    P2    S    
C79   H67   S    
C12   C23   S    
O16   P8    D    
N3    H69   S    
C51   C65   D    
C73   C76   A    
C22   C28   A    
C55   C57   A    
C83   C84   S    
C77   C78   S    
C53   C71   A    
C85   H85   S    
O13   P2    S    
C13   C19   A    
C3    H18   S    
C80   H65   S    
C84   H77   S    
C82   H71   S    
C25   C26   A    
C86   H82   S    
C54   C59   A    
C1    H12   S    
C78   H13   S    
C79   H68   S    
C23   H52   S    
C61   N2    Am   
C34   O7    S    
C63   C68   D    
C9    C10   A    
C52   C55   A    
