data_mof_unit_51641.cif
_audit_creation_date              2012-10-26T19:20:55-0400
_audit_creation_method            fapswitch 2.2
_symmetry_space_group_name_H-M    P1
_symmetry_Int_Tables_number       1
_space_group_crystal_system       triclinic
_cell_length_a                    9.829433
_cell_length_b                    11.048765
_cell_length_c                    13.442166
_cell_angle_alpha                 94.158482
_cell_angle_beta                  81.699424
_cell_angle_gamma                 111.423102
_cell_volume                      1344.45040673

loop_
_atom_site_label
_atom_site_type_symbol
_atom_type_description
_atom_site_fract_x
_atom_site_fract_y
_atom_site_fract_z
_atom_type_partial_charge
C1    C     C_R   0.556683 0.745519 0.507166 0.556094
C2    C     C_R   0.376702 0.487532 0.799979 -0.003972
C3    C     C_2   0.588720 0.884857 0.510884 -0.130816
C4    C     C_R   0.423714 0.493767 0.690675 0.535549
C5    C     C_2   0.484612 0.930537 0.497575 -0.160847
C6    C     C_2   0.411561 0.115203 0.488502 -0.133302
C7    C     C_2   0.515974 0.069564 0.501147 -0.158547
C8    C     C_2   0.920210 0.488811 0.491530 -0.003595
C9    C     C_2   0.079538 0.516162 0.501963 0.056284
C10   C     C_R   0.443393 0.254504 0.492662 0.560935
C11   C     C_R   0.577923 0.513492 0.309754 0.544520
C12   C     C_R   0.438003 0.501264 0.971982 0.036179
C13   C     C_R   0.803229 0.659673 0.068609 -0.133147
C14   C     C_R   0.625642 0.537475 0.202435 -0.003056
C15   C     C_R   0.229443 0.414572 0.834193 -0.133543
C16   C     C_R   0.185188 0.387676 0.935436 -0.142181
C17   C     C_R   0.287885 0.427715 0.003495 -0.120163
C18   C     C_3   0.105691 0.312337 0.311909 -0.265874
C19   C     C_R   0.479305 0.540657 0.870414 0.027711
C20   C     C_R   0.548226 0.538211 0.038025 0.032209
C21   C     C_R   0.693529 0.622619 0.004327 0.050531
C22   C     C_R   0.726991 0.671859 0.907767 -0.142341
C23   C     C_R   0.621185 0.633168 0.842313 -0.122429
C24   C     C_R   0.518789 0.493614 0.136715 -0.128568
C25   C     C_R   0.769225 0.617923 0.167525 -0.138573
Cu1   Cu    Cu3+1 0.362000 0.479240 0.482530 0.936945
Cu2   Cu    Cu3+1 0.638000 0.520760 0.517470 0.924225
H1    H     H_    0.853059 0.653107 0.217684 0.128228
H2    H     H_    0.412391 0.425937 0.165462 0.103035
H3    H     H_    0.148746 0.374796 0.782110 0.132675
H4    H     H_    0.245118 0.401718 0.080469 0.091826
H5    H     H_    0.071035 0.331620 0.960992 0.117228
H6    H     H_    0.651652 0.679562 0.770258 0.140512
H7    H     H_    0.625637 0.134986 0.514425 0.159767
H8    H     H_    0.074783 0.252393 0.458496 0.267624
H9    H     H_    0.020296 0.223488 0.285112 0.110973
H10   H     H_    0.214220 0.301108 0.293808 0.163273
H11   H     H_    0.105772 0.397253 0.272323 0.145876
H12   H     H_    0.375080 0.865130 0.484014 0.152387
H13   H     H_    0.302118 0.049528 0.475154 0.094961
H14   H     H_    0.698045 0.950534 0.524487 0.098919
H15   H     H_    0.135665 0.599615 0.547718 0.103234
H16   H     H_    0.866397 0.415926 0.437213 0.180311
H17   H     H_    0.898905 0.622831 0.593517 0.196160
H18   H     H_    0.835684 0.740866 0.882588 0.103204
H19   H     H_    0.914234 0.724177 0.043202 0.107411
N1    N     N_2   0.845330 0.551960 0.543750 -0.370057
N2    N     N_2   0.154690 0.448120 0.456210 -0.135553
N3    N     N_2   0.072410 0.328029 0.419092 -0.441221
O1    O     O_R   0.426290 0.668220 0.490680 -0.504863
O2    O     O_R   0.659360 0.703290 0.520190 -0.497861
O3    O     O_R   0.326580 0.473880 0.629020 -0.505222
O4    O     O_R   0.559660 0.508940 0.658530 -0.491779
O5    O     O_R   0.340640 0.296710 0.479810 -0.503240
O6    O     O_R   0.573710 0.331780 0.509320 -0.491661
O7    O     O_R   0.440340 0.491060 0.341470 -0.496466
O8    O     O_R   0.673420 0.526120 0.370980 -0.499909

loop_
_geom_bond_atom_site_label_1
_geom_bond_atom_site_label_2
_ccdc_geom_bond_type
C12   C17   A    
C6    C10   S    
C2    C4    S    
Cu2   O4    S    
H8    N3    S    
C6    C7    D    
C2    C15   A    
Cu1   O3    S    
C4    O4    A    
C16   H5    S    
C1    O1    A    
C19   C23   A    
H17   N1    S    
Cu1   N2    S    
C12   C20   A    
C5    H12   S    
Cu1   Cu2   S    
C8    N1    D    
C13   C21   A    
C8    H16   S    
C21   C22   A    
C25   H1    S    
C10   O6    A    
C1    O2    A    
C13   C25   A    
C9    H15   S    
C16   C17   A    
C4    O3    A    
C17   H4    S    
Cu1   O5    S    
C12   C19   A    
N2    N3    S    
C11   C14   S    
C18   H10   S    
Cu2   O2    S    
C6    H13   S    
Cu1   O1    S    
C14   C25   A    
C18   H11   S    
C13   H19   S    
C10   O5    A    
C7    H7    S    
Cu2   O6    S    
Cu2   N1    S    
C15   C16   A    
C3    C5    D    
C9    N2    D    
C24   H2    S    
C22   H18   S    
C20   C21   A    
C15   H3    S    
Cu2   O8    S    
C14   C24   A    
C5    C7    S    
C22   C23   A    
C3    H14   S    
C1    C3    S    
C2    C19   A    
C11   O8    A    
C18   H9    S    
C11   O7    A    
C20   C24   A    
C18   N3    S    
C8    C9    S    
C23   H6    S    
Cu1   O7    S    
