data_mof_unit_11721.cif
_audit_creation_date              2013-03-05T16:01:37-0500
_audit_creation_method            fapswitch 2.2
_symmetry_space_group_name_H-M    P1
_symmetry_Int_Tables_number       1
_space_group_crystal_system       triclinic
_cell_length_a                    14.668617
_cell_length_b                    14.774107
_cell_length_c                    23.484338
_cell_angle_alpha                 76.592876
_cell_angle_beta                  102.740672
_cell_angle_gamma                 115.333619
_cell_volume                      4431.81167339

loop_
_atom_site_label
_atom_site_type_symbol
_atom_site_description
_atom_site_fract_x
_atom_site_fract_y
_atom_site_fract_z
_atom_type_partial_charge
O1    O     O_R   0.977900 0.338110 0.520250 -0.580567
O2    O     O_R   0.022100 0.661890 0.479750 -0.581726
O3    O     O_R   0.839850 0.379180 0.494310 -0.566940
O4    O     O_R   0.160150 0.620820 0.505690 -0.585607
C1    C     C_R   0.879668 0.311980 0.510160 0.831011
C2    C     C_R   0.120028 0.687836 0.490232 0.837634
O5    O     O_R   0.069020 0.479430 0.595090 -0.588374
O6    O     O_R   0.930980 0.520570 0.404910 -0.592105
O7    O     O_R   0.930970 0.520500 0.569150 -0.570148
O8    O     O_R   0.069030 0.479500 0.430850 -0.566463
C3    C     C_R   0.999876 0.500313 0.608897 0.817228
C4    C     C_R   0.999893 0.499491 0.391179 0.799957
Cu1   Cu    Cu3+1 0.081740 0.475680 0.515360 0.983342
Cu2   Cu    Cu3+1 0.918260 0.524320 0.484640 0.986324
C5    C     C_R   0.063104 0.581587 0.116799 0.547178
C6    C     C_R   0.934198 0.416356 0.883063 0.545017
N1    N     N_R   0.998453 0.497134 0.148506 -0.471554
N2    N     N_R   0.998173 0.501175 0.851343 -0.473195
C7    C     C_R   0.933911 0.413346 0.122998 0.543693
C8    C     C_R   0.061956 0.585334 0.876594 0.550689
C9    C     C_R   0.932852 0.412239 0.063267 -0.017136
C10   C     C_R   0.063389 0.586268 0.936389 -0.021622
C11   C     C_R   0.998343 0.498717 0.029984 -0.014311
C12   C     C_R   0.998159 0.499607 0.969728 -0.014388
C13   C     C_R   0.064015 0.584315 0.056808 -0.019475
C14   C     C_R   0.932782 0.413821 0.942961 -0.018111
C15   C     C_R   0.867782 0.327189 0.036086 -0.144972
C16   C     C_R   0.128496 0.671277 0.963571 -0.142285
C17   C     C_R   0.867829 0.327931 0.976571 -0.145303
C18   C     C_R   0.128903 0.670262 0.023179 -0.144824
O9    O     O_2   0.126823 0.662358 0.143393 -0.513118
O10   O     O_2   0.871914 0.335033 0.856593 -0.515297
O11   O     O_2   0.870280 0.331798 0.155199 -0.518165
O12   O     O_2   0.124242 0.667434 0.844011 -0.502793
H1    H     H_    0.816688 0.259768 0.060691 0.196752
H2    H     H_    0.179421 0.738782 0.938927 0.197828
H3    H     H_    0.816809 0.261056 0.957021 0.196736
H4    H     H_    0.180105 0.737051 0.042759 0.196471
C19   C     C_R   0.044774 0.446034 0.775265 -0.082854
C20   C     C_R   0.028195 0.429312 0.253760 -0.074833
H5    H     H_    0.079713 0.403008 0.809475 0.150503
H6    H     H_    0.051618 0.376524 0.242046 0.162481
C21   C     C_R   0.045643 0.446126 0.716014 -0.186989
C22   C     C_R   0.028127 0.429647 0.313091 -0.204373
H7    H     H_    0.081020 0.402377 0.705173 0.161368
H8    H     H_    0.048727 0.375061 0.346627 0.169990
C23   C     C_R   0.999873 0.501090 0.671296 -0.050320
C24   C     C_R   0.999005 0.498305 0.328865 -0.028010
C25   C     C_R   0.954727 0.557162 0.686722 -0.193634
C26   C     C_R   0.966983 0.564684 0.284597 -0.192430
H9    H     H_    0.920759 0.601554 0.652978 0.216062
H10   H     H_    0.943353 0.617679 0.295939 0.157153
C27   C     C_R   0.954348 0.557378 0.746018 -0.089064
C28   C     C_R   0.966656 0.564085 0.225284 -0.080864
H11   H     H_    0.919181 0.600673 0.757532 0.171133
H12   H     H_    0.942241 0.615887 0.191442 0.154296
C29   C     C_R   0.999023 0.501507 0.790413 0.336091
C30   C     C_R   0.997857 0.496853 0.209599 0.336346
C31   C     C_R   0.810873 0.204453 0.523235 -0.125250
C32   C     C_R   0.186608 0.796055 0.487585 -0.121024
C33   C     C_R   0.778593 0.035606 0.578462 0.344009
C34   C     C_R   0.207425 0.972128 0.468198 0.352302
C35   C     C_R   0.846664 0.133917 0.559557 -0.215783
C36   C     C_R   0.145261 0.869338 0.469010 -0.214262
C37   C     C_R   0.706595 0.174879 0.504072 -0.162327
C38   C     C_R   0.290953 0.825975 0.506776 -0.171410
C39   C     C_R   0.634867 0.083285 0.529720 0.061482
C40   C     C_R   0.354421 0.927889 0.511321 0.072662
C41   C     C_R   0.672043 0.010943 0.565414 0.001445
C42   C     C_R   0.313449 0.001874 0.486902 0.005557
C43   C     C_R   0.527589 0.060298 0.519650 0.010557
C44   C     C_R   0.459287 0.958140 0.535752 0.013662
C45   C     C_R   0.498033 0.891007 0.576854 -0.054607
C46   C     C_R   0.484321 0.133927 0.495337 -0.017926
C47   C     C_R   0.602907 0.917902 0.590221 -0.172452
C48   C     C_R   0.379315 0.103655 0.479958 -0.180706
H13   H     H_    0.630355 0.866775 0.622656 0.224456
H14   H     H_    0.349606 0.161376 0.460902 0.222748
H15   H     H_    0.322573 0.769147 0.517252 0.157113
H16   H     H_    0.683559 0.225134 0.468807 0.165317
H17   H     H_    0.064093 0.846850 0.455249 0.203117
H18   H     H_    0.927736 0.154979 0.572982 0.202647
N3    N     N_R   0.795430 0.560810 0.461550 -0.202476
N4    N     N_R   0.204570 0.439190 0.538450 -0.196873
C49   C     C_R   0.710942 0.657116 0.393403 -0.092429
C50   C     C_R   0.292378 0.346720 0.607545 -0.093406
C51   C     C_R   0.794738 0.631039 0.413050 0.045201
C52   C     C_R   0.204589 0.365675 0.585206 0.055827
C53   C     C_R   0.720198 0.521019 0.496120 0.064073
C54   C     C_R   0.286386 0.491075 0.508806 0.088559
C55   C     C_R   0.635363 0.548676 0.481679 -0.022095
C56   C     C_R   0.373880 0.467935 0.524385 0.007748
C57   C     C_R   0.628251 0.612337 0.426829 0.050178
C58   C     C_R   0.379507 0.400900 0.577802 0.045015
C59   C     C_R   0.553265 0.507222 0.516704 0.027702
C60   C     C_R   0.457607 0.513444 0.490566 0.021928
C61   C     C_R   0.449196 0.564231 0.431430 -0.059332
C62   C     C_R   0.561193 0.456160 0.575909 -0.008474
C63   C     C_R   0.536390 0.623412 0.404495 -0.179524
C64   C     C_R   0.473153 0.394403 0.601815 -0.170885
H19   H     H_    0.527775 0.667825 0.361700 0.212531
H20   H     H_    0.481057 0.348696 0.644198 0.221290
H21   H     H_    0.283456 0.552889 0.474537 0.125510
H22   H     H_    0.725674 0.463905 0.532894 0.176052
H23   H     H_    0.137733 0.326285 0.607558 0.141116
H24   H     H_    0.858284 0.663529 0.388024 0.143616
N5    N     N_R   0.818999 0.962644 0.611304 0.122957
O13   O     O_R   0.901057 0.990750 0.649470 -0.302596
O14   O     O_R   0.785434 0.873757 0.595612 -0.310074
N6    N     N_R   0.161145 0.044463 0.449693 0.122438
O15   O     O_R   0.087766 0.032314 0.405570 -0.311507
O16   O     O_R   0.178378 0.110459 0.483269 -0.321313
C65   C     C_2   0.433574 0.799429 0.614120 0.837996
O17   O     O_2   0.361820 0.799794 0.632376 -0.551842
O18   O     O_R   0.456861 0.713656 0.629676 -0.746416
H25   H     H_    0.407582 0.656238 0.655049 0.347802
C66   C     C_2   0.541283 0.244452 0.490298 0.811642
O19   O     O_2   0.599172 0.281999 0.532519 -0.596324
O20   O     O_R   0.526316 0.305321 0.436888 -0.743351
H26   H     H_    0.572294 0.379297 0.436520 0.333376
C67   C     C_2   0.711754 0.726825 0.336688 0.824534
O21   O     O_2   0.783384 0.809051 0.330221 -0.546309
O22   O     O_R   0.634152 0.696601 0.289647 -0.747773
H27   H     H_    0.644454 0.750377 0.253132 0.353784
C68   C     C_2   0.289961 0.273093 0.662683 0.831638
O23   O     O_2   0.221079 0.188596 0.665774 -0.526626
O24   O     O_R   0.362541 0.301706 0.712061 -0.752680
H28   H     H_    0.351515 0.245078 0.747131 0.356180
C69   C     C_2   0.351369 0.539644 0.391327 0.828812
O25   O     O_2   0.333569 0.606167 0.354904 -0.572183
O26   O     O_R   0.281835 0.438763 0.393360 -0.721524
H29   H     H_    0.222320 0.429982 0.360685 0.339669
C70   C     C_2   0.658925 0.476339 0.616045 0.837355
O27   O     O_2   0.725585 0.562110 0.613232 -0.577130
O28   O     O_R   0.673210 0.398110 0.658560 -0.721426
H30   H     H_    0.742155 0.421490 0.683872 0.345282

loop_
_geom_bond_atom_site_label_1
_geom_bond_atom_site_label_2
_geom_bond_distance
_ccdc_geom_bond_type
C38   C40   1.405817 A    
C15   C17   1.395304 A    
N5    O14   1.301482 A    
N3    C51   1.352713 A    
C59   C60   1.434728 A    
C4    C24   1.464674 S    
C25   H9    1.082071 S    
C59   C62   1.425889 A    
O22   H27   1.013829 S    
C23   C25   1.403744 A    
O5    C3    1.299331 A    
C38   H15   1.080588 S    
Cu1   N4    2.023785 S    
C34   C42   1.417086 A    
C26   C28   1.393946 A    
C46   C48   1.393911 A    
O1    C1    1.302776 A    
C7    C9    1.403233 A    
C12   C14   1.408754 A    
C69   O25   1.223520 D    
C66   O20   1.398075 S    
C50   C52   1.398013 A    
C5    C13   1.402901 A    
O18   H25   1.013919 S    
C19   C29   1.399919 A    
C56   C60   1.437759 A    
C45   C65   1.487140 S    
C18   H4    1.083079 S    
O4    Cu1   1.936830 S    
C33   C35   1.399686 A    
N6    O15   1.301332 A    
C34   C36   1.395444 A    
C50   C58   1.421641 A    
C3    C23   1.468120 S    
C37   C39   1.408586 A    
C34   N6    1.437768 S    
C26   H10   1.083420 S    
N5    O13   1.301396 A    
C49   C67   1.481612 S    
C53   C55   1.419606 A    
C57   C63   1.398102 A    
C20   C22   1.394724 A    
C39   C43   1.436420 A    
C40   C44   1.427028 A    
N1    C30   1.435736 S    
C8    O12   1.349470 S    
C24   C26   1.403288 A    
C9    C15   1.405074 A    
C32   C38   1.396567 A    
C37   H16   1.075838 S    
C10   C16   1.404756 A    
Cu1   Cu2   2.694186 S    
C50   C68   1.481652 S    
C45   C47   1.394516 A    
O2    C2    1.299062 A    
N4    C54   1.358789 A    
Cu2   N3    2.023786 S    
O2    Cu2   1.945201 S    
C56   C58   1.417558 A    
C61   C63   1.394217 A    
C22   H8    1.082117 S    
C27   H11   1.082800 S    
C54   H21   1.077521 S    
C6    C14   1.402969 A    
N3    C53   1.356909 A    
C28   H12   1.082852 S    
C20   C30   1.402093 A    
C1    C31   1.474747 S    
C49   C51   1.394583 A    
C2    C32   1.469137 S    
O28   H30   1.013190 S    
C19   H5    1.082840 S    
C7    O11   1.349480 S    
C27   C29   1.400092 A    
C19   C21   1.394018 A    
C35   H18   1.083460 S    
C15   H1    1.083075 S    
C39   C41   1.422677 A    
O7    Cu2   1.941822 S    
C55   C57   1.420419 A    
O7    C3    1.301768 A    
N2    C29   1.432559 S    
C54   C56   1.417132 A    
C49   C57   1.420422 A    
C62   C70   1.483605 S    
C58   C64   1.400072 A    
O6    C4    1.297138 A    
C60   C61   1.423854 A    
C64   H20   1.079149 S    
C47   H13   1.082155 S    
C67   O21   1.222839 D    
O3    Cu2   1.936829 S    
O8    C4    1.302177 A    
O4    C2    1.302384 A    
C63   H19   1.079676 S    
C8    C10   1.402963 A    
C62   C64   1.396844 A    
C9    C11   1.408498 A    
C53   H22   1.074121 S    
C42   C48   1.390579 A    
C70   O27   1.222925 D    
C10   C12   1.408890 A    
O1    Cu1   1.945201 S    
O24   H28   1.013836 S    
C68   O24   1.398036 S    
C65   O17   1.223361 D    
C28   C30   1.401720 A    
C33   C41   1.422190 A    
C13   C18   1.405081 A    
C5    N1    1.370624 A    
C46   C66   1.471376 S    
O6    Cu2   1.937740 S    
N4    C52   1.353666 A    
C48   H14   1.082788 S    
C44   C45   1.426517 A    
O3    C1    1.301679 A    
O8    Cu1   1.941824 S    
C43   C46   1.433570 A    
O20   H26   1.008375 S    
C5    O9    1.349560 S    
C6    O10   1.349496 S    
C31   C35   1.395597 A    
C32   C36   1.398775 A    
C16   C18   1.395175 A    
C61   C69   1.481412 S    
C43   C44   1.425871 A    
C21   H7    1.083284 S    
C66   O19   1.221672 D    
C31   C37   1.395985 A    
C52   H23   1.083025 S    
C68   O23   1.222910 D    
C51   H24   1.082859 S    
C25   C27   1.394522 A    
C20   H6    1.082798 S    
N1    C7    1.370514 A    
C41   C47   1.397722 A    
N2    C8    1.369173 A    
C11   C13   1.408313 A    
O26   H29   1.010728 S    
C33   N5    1.437947 S    
N6    O16   1.301549 A    
C36   H17   1.083491 S    
C67   O22   1.398104 S    
C11   C12   1.411491 A    
C55   C59   1.440135 A    
O5    Cu1   1.937738 S    
C16   H2    1.083086 S    
C14   C17   1.404848 A    
C6    N2    1.369303 A    
C17   H3    1.083084 S    
C70   O28   1.398710 S    
C40   C42   1.415741 A    
C65   O18   1.398824 S    
C21   C23   1.404688 A    
C22   C24   1.401254 A    
C69   O26   1.396968 S    
