data_mof_unit_8365.cif
_audit_creation_date              2013-03-05T15:42:04-0500
_audit_creation_method            fapswitch 2.2
_symmetry_space_group_name_H-M    P1
_symmetry_Int_Tables_number       1
_space_group_crystal_system       triclinic
_cell_length_a                    27.799205
_cell_length_b                    8.678228
_cell_length_c                    7.4277
_cell_angle_alpha                 103.076348
_cell_angle_beta                  93.877777
_cell_angle_gamma                 92.48322
_cell_volume                      1738.28341115

loop_
_atom_site_label
_atom_site_type_symbol
_atom_site_description
_atom_site_fract_x
_atom_site_fract_y
_atom_site_fract_z
_atom_type_partial_charge
O1    O     O_R   0.503500 0.286120 0.619780 -0.590749
O2    O     O_R   0.496500 0.713880 0.380220 -0.588947
O3    O     O_R   0.494410 0.256780 0.308360 -0.586558
O4    O     O_R   0.505590 0.743220 0.691640 -0.585421
C1    C     C_R   0.498540 0.199590 0.453110 0.874520
C2    C     C_R   0.501462 0.800410 0.546889 0.877311
O5    O     O_R   0.434810 0.514700 0.655690 -0.533692
O6    O     O_R   0.565190 0.485300 0.344310 -0.534485
O7    O     O_R   0.425720 0.485350 0.344280 -0.577624
O8    O     O_R   0.574280 0.514650 0.655720 -0.576081
C3    C     C_R   0.407444 0.499530 0.503020 0.876777
C4    C     C_R   0.592544 0.500893 0.496972 0.877598
Cu1   Cu    Cu3+1 0.505380 0.517380 0.684380 1.023598
Cu2   Cu    Cu3+1 0.494620 0.482620 0.315620 1.022623
C5    C     C_R   0.174638 0.364672 0.435779 0.669482
C6    C     C_R   0.825534 0.636506 0.582518 0.650149
O9    O     O_2   0.196208 0.230616 0.363551 -0.450343
O10   O     O_2   0.804129 0.762448 0.679144 -0.455012
N1    N     N_R   0.202109 0.500525 0.513501 -0.447488
N2    N     N_R   0.797912 0.508251 0.481211 -0.444132
C7    C     C_R   0.181703 0.638864 0.587597 0.667630
C8    C     C_R   0.818247 0.379158 0.380125 0.674639
C9    C     C_R   0.275312 0.495926 0.348021 -0.140039
C10   C     C_R   0.724858 0.497745 0.646338 -0.127210
C11   C     C_R   0.325316 0.496004 0.345788 -0.227065
C12   C     C_R   0.674821 0.495653 0.649750 -0.229324
C13   C     C_R   0.332388 0.501696 0.675175 0.506026
C14   C     C_R   0.667344 0.512655 0.327052 0.506886
C15   C     C_R   0.282170 0.501393 0.676490 0.629113
C16   C     C_R   0.717520 0.515254 0.324591 0.623146
C17   C     C_R   0.253607 0.498891 0.512986 0.106176
C18   C     C_R   0.746376 0.507512 0.484069 0.101034
C19   C     C_R   0.102002 0.505484 0.502451 -0.098116
C20   C     C_R   0.898027 0.507173 0.482692 -0.089802
C21   C     C_R   0.124218 0.363667 0.432314 -0.111205
C22   C     C_R   0.875984 0.637632 0.586990 -0.115422
C23   C     C_R   0.095880 0.223013 0.363937 -0.107975
C24   C     C_R   0.904578 0.764653 0.697833 -0.132709
C25   C     C_R   0.130941 0.647079 0.575786 -0.134850
C26   C     C_R   0.868900 0.377413 0.373116 -0.129276
C27   C     C_R   0.354492 0.499249 0.509052 -0.272411
C28   C     C_R   0.645468 0.502693 0.490342 -0.273519
H1    H     H_    0.112352 0.111798 0.315980 0.238607
H2    H     H_    0.888289 0.863160 0.784098 0.250126
C29   C     C_R   0.971249 0.370694 0.394691 0.031979
C30   C     C_R   0.028721 0.645657 0.578639 0.038071
C31   C     C_R   0.977935 0.641436 0.591405 -0.041149
C32   C     C_R   0.022230 0.363936 0.416359 -0.049885
C33   C     C_R   0.949201 0.506479 0.489434 0.015985
C34   C     C_R   0.050857 0.505062 0.499128 0.012301
C35   C     C_R   0.941691 0.248874 0.274777 -0.158069
C36   C     C_R   0.057864 0.787724 0.634778 -0.123227
C37   C     C_R   0.891469 0.250424 0.263102 0.321308
C38   C     C_R   0.108080 0.790506 0.634435 0.319132
O11   O     O_2   0.789373 0.251954 0.291590 -0.429989
O12   O     O_2   0.210673 0.766291 0.674501 -0.424980
C39   C     C_R   0.045888 0.221320 0.360077 0.584528
C40   C     C_R   0.954609 0.766046 0.703880 0.592363
H3    H     H_    0.659154 0.487651 0.777149 0.261251
H4    H     H_    0.341073 0.494150 0.215971 0.262501
H5    H     H_    0.747012 0.491126 0.769705 0.244667
H6    H     H_    0.253302 0.494219 0.221511 0.242252
H7    H     H_    0.956857 0.154822 0.178422 0.255412
H8    H     H_    0.042118 0.901121 0.667496 0.241993
C41   C     C_2   0.497841 0.031640 0.426700 -0.335126
C42   C     C_2   0.502162 0.968360 0.573299 -0.336561
H9    H     H_    0.493772 0.959755 0.285531 0.184665
H10   H     H_    0.506231 0.040245 0.714468 0.183886
N3    N     N_2   0.486510 0.456430 0.038510 -0.195889
N4    N     N_2   0.513490 0.543570 0.961490 -0.194849
H11   H     H_    0.462186 0.378196 0.948458 0.249620
H12   H     H_    0.537807 0.621826 0.051546 0.253392
F1    F     F_    0.359019 0.503466 0.835822 -0.633177
F2    F     F_    0.640524 0.521872 0.170545 -0.633369
F3    F     F_    0.261163 0.502920 0.836545 -0.614527
F4    F     F_    0.738229 0.526544 0.167376 -0.609907
N5    N     N_R   0.864458 0.123798 0.133144 0.165419
O13   O     O_R   0.871322 0.977639 0.139213 -0.303976
O14   O     O_R   0.840226 0.152948 0.989645 -0.275979
N6    N     N_R   0.134515 0.941875 0.684126 0.161890
O15   O     O_R   0.161369 0.985865 0.565737 -0.281126
O16   O     O_R   0.124073 0.047210 0.828677 -0.310231
F5    F     F_    0.021847 0.076715 0.315928 -0.644186
F6    F     F_    0.979224 0.883618 0.833364 -0.642396

loop_
_geom_bond_atom_site_label_1
_geom_bond_atom_site_label_2
_geom_bond_distance
_ccdc_geom_bond_type
O5    Cu1   1.957506 S    
C42   H10   1.087793 S    
C10   H5    1.082952 S    
C13   C15   1.396616 A    
N1    C17   1.432532 S    
C32   C39   1.418692 A    
C31   C33   1.420949 A    
N5    O13   1.301140 A    
C5    N1    1.364123 A    
C19   C25   1.416339 A    
O1    C1    1.289483 A    
N1    C7    1.366838 A    
C10   C12   1.392337 A    
C25   C38   1.415472 A    
Cu1   N4    2.014982 S    
C29   C35   1.409178 A    
C30   C36   1.409027 A    
O4    Cu1   1.948141 S    
N3    H11   1.029135 S    
C4    C28   1.474905 S    
C24   C40   1.387942 A    
C9    H6    1.082930 S    
C41   H9    1.087793 S    
C39   F5    1.356652 S    
C11   H4    1.082872 S    
C12   H3    1.082968 S    
C6    N2    1.365079 A    
C32   C34   1.421221 A    
C14   F2    1.357814 S    
Cu1   Cu2   2.681472 S    
O2    C2    1.289482 A    
C5    C21   1.399743 A    
C36   C38   1.395304 A    
O5    C3    1.299648 A    
C38   N6    1.435999 S    
N5    O14   1.301346 A    
C35   H7    1.078178 S    
N6    O16   1.301421 A    
C36   H8    1.078244 S    
C11   C27   1.406682 A    
C19   C34   1.420166 A    
C35   C37   1.393792 A    
C9    C17   1.397569 A    
C23   H1    1.082991 S    
C37   N5    1.433044 S    
O7    Cu2   1.941984 S    
C10   C18   1.398956 A    
C24   H2    1.082287 S    
C40   F6    1.356730 S    
C16   F4    1.357383 S    
C13   C27   1.411522 A    
C7    C25   1.413838 A    
C29   C33   1.416029 A    
O6    C4    1.298987 A    
C8    C26   1.413198 A    
O7    C3    1.297789 A    
O3    Cu2   1.948141 S    
O8    C4    1.298050 A    
C1    C41   1.425080 S    
N2    C8    1.367495 A    
C26   C37   1.413365 A    
Cu2   N3    2.014983 S    
C20   C26   1.415357 A    
O4    C2    1.282645 A    
O1    Cu1   1.952561 S    
C22   C24   1.396327 A    
C12   C28   1.406382 A    
N2    C18   1.434018 S    
C29   C32   1.420754 A    
C5    O9    1.349942 S    
C30   C31   1.420826 A    
C20   C33   1.420422 A    
O6    Cu2   1.957506 S    
C21   C23   1.396594 A    
N6    O15   1.300881 A    
O3    C1    1.282643 A    
O8    Cu1   1.941987 S    
C7    O12   1.348202 S    
C8    O11   1.348588 S    
C15   F3    1.357199 S    
C30   C34   1.415728 A    
C14   C16   1.395475 A    
C15   C17   1.400719 A    
C6    C22   1.400171 A    
C31   C40   1.418823 A    
C16   C18   1.401184 A    
C14   C28   1.411035 A    
C19   C21   1.409522 A    
C3    C27   1.475639 S    
C20   C22   1.408859 A    
C9    C11   1.391267 A    
N3    N4    1.290863 D    
O2    Cu2   1.952562 S    
C2    C42   1.425076 S    
C6    O10   1.350148 S    
C41   C42   1.326761 D    
N4    H12   1.029128 S    
C13   F1    1.357697 S    
C23   C39   1.387462 A    
