data_mof_unit_5789.cif
_audit_creation_date              2012-10-26T18:51:46-0400
_audit_creation_method            fapswitch 2.2
_symmetry_space_group_name_H-M    P1
_symmetry_Int_Tables_number       1
_space_group_crystal_system       triclinic
_cell_length_a                    11.663652
_cell_length_b                    14.767311
_cell_length_c                    14.696401
_cell_angle_alpha                 64.584734
_cell_angle_beta                  104.236624
_cell_angle_gamma                 102.50997
_cell_volume                      2198.21870915

loop_
_atom_site_label
_atom_site_type_symbol
_atom_type_description
_atom_site_fract_x
_atom_site_fract_y
_atom_site_fract_z
_atom_type_partial_charge
C1    C     C_R   0.478504 0.120079 0.311922 0.553540
C2    C     C_R   0.520345 0.613660 0.109553 0.255007
C3    C     C_R   0.720081 0.298535 0.641747 -0.132853
C4    C     C_R   0.291591 0.716849 0.335251 -0.142677
C5    C     C_R   0.672825 0.206498 0.633683 0.414745
C6    C     C_R   0.324883 0.796560 0.367097 0.411542
C7    C     C_R   0.514806 0.285685 0.505128 0.048914
C8    C     C_R   0.492053 0.717966 0.480719 0.052630
C9    C     C_R   0.549360 0.377351 0.519802 -0.059677
C10   C     C_R   0.465333 0.636834 0.447444 -0.036206
C11   C     C_R   0.661195 0.384410 0.582178 -0.052581
C12   C     C_R   0.517468 0.879700 0.688497 0.554516
C13   C     C_R   0.359449 0.635962 0.376155 -0.026099
C14   C     C_R   0.484253 0.463815 0.469260 -0.055955
C15   C     C_R   0.536439 0.555516 0.484802 -0.052581
C16   C     C_R   0.284267 0.000151 0.499974 0.531317
C17   C     C_R   0.715425 0.001651 0.497664 0.540082
C18   C     C_R   0.658449 0.563969 0.534038 0.247645
C19   C     C_R   0.369282 0.461830 0.405280 0.278346
C20   C     C_R   0.720763 0.478606 0.576491 0.249500
C21   C     C_R   0.317323 0.552898 0.348981 0.291041
C22   C     C_1   0.162369 0.001778 0.498053 -0.037137
C23   C     C_R   0.361699 0.327757 0.007604 0.023110
C24   C     C_1   0.837089 0.005393 0.494228 -0.022098
C25   C     C_1   0.059772 0.004346 0.495729 -0.059751
C26   C     C_1   0.939971 0.006728 0.493685 -0.052514
C27   C     C_R   0.449936 0.189405 0.204037 -0.048558
C28   C     C_R   0.516632 0.811087 0.797647 -0.040853
C29   C     C_R   0.333869 0.222036 0.033739 0.273596
C30   C     C_R   0.540048 0.787417 0.975929 0.269180
C31   C     C_R   0.372775 0.154601 0.133557 -0.190759
C32   C     C_R   0.541218 0.850693 0.872499 -0.192275
C33   C     C_R   0.489584 0.293294 0.174643 0.235736
C34   C     C_R   0.510723 0.681477 0.005601 0.025588
C35   C     C_R   0.487418 0.705666 0.826947 0.244667
C36   C     C_R   0.434688 0.363917 0.081569 -0.056696
C37   C     C_R   0.471775 0.642035 0.928830 -0.054868
C38   C     C_3   0.305327 0.388668 0.755759 -0.103857
C39   C     C_3   0.656400 0.619337 0.249762 -0.090507
C40   C     C_3   0.799870 0.657373 0.615215 -0.004221
C41   C     C_3   0.819543 0.759957 0.619518 -0.402919
C42   C     C_3   0.248917 0.361548 0.320547 -0.004574
C43   C     C_3   0.215501 0.251414 0.335435 -0.389321
C44   C     C_3   0.584188 0.621105 0.776878 -0.133216
C45   C     C_R   0.454841 0.469655 0.058531 -0.030861
C46   C     C_3   0.690699 0.331333 0.203318 -0.118441
C47   C     C_3   0.320085 0.129084 0.940184 -0.105673
C48   C     C_3   0.484576 0.880988 0.043160 -0.091084
C49   C     C_3   0.897845 0.511232 0.522680 -0.021002
C50   C     C_3   0.032662 0.519806 0.555858 -0.371106
C51   C     C_3   0.236906 0.605140 0.179470 -0.028865
C52   C     C_3   0.120424 0.616660 0.103604 -0.393972
C53   C     C_3   0.141572 0.852737 0.325482 -0.119907
C54   C     C_3   0.761346 0.100157 0.791796 -0.130564
C55   C     C_R   0.426534 0.538095 0.956712 -0.036808
C56   C     C_R   0.350523 0.501696 0.885924 -0.100208
C57   C     C_R   0.494812 0.509203 0.134485 -0.119444
C58   C     C_R   0.319681 0.398318 0.909170 0.280178
Cu1   Cu    Cu3+1 0.469550 0.918260 0.475690 1.011058
Cu2   Cu    Cu3+1 0.530450 0.081740 0.524310 1.010331
H1    H     H_    0.564728 0.931252 0.851327 0.143406
H2    H     H_    0.314441 0.470894 0.706721 0.117855
H3    H     H_    0.252127 0.348892 0.706906 0.152937
H4    H     H_    0.727474 0.634799 0.204482 0.119088
H5    H     H_    0.645295 0.538309 0.302303 0.104333
H6    H     H_    0.686696 0.663632 0.298015 0.167868
H7    H     H_    0.889287 0.644819 0.613080 0.200959
H8    H     H_    0.768397 0.599655 0.686206 0.124424
H9    H     H_    0.886916 0.760429 0.687513 0.096148
H10   H     H_    0.853363 0.815093 0.549515 0.180112
H11   H     H_    0.735769 0.780379 0.623678 0.164168
H12   H     H_    0.340919 0.074765 0.156257 0.172767
H13   H     H_    0.311346 0.397053 0.264975 0.115077
H14   H     H_    0.163376 0.393770 0.288881 0.204381
H15   H     H_    0.165797 0.210465 0.400039 0.183203
H16   H     H_    0.157822 0.246143 0.264999 0.098094
H17   H     H_    0.295916 0.215781 0.349892 0.164049
H18   H     H_    0.592617 0.554805 0.851262 0.116154
H19   H     H_    0.665040 0.677318 0.775786 0.109227
H20   H     H_    0.579030 0.593141 0.716914 0.123929
H21   H     H_    0.691187 0.388279 0.123437 0.109718
H22   H     H_    0.704884 0.256431 0.209951 0.114592
H23   H     H_    0.310521 0.553540 0.812350 0.175670
H24   H     H_    0.766828 0.356335 0.253097 0.139845
H25   H     H_    0.333538 0.054492 0.004138 0.093195
H26   H     H_    0.407143 0.171549 0.917930 0.095968
H27   H     H_    0.265387 0.114560 0.873368 0.147998
H28   H     H_    0.396739 0.832576 0.047571 0.108805
H29   H     H_    0.478148 0.951670 0.972673 0.080767
H30   H     H_    0.506791 0.902658 0.109603 0.152287
H31   H     H_    0.874808 0.584797 0.460431 0.142853
H32   H     H_    0.870031 0.450960 0.492263 0.139592
H33   H     H_    0.058542 0.447079 0.617219 0.185084
H34   H     H_    0.497508 0.460340 0.214263 0.168768
H35   H     H_    0.076367 0.538151 0.489780 0.117650
H36   H     H_    0.063938 0.580596 0.584991 0.147953
H37   H     H_    0.289692 0.560754 0.164197 0.139761
H38   H     H_    0.287275 0.681760 0.165181 0.149374
H39   H     H_    0.066097 0.662463 0.115623 0.152795
H40   H     H_    0.139318 0.655180 0.024295 0.104353
H41   H     H_    0.069261 0.541150 0.113916 0.147221
H42   H     H_    0.103754 0.919545 0.316272 0.149481
H43   H     H_    0.124446 0.791547 0.400356 0.108486
H44   H     H_    0.093779 0.830589 0.261373 0.100655
H45   H     H_    0.563742 0.719070 0.542011 0.180780
H46   H     H_    0.778555 0.020203 0.833258 0.150201
H47   H     H_    0.844707 0.147477 0.808875 0.127632
H48   H     H_    0.687421 0.109072 0.821876 0.092145
H49   H     H_    0.445862 0.278901 0.444866 0.193727
H50   H     H_    0.804830 0.304035 0.691002 0.157546
H51   H     H_    0.212003 0.718712 0.278612 0.137721
H52   H     H_    0.394503 0.361354 0.784477 0.104442
N1    N     N_R   0.576230 0.204580 0.560790 -0.231538
N2    N     N_R   0.423770 0.795420 0.439210 -0.226120
O1    O     O_R   0.459870 0.022090 0.338120 -0.470347
O2    O     O_3   0.547227 0.649550 0.186451 -0.541386
O3    O     O_3   0.719612 0.659193 0.524513 -0.583180
O4    O     O_3   0.299457 0.369181 0.415698 -0.573936
O5    O     O_3   0.479425 0.664659 0.756337 -0.565266
O6    O     O_3   0.584582 0.324665 0.236696 -0.567968
O7    O     O_3   0.257975 0.184915 0.965342 -0.500998
O8    O     O_3   0.575806 0.829012 0.048342 -0.516448
O9    O     O_3   0.843341 0.487517 0.607556 -0.584675
O10   O     O_3   0.211681 0.555276 0.280238 -0.591436
O11   O     O_3   0.264503 0.880767 0.320897 -0.537528
O12   O     O_R   0.540130 0.977910 0.661880 -0.477049
O13   O     O_3   0.731983 0.121665 0.686075 -0.523873
O14   O     O_R   0.511290 0.160150 0.379180 -0.473797
O15   O     O_R   0.488710 0.839850 0.620820 -0.455755
O16   O     O_R   0.311490 0.930960 0.479480 -0.457480
O17   O     O_R   0.688510 0.069040 0.520520 -0.438780
O18   O     O_R   0.362910 0.069020 0.520540 -0.518972
O19   O     O_R   0.637090 0.930980 0.479460 -0.515395
O20   O     O_3   0.244513 0.366755 0.836377 -0.514896

loop_
_geom_bond_atom_site_label_1
_geom_bond_atom_site_label_2
_ccdc_geom_bond_type
C51   H37   S    
C23   C58   A    
C55   C56   A    
Cu1   O16   S    
C17   O17   A    
C34   C37   A    
C15   C18   A    
C35   O5    S    
C1    O14   A    
C8    H45   S    
Cu2   O18   S    
C2    C57   A    
C58   O20   S    
C39   H4    S    
C28   C32   A    
C45   C57   A    
C54   H47   S    
C12   C28   S    
C23   C29   A    
C19   C21   A    
C24   C26   T    
C32   H1    S    
C10   C15   A    
C48   O8    S    
C50   H35   S    
C47   O7    S    
C12   O12   A    
C53   H44   S    
C49   O9    S    
C33   C36   A    
C22   C25   T    
C4    C13   A    
C6    N2    A    
C20   O9    S    
C46   H22   S    
C2    O2    S    
C39   O2    S    
Cu1   O15   S    
C30   O8    S    
C19   O4    S    
C40   H7    S    
C29   O7    S    
C48   H28   S    
C16   O16   A    
C8    N2    A    
C41   H11   S    
C2    C34   A    
C51   H38   S    
C40   O3    S    
Cu1   Cu2   S    
C48   H30   S    
C51   O10   S    
C39   H5    S    
Cu2   N1    S    
C49   H31   S    
Cu2   O17   S    
C43   H15   S    
C11   C20   A    
C52   H41   S    
C42   H14   S    
C17   C24   S    
C12   O15   A    
C30   C34   A    
C27   C31   A    
C51   C52   S    
C47   H26   S    
C44   H20   S    
C28   C35   A    
C4    C6    A    
C54   H46   S    
C42   O4    S    
C44   O5    S    
C25   C26   S    
C52   H40   S    
C27   C33   A    
C7    H49   S    
C47   H27   S    
C9    C14   A    
C46   H21   S    
Cu2   O14   S    
C53   H42   S    
C5    O13   S    
C46   O6    S    
C36   C45   A    
C9    C11   A    
C18   O3    S    
C53   O11   S    
C46   H24   S    
C8    C10   A    
C31   H12   S    
C4    H51   S    
C23   C36   A    
C48   H29   S    
C17   O19   A    
C39   H6    S    
C42   C43   S    
C49   H32   S    
C38   H52   S    
C47   H25   S    
C35   C37   A    
C56   H23   S    
C41   H9    S    
C38   H3    S    
C43   H16   S    
C7    C9    A    
C40   C41   S    
C42   H13   S    
C16   C22   S    
C5    N1    A    
Cu1   O19   S    
C14   C19   A    
C44   H19   S    
C6    O11   S    
C3    C5    A    
C10   C13   A    
C50   H33   S    
C43   H17   S    
C54   O13   S    
C52   H39   S    
C54   H48   S    
C57   H34   S    
C7    N1    A    
C21   O10   S    
C44   H18   S    
C29   C31   A    
C13   C21   A    
C30   C32   A    
C50   H36   S    
C53   H43   S    
Cu1   N2    S    
Cu2   O12   S    
C56   C58   A    
C18   C20   A    
C38   O20   S    
C16   O18   A    
C3    C11   A    
C3    H50   S    
C37   C55   A    
C45   C55   A    
C33   O6    S    
Cu1   O1    S    
C49   C50   S    
C40   H8    S    
C1    C27   S    
C14   C15   A    
C1    O1    A    
C41   H10   S    
C38   H2    S    
