data_mof_unit_60505.cif
_audit_creation_date              2012-12-10T16:56:33-0500
_audit_creation_method            fapswitch 2.2
_symmetry_space_group_name_H-M    P1
_symmetry_Int_Tables_number       1
_space_group_crystal_system       triclinic
_cell_length_a                    18.8295
_cell_length_b                    18.599737
_cell_length_c                    18.800556
_cell_angle_alpha                 108.864797
_cell_angle_beta                  110.14861
_cell_angle_gamma                 108.834733
_cell_volume                      5103.08381409

loop_
_atom_site_label
_atom_site_type_symbol
_atom_type_description
_atom_site_fract_x
_atom_site_fract_y
_atom_site_fract_z
_atom_type_partial_charge
C1    C     C_R   0.613970 0.619243 0.495615 0.936790
C2    C     C_2   0.817943 0.506089 0.827285 -0.335153
C3    C     C_2   0.755749 0.578547 0.760184 -0.147536
C4    C     C_R   0.379661 0.499594 0.379874 0.864294
C5    C     C_2   0.695604 0.505851 0.684648 -0.331962
C6    C     C_2   0.252762 0.260969 0.579989 0.032624
C7    C     C_2   0.181552 0.193789 0.505689 -0.397688
C8    C     C_2   0.312848 0.330934 0.576309 -0.202863
C9    C     C_2   0.325002 0.313203 0.507966 -0.370679
C10   C     C_R   0.008028 0.619386 0.126739 0.930828
C11   C     C_R   0.126619 0.499258 0.126649 0.873139
C12   C     C_3   0.178388 0.421853 0.211274 -0.211413
C13   C     C_R   0.006041 0.381069 0.886845 0.933753
C14   C     C_R   0.886335 0.502153 0.888288 0.933872
C15   C     C_R   0.996716 0.116964 0.617813 0.935127
C16   C     C_R   0.383085 0.380605 0.501965 0.952222
C17   C     C_R   0.881708 0.877945 0.498058 0.875098
C18   C     C_R   0.999142 0.878703 0.382333 0.929352
C19   C     C_R   0.118364 0.121504 0.501949 0.941463
C20   C     C_2   0.009673 0.747016 0.329314 -0.155453
C21   C     C_2   0.991294 0.806463 0.315156 -0.333608
C22   C     C_2   0.999659 0.674668 0.257939 -0.160368
C23   C     C_3   0.226888 0.488229 0.308637 0.048723
C24   C     C_2   0.016126 0.687615 0.198109 -0.336368
C25   C     C_2   0.923507 0.185311 0.675304 -0.160012
C26   C     C_2   0.993845 0.177058 0.686270 -0.330312
C27   C     C_2   0.925740 0.245658 0.750211 -0.153297
C28   C     C_R   0.622945 0.502053 0.620506 0.941105
C29   C     C_2   0.000376 0.317982 0.813399 -0.333483
C30   C     C_3   0.325638 0.574616 0.294541 -0.165586
C31   C     C_3   0.239008 0.564704 0.289660 -0.200146
C32   C     C_3   0.192254 0.498354 0.193028 0.018160
C33   C     C_3   0.277576 0.508466 0.196652 -0.147375
C34   C     C_3   0.312240 0.498391 0.313106 -0.012853
C35   C     C_3   0.265132 0.432234 0.216274 -0.192080
C36   C     C_1   0.269281 0.270264 0.664452 0.202277
C37   C     C_R   0.200373 0.473507 0.371765 0.123203
C38   C     C_R   0.185833 0.533930 0.423999 -0.138531
C39   C     C_R   0.161819 0.519445 0.482773 -0.139632
C40   C     C_R   0.151963 0.444630 0.489617 -0.103442
C41   C     C_R   0.166076 0.384158 0.437666 -0.117483
C42   C     C_R   0.190429 0.398538 0.379086 -0.157639
C43   C     C_1   0.852921 0.784567 0.564365 0.215532
C44   C     C_2   0.742109 0.746707 0.421763 -0.217255
C45   C     C_2   0.820563 0.802809 0.493523 -0.160626
C46   C     C_2   0.678869 0.673048 0.418768 -0.166374
C47   C     C_2   0.667331 0.687565 0.487157 -0.319403
C48   C     C_2   0.829162 0.578476 0.821838 -0.152207
H1    H     H_    0.226325 0.618817 0.316242 0.123808
H2    H     H_    0.028710 0.749548 0.391961 0.165292
H3    H     H_    0.387613 0.636593 0.330243 0.136062
H4    H     H_    0.962642 0.798225 0.250094 0.157566
H5    H     H_    0.982151 0.612288 0.256398 0.165547
H6    H     H_    0.043445 0.752453 0.205411 0.156997
H7    H     H_    0.863658 0.145165 0.613068 0.166351
H8    H     H_    0.049993 0.209647 0.750675 0.161653
H9    H     H_    0.865905 0.232483 0.751819 0.163468
H10   H     H_    0.057647 0.336823 0.806664 0.156379
H11   H     H_    0.296357 0.516710 0.148768 0.141768
H12   H     H_    0.696950 0.753867 0.538911 0.162614
H13   H     H_    0.277398 0.378309 0.187891 0.155641
H14   H     H_    0.116562 0.359762 0.175832 0.150667
H15   H     H_    0.724216 0.754640 0.364478 0.169526
H16   H     H_    0.642884 0.608861 0.361970 0.171813
H17   H     H_    0.193218 0.592281 0.419763 0.117547
H18   H     H_    0.150819 0.566243 0.523015 0.131255
H19   H     H_    0.133297 0.433462 0.535069 0.129012
H20   H     H_    0.158057 0.326122 0.442752 0.139472
H21   H     H_    0.201585 0.351344 0.339479 0.114141
H22   H     H_    0.890764 0.638490 0.865181 0.166104
H23   H     H_    0.753870 0.449324 0.791206 0.157626
H24   H     H_    0.753042 0.638794 0.775220 0.166328
H25   H     H_    0.703814 0.448699 0.665292 0.156855
H26   H     H_    0.164906 0.194792 0.444783 0.140622
H27   H     H_    0.349074 0.396671 0.630953 0.176188
H28   H     H_    0.295524 0.246602 0.457159 0.160070
N1    N     N_1   0.282465 0.277753 0.731989 -0.213337
N2    N     N_1   0.878792 0.770190 0.620633 -0.210817
O1    O     O_R   0.591160 0.539400 0.449620 -0.615627
O2    O     O_R   0.050520 0.090460 0.641000 -0.618959
O3    O     O_R   0.857760 0.909540 0.448230 -0.624408
O4    O     O_R   0.589730 0.641530 0.550350 -0.629985
O5    O     O_R   0.961340 0.909540 0.551790 -0.619934
O6    O     O_R   0.949480 0.909540 0.359000 -0.626165
O7    O     O_R   0.053060 0.909550 0.462560 -0.616885
O8    O     O_R   0.038660 0.090460 0.448210 -0.625214
O9    O     O_R   0.142240 0.090460 0.551770 -0.603394
O10   O     O_R   0.408980 0.448930 0.357910 -0.635427
O11   O     O_R   0.407550 0.551060 0.458650 -0.619302
O12   O     O_R   0.056790 0.641480 0.096140 -0.627053
O13   O     O_R   0.410270 0.358470 0.449650 -0.628806
O14   O     O_R   0.408840 0.460600 0.550380 -0.610905
O15   O     O_R   0.592450 0.448940 0.541350 -0.621292
O16   O     O_R   0.591020 0.551070 0.642090 -0.618653
O17   O     O_R   0.954670 0.539370 0.096190 -0.614919
O18   O     O_R   0.047640 0.448900 0.098680 -0.630047
O19   O     O_R   0.149770 0.551010 0.098640 -0.627109
O20   O     O_R   0.957150 0.358410 0.917750 -0.617085
O21   O     O_R   0.059270 0.460520 0.917700 -0.623241
O22   O     O_R   0.864170 0.448890 0.915250 -0.625088
O23   O     O_R   0.966300 0.551000 0.915200 -0.615816
O24   O     O_R   0.946940 0.090450 0.537440 -0.617644
Zn1   Zn    Zn3+2 0.500950 0.431810 0.432740 0.950413
Zn2   Zn    Zn3+2 0.499050 0.568190 0.567260 0.959604
Zn3   Zn    Zn3+2 0.938780 0.431770 0.006970 0.952424
Zn4   Zn    Zn3+2 0.075160 0.568130 0.006910 0.952498
Zn5   Zn    Zn3+2 0.930840 0.000000 0.430850 0.950196
Zn6   Zn    Zn3+2 0.069160 0.000000 0.569150 0.974872

loop_
_geom_bond_atom_site_label_1
_geom_bond_atom_site_label_2
_ccdc_geom_bond_type
C11   O18   A    
O18   Zn3   S    
O3    Zn5   S    
C27   C29   D    
C18   C21   S    
C41   C42   A    
O8    Zn5   S    
C30   H3    S    
C19   O8    A    
O15   Zn1   S    
C43   N2    T    
C12   C23   S    
O22   Zn3   S    
O20   Zn3   S    
C13   C29   S    
C9    C16   S    
C17   C45   S    
C19   O9    A    
C36   N1    T    
C30   C31   S    
C24   H6    S    
C3    C48   S    
C13   O20   A    
O6    Zn5   S    
O5    Zn6   S    
C28   O16   A    
C34   C35   S    
C37   C42   A    
C20   H2    S    
O17   Zn3   S    
C47   H12   S    
C46   C47   D    
O9    Zn6   S    
C31   C32   S    
C8    C9    D    
C40   H19   S    
C18   O6    A    
C9    H28   S    
C22   H5    S    
O7    Zn6   S    
C14   O23   A    
O16   Zn2   S    
C33   H11   S    
C12   C32   S    
O1    Zn1   S    
C31   H1    S    
C44   C46   S    
C7    H26   S    
C44   H15   S    
C4    C34   S    
C18   O7    A    
C30   C34   S    
O12   Zn4   S    
C27   H9    S    
C48   H22   S    
C39   C40   A    
C1    C47   S    
C15   C26   S    
C6    C8    S    
C10   C24   S    
C1    O4    A    
C23   C37   S    
C8    H27   S    
C46   H16   S    
C28   O15   A    
C17   O5    A    
C23   C31   S    
C13   O21   A    
C37   C38   A    
C5    C28   S    
C12   H14   S    
C15   O2    A    
C38   H17   S    
C23   C34   S    
O24   Zn5   S    
C35   H13   S    
C29   H10   S    
C12   C35   S    
C43   C45   S    
O19   Zn4   S    
C40   C41   A    
C20   C22   S    
C11   C32   S    
C16   O14   A    
C7    C19   S    
O11   Zn2   S    
C1    O1    A    
C39   H18   S    
C22   C24   D    
C2    H23   S    
O10   Zn1   S    
C44   C45   D    
C4    O11   A    
O23   Zn4   S    
O21   Zn4   S    
C41   H20   S    
C30   C33   S    
C25   H7    S    
O13   Zn1   S    
C3    C5    D    
C26   H8    S    
C14   O22   A    
C6    C7    D    
C4    O10   A    
C25   C27   S    
O2    Zn6   S    
C11   O19   A    
C2    C48   D    
C32   C33   S    
C3    H24   S    
C25   C26   D    
C38   C39   A    
C10   O17   A    
C33   C35   S    
C6    C36   S    
C17   O3    A    
C42   H21   S    
C15   O24   A    
C5    H25   S    
C2    C14   S    
O14   Zn2   S    
C20   C21   D    
C10   O12   A    
C16   O13   A    
O4    Zn2   S    
C21   H4    S    
