data_mof_unit_37023.cif
_audit_creation_date              2012-12-10T18:23:20-0500
_audit_creation_method            fapswitch 2.2
_symmetry_space_group_name_H-M    P1
_symmetry_Int_Tables_number       1
_space_group_crystal_system       triclinic
_cell_length_a                    27.816792
_cell_length_b                    10.620126
_cell_length_c                    9.40971
_cell_angle_alpha                 90.432963
_cell_angle_beta                  90.093669
_cell_angle_gamma                 89.961278
_cell_volume                      2779.71247219

loop_
_atom_site_label
_atom_site_type_symbol
_atom_type_description
_atom_site_fract_x
_atom_site_fract_y
_atom_site_fract_z
_atom_type_partial_charge
C1    C     C_R   0.500011 0.259369 0.499455 0.788019
C2    C     C_R   0.499988 0.740631 0.500545 0.788026
C3    C     C_R   0.101986 0.499939 0.499657 -0.043976
C4    C     C_R   0.898113 0.500157 0.500432 -0.043902
C5    C     C_R   0.127670 0.388511 0.527671 -0.020347
C6    C     C_R   0.872417 0.608707 0.460890 -0.020260
C7    C     C_R   0.102598 0.277513 0.554708 -0.146039
C8    C     C_R   0.897478 0.716553 0.421017 -0.146001
C9    C     C_R   0.127592 0.611315 0.471469 -0.020321
C10   C     C_R   0.872520 0.391647 0.540134 -0.020232
C11   C     C_R   0.354571 0.499953 0.499735 -0.038226
C12   C     C_R   0.645441 0.500045 0.500273 -0.038735
C13   C     C_R   0.974552 0.388611 0.536959 0.042597
C14   C     C_R   0.025555 0.612744 0.468207 0.043092
C15   C     C_R   0.974455 0.611556 0.463359 0.042590
C16   C     C_R   0.025641 0.387301 0.531687 0.043084
C17   C     C_R   0.949258 0.500110 0.500254 0.067808
C18   C     C_R   0.050842 0.499994 0.499847 0.067711
C19   C     C_R   0.947590 0.282084 0.578744 -0.206675
C20   C     C_R   0.052534 0.723433 0.443296 -0.206296
C21   C     C_R   0.897682 0.283772 0.579889 -0.146021
C22   C     C_R   0.102445 0.722358 0.444576 -0.146061
C23   C     C_R   0.407514 0.500011 0.499901 0.794872
C24   C     C_R   0.592490 0.499987 0.500100 0.795003
C25   C     C_R   0.052690 0.276543 0.556352 -0.206293
C26   C     C_R   0.947388 0.718152 0.421819 -0.206659
C27   C     C_3   0.539521 0.042614 0.566985 -0.162103
C28   C     C_3   0.460476 0.957386 0.433015 -0.161776
C29   C     C_3   0.539466 0.957221 0.433136 -0.163549
C30   C     C_3   0.460531 0.042779 0.566864 -0.163215
C31   C     C_3   0.499993 0.877592 0.501483 0.016722
C32   C     C_3   0.500004 0.122408 0.498516 0.016724
C33   C     C_3   0.500048 0.960704 0.635447 -0.139632
C34   C     C_3   0.499949 0.039296 0.364553 -0.139636
C35   C     C_3   0.535226 0.566447 0.051409 -0.036699
C36   C     C_3   0.464775 0.433553 0.948591 -0.035904
C37   C     C_3   0.495644 0.613183 0.950493 -0.036009
C38   C     C_3   0.504356 0.386817 0.049507 -0.035980
C39   C     C_3   0.539624 0.453245 0.949362 -0.038338
C40   C     C_3   0.460376 0.546754 0.050638 -0.037480
C41   C     C_R   0.178139 0.390491 0.526941 0.533636
C42   C     C_R   0.821948 0.606754 0.461699 0.533644
C43   C     C_R   0.178062 0.609252 0.471952 0.533647
C44   C     C_R   0.822048 0.393651 0.539529 0.533650
C45   C     C_R   0.278865 0.510995 0.371479 -0.104140
C46   C     C_R   0.721145 0.494560 0.629046 -0.103365
C47   C     C_R   0.328992 0.510798 0.371390 -0.220527
C48   C     C_R   0.671020 0.494611 0.629095 -0.221352
C49   C     C_R   0.329072 0.489036 0.627955 -0.221163
C50   C     C_R   0.670950 0.505562 0.371585 -0.221949
C51   C     C_R   0.278948 0.488755 0.627634 -0.104683
C52   C     C_R   0.721072 0.505730 0.371890 -0.103898
C53   C     C_R   0.253713 0.499858 0.499501 0.360988
C54   C     C_R   0.746330 0.500173 0.500529 0.358832
Cu1   Cu    Cu3+1 0.500010 0.499990 0.643150 0.934557
Cu2   Cu    Cu3+1 0.499990 0.500010 0.356850 0.934554
H1    H     H_    0.347787 0.480356 0.728429 0.152554
H2    H     H_    0.652246 0.509889 0.270699 0.153168
H3    H     H_    0.571850 0.080708 0.621625 0.135789
H4    H     H_    0.428147 0.919291 0.378375 0.135761
H5    H     H_    0.500091 0.925990 0.746442 0.129654
H6    H     H_    0.499906 0.074010 0.253558 0.129658
H7    H     H_    0.564819 0.622430 0.099665 0.112749
H8    H     H_    0.435181 0.377567 0.900335 0.112155
H9    H     H_    0.259648 0.480320 0.726953 0.138625
H10   H     H_    0.740355 0.509784 0.272152 0.140235
H11   H     H_    0.121501 0.190147 0.574634 0.187841
H12   H     H_    0.878565 0.800828 0.388561 0.188379
H13   H     H_    0.652371 0.490268 0.729878 0.151074
H14   H     H_    0.347643 0.519487 0.271010 0.150432
H15   H     H_    0.740486 0.490552 0.728880 0.140178
H16   H     H_    0.259499 0.519403 0.272073 0.138564
H17   H     H_    0.878851 0.199536 0.612488 0.188359
H18   H     H_    0.121291 0.809681 0.424504 0.187825
H19   H     H_    0.963819 0.195686 0.613728 0.139233
H20   H     H_    0.036323 0.813818 0.424530 0.137275
H21   H     H_    0.036532 0.186189 0.575207 0.137280
H22   H     H_    0.963528 0.804533 0.386756 0.139229
H23   H     H_    0.571750 0.918992 0.378590 0.135266
H24   H     H_    0.428248 0.081009 0.621410 0.135233
N1    N     N_R   0.202181 0.499858 0.499414 -0.469166
N2    N     N_R   0.797892 0.500206 0.500633 -0.468425
N3    N     N_3   0.500040 0.499970 0.858290 -0.154136
N4    N     N_3   0.499960 0.500030 0.141710 -0.154151
O1    O     O_R   0.500020 0.316850 0.620870 -0.581477
O2    O     O_R   0.499980 0.683150 0.379130 -0.581484
O3    O     O_R   0.500000 0.316860 0.379090 -0.587556
O4    O     O_R   0.500000 0.683140 0.620910 -0.587557
O5    O     O_R   0.430270 0.500020 0.620880 -0.584599
O6    O     O_R   0.569730 0.499980 0.379120 -0.584707
O7    O     O_R   0.430250 0.500030 0.379090 -0.585377
O8    O     O_R   0.569750 0.499970 0.620910 -0.585491
O9    O     O_2   0.203023 0.283891 0.552651 -0.535340
O10   O     O_2   0.797082 0.710764 0.424984 -0.537089
O11   O     O_2   0.797279 0.289666 0.576344 -0.537102
O12   O     O_2   0.202872 0.715812 0.446120 -0.535353
H25   H     H_    0.491908 0.708657 0.904608 0.112904
H26   H     H_    0.508092 0.291343 0.095392 0.112867
H27   H     H_    0.572937 0.413625 0.902004 0.112484
H28   H     H_    0.427066 0.586385 0.097998 0.111923

loop_
_geom_bond_atom_site_label_1
_geom_bond_atom_site_label_2
_ccdc_geom_bond_type
C1    O3    A    
Cu1   Cu2   S    
C27   C29   S    
C8    C26   A    
C14   C18   A    
C11   C47   A    
C42   N2    A    
C48   H13   S    
C38   H26   S    
C37   H25   S    
C19   H19   S    
C27   C33   S    
C26   H22   S    
C3    C9    A    
C35   C37   S    
C37   C40   S    
C44   N2    A    
C38   C39   S    
C9    C22   A    
C36   N3    S    
C21   H17   S    
C34   H6    S    
C49   H1    S    
C20   H20   S    
C3    C18   A    
C53   N1    S    
C51   H9    S    
Cu1   O4    S    
C40   N4    S    
C25   H21   S    
C39   H27   S    
Cu2   O7    S    
C41   O9    S    
C49   C51   A    
C50   C52   A    
C23   O5    A    
C2    O4    A    
C12   C48   A    
C30   H24   S    
C45   C47   A    
C28   C34   S    
C45   H16   S    
C24   O8    A    
C52   C54   A    
Cu2   N4    S    
C28   H4    S    
C10   C21   A    
C1    O1    A    
C46   C48   A    
C9    C43   A    
C13   C19   A    
C10   C44   A    
C50   H2    S    
C14   C20   A    
C36   C40   S    
Cu2   O6    S    
C4    C6    A    
C5    C7    A    
C15   C26   A    
C6    C8    A    
C3    C5    A    
C7    H11   S    
C29   C34   S    
C1    C32   S    
C2    C31   S    
C51   C53   A    
C32   C34   S    
Cu1   O1    S    
C35   C39   S    
C47   H14   S    
Cu1   O8    S    
C11   C49   A    
Cu2   O2    S    
C29   H23   S    
C41   N1    A    
C46   C54   A    
C31   C33   S    
C43   O12   S    
C46   H15   S    
C4    C17   A    
C16   C18   A    
C20   C22   A    
C8    H12   S    
C43   N1    A    
C23   O7    A    
C22   H18   S    
Cu1   N3    S    
C54   N2    S    
C52   H10   S    
C16   C25   A    
C15   C17   A    
C5    C41   A    
C30   C33   S    
C38   N4    S    
C27   C32   S    
C42   O10   S    
C28   C31   S    
Cu2   O3    S    
C24   O6    A    
C40   H28   S    
C12   C50   A    
C35   N4    S    
C12   C24   S    
C7    C25   A    
C13   C17   A    
C36   C38   S    
C39   N3    S    
C28   C30   S    
C29   C31   S    
C44   O11   S    
C27   H3    S    
C30   C32   S    
C11   C23   S    
C2    O2    A    
Cu1   O5    S    
C45   C53   A    
C33   H5    S    
C6    C42   A    
C13   C16   A    
C14   C15   A    
C37   N3    S    
C35   H7    S    
C36   H8    S    
C4    C10   A    
C19   C21   A    
