data_mof_unit_41798.cif
_audit_creation_date              2012-12-10T17:02:29-0500
_audit_creation_method            fapswitch 2.2
_symmetry_space_group_name_H-M    P1
_symmetry_Int_Tables_number       1
_space_group_crystal_system       triclinic
_cell_length_a                    10.829349
_cell_length_b                    11.028174
_cell_length_c                    9.853097
_cell_angle_alpha                 110.847444
_cell_angle_beta                  100.193079
_cell_angle_gamma                 91.329492
_cell_volume                      1077.57784677

loop_
_atom_site_label
_atom_site_type_symbol
_atom_type_description
_atom_site_fract_x
_atom_site_fract_y
_atom_site_fract_z
_atom_type_partial_charge
C1    C     C_R   0.490900 0.254056 0.440652 0.863916
C2    C     C_R   0.509099 0.745944 0.559347 0.863930
C3    C     C_2   0.486151 0.114830 0.407110 -0.336464
C4    C     C_2   0.513846 0.885170 0.592889 -0.336462
C5    C     C_2   0.502481 0.069539 0.516743 -0.122914
C6    C     C_2   0.497514 0.930460 0.483255 -0.122928
C7    C     C_2   0.511474 0.511142 0.082783 0.216148
C8    C     C_2   0.488526 0.488858 0.917218 0.216123
C9    C     C_R   0.262442 0.511971 0.500328 0.809304
C10   C     C_R   0.737555 0.488018 0.499668 0.809295
C11   C     C_R   0.164095 0.661771 0.762959 -0.273319
C12   C     C_R   0.835886 0.338199 0.237030 -0.273275
C13   C     C_R   0.131942 0.692486 0.902074 -0.068129
C14   C     C_R   0.868042 0.307459 0.097911 -0.068179
C15   C     C_R   0.018009 0.635289 0.911417 0.149395
C16   C     C_R   0.981994 0.364616 0.088563 0.149273
C17   C     C_R   0.936188 0.555465 0.780762 -0.155482
C18   C     C_R   0.063812 0.444455 0.219216 -0.155484
C19   C     C_R   0.962977 0.534779 0.638769 0.045604
C20   C     C_R   0.037017 0.465170 0.361215 0.045607
C21   C     C_R   0.085215 0.574244 0.632436 0.077428
C22   C     C_R   0.914775 0.425719 0.367550 0.077428
C23   C     C_R   0.873479 0.474251 0.503573 -0.180832
C24   C     C_R   0.126514 0.525716 0.496414 -0.180815
Cu1   Cu    Cu3+1 0.521920 0.521810 0.644910 0.982578
Cu2   Cu    Cu3+1 0.478080 0.478190 0.355090 0.982582
H1    H     H_    0.251979 0.706473 0.757118 0.162344
H2    H     H_    0.747993 0.293519 0.242875 0.162336
H3    H     H_    0.855620 0.504638 0.793831 0.197598
H4    H     H_    0.144377 0.495275 0.206133 0.197621
H5    H     H_    0.480319 0.864804 0.367920 0.210953
H6    H     H_    0.519676 0.135196 0.632078 0.210957
H7    H     H_    0.530708 0.951127 0.708007 0.198926
H8    H     H_    0.469288 0.048873 0.291992 0.198906
H9    H     H_    0.625544 0.623333 0.933908 0.160328
H10   H     H_    0.374454 0.376665 0.066091 0.160311
N1    N     N_2   0.445130 0.445420 0.137360 -0.273131
N2    N     N_2   0.554870 0.554580 0.862640 -0.273143
O1    O     O_R   0.511700 0.332340 0.577400 -0.538098
O2    O     O_R   0.488300 0.667660 0.422600 -0.538088
O3    O     O_R   0.474680 0.295500 0.332650 -0.580273
O4    O     O_R   0.525320 0.704500 0.667350 -0.580264
O5    O     O_R   0.338170 0.518410 0.622370 -0.549582
O6    O     O_R   0.661830 0.481590 0.377630 -0.549590
O7    O     O_R   0.301150 0.481570 0.377630 -0.590523
O8    O     O_R   0.698850 0.518430 0.622370 -0.590521
N3    N     N_3   0.015920 0.338975 0.946872 -0.551005
H11   H     H_    0.032165 0.240652 0.904709 0.219772
H12   H     H_    0.100835 0.392238 0.958646 0.210246
N4    N     N_3   0.984097 0.660899 0.053105 -0.551034
H13   H     H_    0.967624 0.759141 0.095151 0.219720
H14   H     H_    0.899305 0.607426 0.041387 0.210339
C25   C     C_2   0.222341 0.777841 0.037038 0.857830
O9    O     O_2   0.236865 0.753058 0.149845 -0.552880
O10   O     O_R   0.293186 0.885898 0.037844 -0.762913
H15   H     H_    0.267469 0.906586 0.945144 0.289148
C26   C     C_2   0.777633 0.222113 0.962946 0.857728
O11   O     O_2   0.763143 0.246873 0.850118 -0.552923
O12   O     O_R   0.706747 0.114087 0.962156 -0.762897
H16   H     H_    0.732426 0.093420 0.054881 0.289144
N5    N     N_3   0.390790 0.392544 0.817351 -0.498675
H17   H     H_    0.409613 0.302515 0.825260 0.191190
H18   H     H_    0.305162 0.417608 0.849841 0.191661
N6    N     N_3   0.609213 0.607456 0.182652 -0.498675
H19   H     H_    0.590394 0.697487 0.174744 0.191190
H20   H     H_    0.694842 0.582388 0.150165 0.191641

loop_
_geom_bond_atom_site_label_1
_geom_bond_atom_site_label_2
_ccdc_geom_bond_type
Cu1   O4    S    
C10   O8    A    
C19   C23   A    
O10   H15   S    
Cu2   N1    S    
C9    O7    A    
C18   H4    S    
C2    O2    A    
C10   C23   S    
C17   H3    S    
C2    C4    S    
N3    H11   S    
Cu2   O7    S    
C11   H1    S    
C8    N5    S    
C3    C5    D    
C5    H6    S    
N6    H19   S    
Cu1   O5    S    
C13   C15   A    
N4    H13   S    
C7    N1    D    
C15   N4    S    
Cu2   O6    S    
O12   H16   S    
N3    H12   S    
C16   C18   A    
C25   O9    D    
Cu1   O1    S    
C11   C13   A    
Cu2   O2    S    
C26   O11   D    
N5    H17   S    
C8    N2    D    
C2    O4    A    
C9    C24   S    
C16   N3    S    
C1    O3    A    
H10   N1    S    
C17   C19   A    
C12   C14   A    
C6    H5    S    
C13   C25   S    
C25   O10   S    
C5    C6    S    
Cu1   N2    S    
C14   C16   A    
C7    N6    S    
C26   O12   S    
C9    O5    A    
C1    O1    A    
C10   O6    A    
C12   C22   A    
C7    C8    S    
H9    N2    S    
C12   H2    S    
C18   C20   A    
C4    C6    D    
C21   C24   A    
N4    H14   S    
C15   C17   A    
C14   C26   S    
C4    H7    S    
C3    H8    S    
C19   C21   A    
Cu1   Cu2   S    
C22   C23   A    
Cu1   O8    S    
C11   C21   A    
N5    H18   S    
C20   C24   A    
Cu2   O3    S    
C20   C22   A    
C1    C3    S    
N6    H20   S    
