data_mof_unit_21195.cif
_audit_creation_date              2012-12-10T19:00:15-0500
_audit_creation_method            fapswitch 2.2
_symmetry_space_group_name_H-M    P1
_symmetry_Int_Tables_number       1
_space_group_crystal_system       triclinic
_cell_length_a                    9.56485
_cell_length_b                    10.813078
_cell_length_c                    13.488767
_cell_angle_alpha                 90.770403
_cell_angle_beta                  73.58891
_cell_angle_gamma                 90.727135
_cell_volume                      1338.06697301

loop_
_atom_site_label
_atom_site_type_symbol
_atom_type_description
_atom_site_fract_x
_atom_site_fract_y
_atom_site_fract_z
_atom_type_partial_charge
C1    C     C_R   0.500129 0.737378 0.501504 0.801143
C2    C     C_R   0.449240 0.450102 0.972516 0.062092
C3    C     C_R   0.494476 0.445319 0.863403 0.104447
C4    C     C_R   0.553794 0.474252 0.027033 0.014013
C5    C     C_R   0.703673 0.465447 0.973475 0.172678
C6    C     C_R   0.747207 0.437632 0.868372 -0.245470
C7    C     C_R   0.644424 0.426380 0.814209 -0.200793
C8    C     C_R   0.514438 0.511910 0.131882 -0.073645
C9    C     C_R   0.767684 0.496188 0.132395 -0.181511
C10   C     C_R   0.386468 0.453384 0.809165 -0.101460
C11   C     C_R   0.401271 0.932807 0.465059 0.117746
C12   C     C_R   0.424291 0.485511 0.698420 0.786670
C13   C     C_R   0.497796 0.870490 0.506421 -0.087441
C14   C     C_R   0.586963 0.937758 0.554717 -0.193766
C15   C     C_R   0.586063 0.066831 0.553809 -0.176849
C16   C     C_R   0.496442 0.128776 0.504290 -0.053434
C17   C     C_R   0.400160 0.060443 0.463714 0.098050
C18   C     C_3   0.386919 0.059801 0.355608 -0.466202
C19   C     C_3   0.386988 0.920126 0.358264 -0.428799
C20   C     C_R   0.953592 0.432406 0.428149 0.234233
C21   C     C_R   0.900698 0.574570 0.565346 -0.086665
C22   C     C_R   0.049418 0.574421 0.565473 -0.085927
C23   C     C_R   0.499615 0.262299 0.499437 0.804972
C24   C     C_R   0.101149 0.433469 0.427597 0.381182
C25   C     C_3   0.114220 0.297747 0.409267 -0.597311
C26   C     C_3   0.953412 0.295128 0.414581 -0.280731
C27   C     C_R   0.576931 0.505379 0.300493 0.806944
C28   C     C_R   0.808860 0.483247 0.025692 -0.200532
C29   C     C_R   0.619960 0.506014 0.186997 -0.133408
C30   C     C_R   0.240407 0.429155 0.862860 -0.206340
C31   C     C_R   0.202325 0.403032 0.967912 -0.137336
C32   C     C_R   0.303732 0.418344 0.023246 -0.142439
Cu1   Cu    Cu3+1 0.359330 0.500020 0.500010 0.966913
Cu2   Cu    Cu3+1 0.640670 0.499980 0.499990 0.952975
H1    H     H_    0.280855 0.094405 0.350994 0.199319
H2    H     H_    0.484084 0.100096 0.298758 0.221073
H3    H     H_    0.281036 0.877299 0.357387 0.207762
H4    H     H_    0.484532 0.878347 0.303098 0.213583
H5    H     H_    0.824213 0.633181 0.619665 0.150449
H6    H     H_    0.084230 0.632836 0.619934 0.146550
H7    H     H_    0.189060 0.278036 0.331372 0.219992
H8    H     H_    0.137390 0.247709 0.474187 0.208219
H9    H     H_    0.861315 0.424250 0.827731 0.137899
H10   H     H_    0.885566 0.247108 0.484496 0.156282
H11   H     H_    0.922599 0.484690 0.983475 0.136969
H12   H     H_    0.156744 0.425562 0.822981 0.148087
H13   H     H_    0.269629 0.397301 0.104585 0.193884
H14   H     H_    0.685500 0.393968 0.735595 0.180861
H15   H     H_    0.658964 0.890911 0.590847 0.153941
N1    N     N_R   0.852320 0.499070 0.499340 -0.215172
N2    N     N_R   0.148230 0.499110 0.499340 -0.193147
O1    O     O_R   0.381190 0.680360 0.500000 -0.576341
O2    O     O_R   0.618780 0.680320 0.499990 -0.577196
O3    O     O_R   0.323230 0.500000 0.650990 -0.586448
O4    O     O_R   0.560820 0.499960 0.650980 -0.600880
O5    O     O_R   0.381220 0.319680 0.500010 -0.591935
O6    O     O_R   0.618810 0.319640 0.500000 -0.588678
O7    O     O_R   0.439180 0.500040 0.349020 -0.546009
O8    O     O_R   0.676770 0.500000 0.349010 -0.574131
H16   H     H_    0.851708 0.500611 0.171866 0.201073
H17   H     H_    0.657319 0.117924 0.589676 0.143552
C33   C     C_2   0.921972 0.253947 0.316050 0.925860
O9    O     O_2   0.830220 0.173327 0.318850 -0.602875
O10   O     O_R   0.997191 0.306907 0.221902 -0.790957
H18   H     H_    0.965708 0.270247 0.161981 0.317064
C34   C     C_2   0.385975 0.593493 0.170626 0.836636
O11   O     O_2   0.275419 0.556509 0.233701 -0.601448
O12   O     O_R   0.391716 0.712956 0.131384 -0.757050
H19   H     H_    0.298465 0.760356 0.162332 0.331915
H20   H     H_    0.093939 0.371501 0.007396 0.147297

loop_
_geom_bond_atom_site_label_1
_geom_bond_atom_site_label_2
_ccdc_geom_bond_type
C25   H8    S    
Cu2   O6    S    
C2    C4    A    
C8    C34   S    
C6    C7    A    
C19   H4    S    
C27   C29   S    
C5    C28   A    
C18   H1    S    
C10   C30   A    
C30   H12   S    
C34   O12   S    
C31   C32   A    
C21   H5    S    
C9    C29   A    
C30   C31   A    
C4    C8    A    
C9    H16   S    
C22   H6    S    
O10   H18   S    
Cu1   O5    S    
C17   C18   S    
C26   C33   S    
C26   H10   S    
Cu2   O4    S    
C3    C10   A    
C27   O8    A    
C13   C14   A    
C7    H14   S    
Cu1   O1    S    
C11   C13   A    
C11   C19   S    
Cu1   O7    S    
C20   C26   S    
C24   N2    A    
C8    C29   A    
C10   C12   S    
C21   N1    A    
C32   H13   S    
Cu1   Cu2   S    
C34   O11   D    
C16   C23   S    
C2    C3    A    
C6    H9    S    
C15   H17   S    
C5    C6    A    
C1    O1    A    
C12   O3    A    
C28   H11   S    
Cu2   N1    S    
C12   O4    A    
Cu1   N2    S    
C33   O10   S    
C15   C16   A    
C14   H15   S    
C16   C17   A    
C23   O5    A    
C1    C13   S    
C24   C25   S    
Cu2   O2    S    
C2    C32   A    
C18   C19   S    
C25   H7    S    
Cu1   O3    S    
C23   O6    A    
C1    O2    A    
C14   C15   A    
C4    C5    A    
C20   N1    A    
C19   H3    S    
C3    C7    A    
C25   C26   S    
C21   C22   A    
Cu2   O8    S    
C18   H2    S    
O12   H19   S    
C31   H20   S    
C11   C17   A    
C33   O9    D    
C20   C24   A    
C9    C28   A    
C22   N2    A    
C27   O7    A    
