data_mof_unit_63056.cif
_audit_creation_date              2012-10-26T17:27:56-0400
_audit_creation_method            fapswitch 2.2
_symmetry_space_group_name_H-M    P1
_symmetry_Int_Tables_number       1
_space_group_crystal_system       triclinic
_cell_length_a                    18.764576
_cell_length_b                    18.743928
_cell_length_c                    18.833725
_cell_angle_alpha                 109.29826
_cell_angle_beta                  109.890232
_cell_angle_gamma                 109.133342
_cell_volume                      5104.9224741

loop_
_atom_site_label
_atom_site_type_symbol
_atom_type_description
_atom_site_fract_x
_atom_site_fract_y
_atom_site_fract_z
_atom_type_partial_charge
C1    C     C_R   0.618556 0.618719 0.499980 0.588058
C2    C     C_R   0.834768 0.774967 0.547976 -0.005022
C3    C     C_3   0.887637 0.730545 0.545306 -0.194458
C4    C     C_R   0.379911 0.499129 0.380590 0.603006
C5    C     C_3   0.816406 0.656698 0.540228 -0.044895
C6    C     C_R   0.681359 0.425976 0.685996 0.031422
C7    C     C_R   0.687621 0.502009 0.686841 0.026884
C8    C     C_R   0.762266 0.581257 0.756793 -0.159523
C9    C     C_R   0.827922 0.581163 0.821773 -0.146214
C10   C     C_R   0.817939 0.502020 0.818866 0.019875
C11   C     C_R   0.742530 0.426109 0.749883 0.013561
C12   C     C_3   0.200762 0.420478 0.183329 0.075001
C13   C     C_3   0.695396 0.329628 0.709662 -0.268668
C14   C     C_3   0.625075 0.329598 0.637187 -0.253902
C15   C     C_R   0.255332 0.237570 0.429826 -0.024453
C16   C     C_R   0.383159 0.381216 0.501780 0.564902
C17   C     C_R   0.322132 0.314016 0.506703 -0.049447
C18   C     C_R   0.327794 0.324054 0.586838 0.062771
C19   C     C_R   0.259655 0.261273 0.585958 0.044087
C20   C     C_R   0.186802 0.189374 0.505318 0.000135
C21   C     C_R   0.187851 0.177931 0.428805 0.013034
C22   C     C_3   0.121408 0.159040 0.342511 0.015060
C23   C     C_3   0.213398 0.443464 0.274892 -0.140646
C24   C     C_3   0.196845 0.224393 0.343650 0.002978
C25   C     C_R   0.005619 0.618986 0.124153 0.582539
C26   C     C_R   0.123243 0.499896 0.122953 0.591064
C27   C     C_R   0.004193 0.381292 0.885381 0.541085
C28   C     C_R   0.619847 0.500418 0.619587 0.570028
C29   C     C_R   0.884351 0.500316 0.884510 0.545736
C30   C     C_R   0.998637 0.118073 0.617685 0.535100
C31   C     C_R   0.881148 0.882047 0.500922 0.541358
C32   C     C_R   0.002274 0.882765 0.382220 0.573143
C33   C     C_R   0.118782 0.120775 0.502126 0.575836
C34   C     C_3   0.312619 0.499232 0.312704 0.039563
C35   C     C_R   0.931088 0.684432 0.183001 -0.042367
C36   C     C_R   0.009183 0.687548 0.192943 -0.029906
C37   C     C_R   0.089476 0.763934 0.261312 0.004750
C38   C     C_R   0.088568 0.831952 0.322965 -0.000196
C39   C     C_R   0.007542 0.821584 0.315547 -0.040303
C40   C     C_3   0.304425 0.580958 0.321926 -0.086716
C41   C     C_R   0.930288 0.750251 0.242753 0.016032
C42   C     C_3   0.852149 0.687812 0.238052 -0.054728
C43   C     C_3   0.852880 0.615164 0.171527 -0.241328
C44   C     C_R   0.980720 0.233293 0.807460 -0.014490
C45   C     C_R   0.770191 0.708823 0.543685 -0.026295
C46   C     C_R   0.002359 0.315276 0.816648 0.010489
C47   C     C_R   0.022494 0.331834 0.755889 -0.143024
C48   C     C_R   0.019737 0.266400 0.688909 -0.149201
C49   C     C_R   0.999095 0.184769 0.683566 0.020142
C50   C     C_R   0.980790 0.171611 0.744946 0.012274
C51   C     C_3   0.954353 0.106757 0.773548 -0.040306
C52   C     C_3   0.204214 0.525083 0.282770 -0.150733
C53   C     C_3   0.955376 0.177832 0.845557 -0.206856
C54   C     C_3   0.191024 0.500096 0.190574 0.065725
C55   C     C_3   0.289632 0.554338 0.229325 0.110407
C56   C     C_R   0.682834 0.686179 0.498723 -0.001929
C57   C     C_3   0.298742 0.474567 0.221123 0.113204
C58   C     C_2   0.405085 0.398023 0.671289 0.624697
C59   C     C_2   0.173692 0.770795 0.270473 0.635570
C60   C     C_2   0.171505 0.911766 0.396172 0.623938
C61   C     C_2   0.771918 0.695619 0.200986 0.592988
C62   C     C_2   0.572198 0.725095 0.423431 0.570310
C63   C     C_R   0.662217 0.739482 0.466116 0.031465
C64   C     C_R   0.728870 0.805912 0.469810 -0.141877
C65   C     C_R   0.814548 0.819976 0.505658 -0.020039
Cu1   Cu    Cu3+1 0.500490 0.438210 0.438660 0.960478
Cu2   Cu    Cu3+1 0.499510 0.561790 0.561340 1.012897
Cu3   Cu    Cu3+1 0.942090 0.438240 0.003860 0.965097
Cu4   Cu    Cu3+1 0.065700 0.561800 0.003830 0.998153
Cu5   Cu    Cu3+1 0.937720 0.000020 0.437750 1.002945
Cu6   Cu    Cu3+1 0.062280 0.000080 0.562350 0.959566
H1    H     H_    0.164277 0.545999 0.307076 0.153116
H2    H     H_    0.348174 0.647506 0.379349 0.158314
H3    H     H_    0.089325 0.090650 0.289671 0.183726
H4    H     H_    0.193866 0.283765 0.347190 0.155328
H5    H     H_    0.867116 0.686825 0.300078 0.092809
H6    H     H_    0.868392 0.572177 0.195254 0.142862
H7    H     H_    0.796424 0.580130 0.104318 0.164037
H8    H     H_    0.039218 0.394448 0.759429 0.141390
H9    H     H_    0.034990 0.279909 0.642636 0.122918
H10   H     H_    0.888712 0.048589 0.724752 0.154302
H11   H     H_    0.889613 0.161675 0.837515 0.136785
H12   H     H_    0.950567 0.766287 0.607421 0.128750
H13   H     H_    0.007802 0.203956 0.912726 0.166417
H14   H     H_    0.182704 0.397057 0.293833 0.125856
H15   H     H_    0.713074 0.844016 0.441141 0.183175
H16   H     H_    0.893304 0.713113 0.485729 0.156960
H17   H     H_    0.725564 0.527266 0.459252 0.259115
H18   H     H_    0.737037 0.583050 0.405643 0.261464
H19   H     H_    0.536241 0.472646 0.743458 0.342228
H20   H     H_    0.206006 0.268727 0.663764 0.231839
H21   H     H_    0.272438 0.224471 0.677757 0.258779
H22   H     H_    0.087830 0.243625 0.408246 0.233710
H23   H     H_    0.838716 0.648000 0.598011 0.147320
H24   H     H_    0.005522 0.139754 0.338362 0.262717
H25   H     H_    0.270816 0.230722 0.285123 0.249376
H26   H     H_    0.226922 0.134555 0.281234 0.253825
H27   H     H_    0.249314 0.714900 0.275722 0.353510
H28   H     H_    0.292899 0.963638 0.495081 0.344087
H29   H     H_    0.642581 0.643431 0.156252 0.348827
H30   H     H_    0.398124 0.639123 0.239384 0.271509
H31   H     H_    0.311419 0.577632 0.138633 0.242227
H32   H     H_    0.083725 0.141195 0.845147 0.245486
H33   H     H_    0.021114 0.042065 0.755297 0.257560
H34   H     H_    0.770382 0.642536 0.760429 0.128103
H35   H     H_    0.326067 0.437238 0.124085 0.219508
H36   H     H_    0.338593 0.387532 0.183045 0.238029
H37   H     H_    0.167468 0.293486 0.119995 0.238593
H38   H     H_    0.150647 0.337412 0.055582 0.214134
H39   H     H_    0.495393 0.776186 0.389997 0.342142
H40   H     H_    0.885373 0.642464 0.874419 0.139223
H41   H     H_    0.731497 0.299836 0.687244 0.142443
H42   H     H_    0.672645 0.308424 0.750230 0.157677
H43   H     H_    0.620207 0.299288 0.572843 0.150270
H44   H     H_    0.561943 0.308941 0.636328 0.177692
N1    N     N_3   0.771066 0.575763 0.457323 -0.617593
N2    N     N_3   0.264192 0.273164 0.667066 -0.568730
N3    N     N_3   0.059569 0.189505 0.347121 -0.628687
N4    N     N_3   0.214212 0.183343 0.275431 -0.620498
N5    N     N_3   0.330883 0.614249 0.204019 -0.599048
N6    N     N_3   0.022046 0.085310 0.808108 -0.615993
N7    N     N_3   0.350564 0.447841 0.187633 -0.575256
N8    N     N_3   0.143708 0.333691 0.107209 -0.610524
O1    O     O_R   0.590590 0.537990 0.448210 -0.508798
O2    O     O_R   0.051820 0.090220 0.642110 -0.526457
O3    O     O_R   0.857230 0.909860 0.447430 -0.502453
O4    O     O_R   0.589760 0.642350 0.551800 -0.499939
O5    O     O_R   0.962420 0.909900 0.552660 -0.521002
O6    O     O_R   0.948170 0.909880 0.357990 -0.466513
O7    O     O_R   0.053360 0.909920 0.463210 -0.495646
O8    O     O_R   0.037580 0.090200 0.447440 -0.528053
O9    O     O_R   0.142770 0.090240 0.552670 -0.494599
O10   O     O_R   0.409550 0.447830 0.357350 -0.499739
O11   O     O_R   0.408710 0.552190 0.460940 -0.504739
O12   O     O_R   0.055390 0.642370 0.093330 -0.486056
O13   O     O_R   0.410240 0.357650 0.448200 -0.517662
O14   O     O_R   0.409410 0.462010 0.551790 -0.492555
O15   O     O_R   0.591290 0.447810 0.539060 -0.519095
O16   O     O_R   0.590450 0.552170 0.642650 -0.497245
O17   O     O_R   0.951010 0.538020 0.093350 -0.514126
O18   O     O_2   0.395719 0.437366 0.730573 -0.471577
O19   O     O_R   0.488854 0.421896 0.683246 -0.707588
O20   O     O_2   0.228520 0.835612 0.279176 -0.476801
O21   O     O_R   0.189903 0.702770 0.268866 -0.695041
O22   O     O_2   0.179429 0.983523 0.411794 -0.514471
O23   O     O_R   0.042570 0.447840 0.094710 -0.494857
O24   O     O_R   0.240138 0.904786 0.447395 -0.662940
O25   O     O_2   0.776462 0.757485 0.190153 -0.480500
O26   O     O_R   0.691978 0.631575 0.180092 -0.690071
O27   O     O_2   0.509177 0.653343 0.389360 -0.521266
O28   O     O_R   0.559422 0.793730 0.420432 -0.701636
O29   O     O_R   0.146960 0.552180 0.094690 -0.487625
O30   O     O_R   0.952400 0.357670 0.914360 -0.512598
O31   O     O_R   0.056780 0.462020 0.914330 -0.519169
O32   O     O_R   0.860840 0.447860 0.913000 -0.511447
O33   O     O_R   0.965220 0.552200 0.912980 -0.516895
O34   O     O_R   0.946640 0.090180 0.536890 -0.512483

loop_
_geom_bond_atom_site_label_1
_geom_bond_atom_site_label_2
_ccdc_geom_bond_type
C27   O30   A    
C30   O34   A    
C9    H40   S    
C41   C42   S    
C38   C60   S    
H25   N4    S    
C35   C36   A    
C58   O18   D    
C47   H8    S    
Cu3   O32   S    
C8    H34   S    
C32   O7    A    
C5    H23   S    
H31   N5    S    
C7    C8    A    
C39   C41   A    
C43   H7    S    
C12   C23   S    
C37   C38   A    
C53   H13   S    
C34   C40   S    
C21   C22   S    
C36   C37   A    
C1    C56   S    
C13   H41   S    
C38   C39   A    
C14   H44   S    
C40   H2    S    
C31   C65   S    
C18   C19   A    
C32   C39   S    
C26   O23   A    
Cu5   O8    S    
C57   N7    S    
C46   C47   A    
C44   C53   S    
C18   C58   S    
C16   O14   A    
C45   C56   A    
C52   C54   S    
C8    C9    A    
C24   N4    S    
C34   C57   S    
H20   N2    S    
Cu5   Cu6   S    
C60   O24   S    
C35   C43   S    
C9    C10   A    
C51   H10   S    
C29   O32   A    
Cu5   O3    S    
C27   O31   A    
Cu1   Cu2   S    
Cu6   O9    S    
C30   O2    A    
C59   O20   D    
C2    C45   A    
C13   C14   S    
H30   N5    S    
H35   N7    S    
C28   O16   A    
C31   O5    A    
C35   C41   A    
C26   C54   S    
C64   H15   S    
C32   O6    A    
C44   C46   A    
C50   C51   S    
C55   N5    S    
H24   N3    S    
C4    C34   S    
Cu4   O33   S    
C62   O28   S    
C3    H16   S    
C25   O17   A    
C28   O15   A    
H39   O28   S    
C6    C11   A    
H38   N8    S    
H33   N6    S    
C40   C52   S    
C5    C45   S    
Cu5   O6    S    
C7    C28   S    
C53   H11   S    
C51   C53   S    
H17   N1    S    
H21   N2    S    
C62   C63   S    
C52   H1    S    
Cu2   O4    S    
C6    C14   S    
Cu1   O10   S    
C58   O19   S    
C47   C48   A    
Cu1   O15   S    
C40   C55   S    
Cu2   O11   S    
C17   C18   A    
C56   C63   A    
H19   O19   S    
C42   C61   S    
C37   C59   S    
C29   O33   A    
Cu1   O13   S    
C12   C57   S    
C33   O9    A    
C48   C49   A    
C30   C49   S    
C59   O21   S    
Cu3   O30   S    
C55   C57   S    
C5    N1    S    
C3    H12   S    
C51   N6    S    
C22   C24   S    
Cu6   O5    S    
Cu3   O17   S    
C42   C43   S    
C20   C33   S    
H37   N8    S    
H32   N6    S    
Cu2   O16   S    
C27   C46   S    
C4    O11   A    
C44   C50   A    
C22   N3    S    
H28   O24   S    
C54   C55   S    
C15   C24   S    
C23   C34   S    
C62   O27   D    
H27   O21   S    
Cu4   O29   S    
Cu3   Cu4   S    
C1    O4    A    
C3    C5    S    
C2    C65   A    
C24   H4    S    
Cu3   O23   S    
C6    C7    A    
H29   O26   S    
C43   H6    S    
C60   O22   D    
C42   H5    S    
Cu4   O31   S    
C31   O3    A    
C61   O25   D    
Cu5   O34   S    
C64   C65   A    
C48   H9    S    
C19   C20   A    
C26   O29   A    
C2    C3    S    
C1    O1    A    
C23   H14   S    
C14   H43   S    
Cu6   O7    S    
C11   C13   S    
C10   C29   S    
C33   O8    A    
C23   C52   S    
C16   C17   S    
C12   N8    S    
H26   N4    S    
Cu1   O1    S    
C25   O12   A    
C12   C54   S    
H18   N1    S    
C10   C11   A    
C25   C36   S    
C63   C64   A    
C15   C21   A    
C20   C21   A    
C19   N2    S    
Cu4   O12   S    
C49   C50   A    
H22   N3    S    
C22   H3    S    
Cu6   O2    S    
H36   N7    S    
C15   C17   A    
Cu2   O14   S    
C61   O26   S    
C13   H42   S    
C4    O10   A    
C16   O13   A    
