data_mof_unit_63950.cif
_audit_creation_date              2013-03-05T16:10:51-0500
_audit_creation_method            fapswitch 2.2
_symmetry_space_group_name_H-M    P1
_symmetry_Int_Tables_number       1
_space_group_crystal_system       triclinic
_cell_length_a                    37.281742
_cell_length_b                    30.388839
_cell_length_c                    21.567975
_cell_angle_alpha                 89.998951
_cell_angle_beta                  54.435176
_cell_angle_gamma                 89.978976
_cell_volume                      19877.1798109

loop_
_atom_site_label
_atom_site_type_symbol
_atom_site_description
_atom_site_fract_x
_atom_site_fract_y
_atom_site_fract_z
_atom_type_partial_charge
O1    O     O_R   0.935720 0.537180 0.564270 -0.568415
O2    O     O_R   0.064280 0.537180 0.435730 -0.549418
O3    O     O_R   0.435720 0.037180 0.564270 -0.550081
O4    O     O_R   0.564280 0.037180 0.435730 -0.549999
O5    O     O_R   0.935680 0.462770 0.564310 -0.563937
O6    O     O_R   0.064320 0.462770 0.435690 -0.584220
O7    O     O_R   0.435680 0.962770 0.564310 -0.584364
O8    O     O_R   0.564320 0.962770 0.435690 -0.584515
C1    C     C_R   0.914876 0.499987 0.586437 0.790821
C2    C     C_R   0.085018 0.499958 0.413936 0.792218
C3    C     C_R   0.414990 0.999973 0.586015 0.796620
C4    C     C_R   0.585011 0.999956 0.413981 0.796905
O9    O     O_R   0.999990 0.537180 0.408860 -0.573089
O10   O     O_R   0.000010 0.537180 0.591140 -0.573712
O11   O     O_R   0.499990 0.037180 0.408860 -0.579255
O12   O     O_R   0.500010 0.037180 0.591140 -0.579264
O13   O     O_R   0.999950 0.462770 0.408890 -0.589774
O14   O     O_R   0.000050 0.462770 0.591110 -0.598673
O15   O     O_R   0.499950 0.962770 0.408890 -0.593872
O16   O     O_R   0.500050 0.962770 0.591110 -0.594073
C5    C     C_R   0.998424 0.500026 0.381533 0.793145
C6    C     C_R   0.001314 0.499987 0.618727 0.791663
C7    C     C_R   0.498943 0.999981 0.381005 0.795203
C8    C     C_R   0.501038 0.999978 0.619014 0.795180
Cu1   Cu    Cu3+1 0.000000 0.544030 0.500000 1.053602
Cu2   Cu    Cu3+1 0.500000 0.044030 0.500000 1.056330
Cu3   Cu    Cu3+1 0.000000 0.455920 0.500000 0.999085
Cu4   Cu    Cu3+1 0.500000 0.955920 0.500000 0.982385
C9    C     C_3   0.975638 0.543328 0.309885 0.195335
C10   C     C_3   0.029608 0.540044 0.684229 0.186859
C11   C     C_3   0.467759 0.038007 0.318729 0.185719
C12   C     C_3   0.532395 0.037841 0.681092 0.185416
H1    H     H_    0.996365 0.571737 0.303976 0.085863
H2    H     H_    0.012977 0.570887 0.685444 0.083190
H3    H     H_    0.482035 0.069928 0.320135 0.085807
H4    H     H_    0.518257 0.069835 0.679548 0.086300
C13   C     C_3   0.976372 0.543494 0.236876 0.193589
C14   C     C_3   0.028672 0.540869 0.757457 0.197831
C15   C     C_3   0.468676 0.039152 0.245515 0.200033
C16   C     C_3   0.531500 0.038993 0.754284 0.200116
H5    H     H_    0.996570 0.572064 0.200485 0.041626
H6    H     H_    0.011904 0.571724 0.789844 0.038453
H7    H     H_    0.483367 0.071086 0.215445 0.039995
H8    H     H_    0.516967 0.071009 0.784198 0.040741
H9    H     H_    0.064258 0.529169 0.240032 0.186403
H10   H     H_    0.939885 0.537653 0.755949 0.181678
H11   H     H_    0.557231 0.042269 0.246477 0.192160
H12   H     H_    0.442942 0.042581 0.753345 0.192444
H13   H     H_    0.066412 0.527734 0.132356 0.191921
H14   H     H_    0.937297 0.535985 0.864287 0.182233
H15   H     H_    0.560286 0.040232 0.137736 0.185404
H16   H     H_    0.439899 0.040580 0.862082 0.185244
C17   C     C_3   0.046179 0.499707 0.241114 -0.486127
C18   C     C_3   0.953983 0.506043 0.758776 -0.494963
C19   C     C_3   0.545634 0.009592 0.241474 -0.488207
C20   C     C_3   0.454396 0.009846 0.758503 -0.488113
C21   C     C_3   0.974718 0.458709 0.310285 -0.328019
C22   C     C_3   0.019502 0.456052 0.695848 -0.331387
C23   C     C_3   0.483938 0.954959 0.300520 -0.328480
C24   C     C_3   0.515842 0.954882 0.699715 -0.328841
C25   C     C_3   0.997979 0.500416 0.313069 -0.015403
C26   C     C_3   0.001826 0.500360 0.687087 -0.002842
C27   C     C_3   0.498376 0.000380 0.312707 -0.011398
C28   C     C_3   0.501608 0.000376 0.687308 -0.011158
H17   H     H_    0.993049 0.428697 0.306465 0.185861
H18   H     H_    0.997191 0.428702 0.704308 0.184953
H19   H     H_    0.508297 0.929302 0.289697 0.183020
H20   H     H_    0.491368 0.929356 0.710657 0.182428
H21   H     H_    0.940891 0.455067 0.363181 0.217623
H22   H     H_    0.052412 0.447772 0.643535 0.208986
H23   H     H_    0.451798 0.944230 0.352218 0.211919
H24   H     H_    0.547932 0.943979 0.648071 0.211811
C29   C     C_3   0.999205 0.500788 0.190036 0.062140
C30   C     C_3   0.000873 0.501279 0.809841 0.070433
C31   C     C_3   0.499087 0.001522 0.190198 0.064037
C32   C     C_3   0.500915 0.001535 0.809799 0.064202
C33   C     C_3   0.046950 0.499112 0.168890 -0.436534
C34   C     C_3   0.953229 0.505341 0.830992 -0.441188
C35   C     C_3   0.546387 0.008708 0.169265 -0.435128
C36   C     C_3   0.453647 0.008978 0.830709 -0.435378
C37   C     C_3   0.973568 0.460129 0.240069 -0.351124
C38   C     C_3   0.021395 0.457770 0.765253 -0.356163
C39   C     C_3   0.481600 0.956726 0.231607 -0.355261
C40   C     C_3   0.518190 0.956642 0.768616 -0.355745
H25   H     H_    0.938681 0.461188 0.259253 0.237400
H26   H     H_    0.056274 0.454879 0.745659 0.233216
H27   H     H_    0.446922 0.951639 0.251240 0.234790
H28   H     H_    0.552843 0.951365 0.749011 0.234578
H29   H     H_    0.988407 0.429423 0.206214 0.143911
H30   H     H_    0.003233 0.429114 0.803053 0.144335
H31   H     H_    0.501528 0.929351 0.191737 0.144707
H32   H     H_    0.498135 0.929380 0.808621 0.144190
H33   H     H_    0.063771 0.470231 0.241585 0.209138
H34   H     H_    0.932664 0.479169 0.761984 0.197424
H35   H     H_    0.568991 0.984507 0.236406 0.204102
H36   H     H_    0.430925 0.984884 0.763699 0.203854
H37   H     H_    0.063952 0.468701 0.135743 0.211498
H38   H     H_    0.932771 0.477080 0.867385 0.213274
H39   H     H_    0.568636 0.981746 0.131277 0.216288
H40   H     H_    0.431273 0.982143 0.868831 0.216153
C41   C     C_R   0.795764 0.468746 0.736011 -0.062855
C42   C     C_R   0.203718 0.523171 0.251547 -0.064872
C43   C     C_R   0.296334 0.022684 0.749099 -0.063648
C44   C     C_R   0.703654 0.022653 0.250940 -0.063390
H41   H     H_    0.776835 0.445180 0.781755 0.166302
H42   H     H_    0.222608 0.541986 0.199138 0.164839
H43   H     H_    0.277465 0.041040 0.802031 0.165623
H44   H     H_    0.722511 0.041037 0.198054 0.165561
C45   C     C_R   0.841653 0.469098 0.695360 0.404002
C46   C     C_R   0.157723 0.524480 0.295610 0.407447
C47   C     C_R   0.342335 0.023924 0.705014 0.405158
C48   C     C_R   0.657653 0.023900 0.295019 0.405236
C49   C     C_R   0.866437 0.500096 0.635602 -0.156735
C50   C     C_R   0.133251 0.499674 0.364151 -0.125946
C51   C     C_R   0.366771 0.999728 0.635790 -0.127090
C52   C     C_R   0.633230 0.999674 0.364189 -0.126963
C53   C     C_R   0.844329 0.531128 0.620964 -0.172375
C54   C     C_R   0.155457 0.473866 0.385823 -0.165559
C55   C     C_R   0.344554 0.974562 0.613443 -0.159874
C56   C     C_R   0.655462 0.974463 0.386477 -0.159776
H45   H     H_    0.862626 0.555158 0.575860 0.218056
H46   H     H_    0.137172 0.454829 0.438031 0.174565
H47   H     H_    0.362833 0.955981 0.560718 0.179363
H48   H     H_    0.637195 0.955859 0.439159 0.179329
C57   C     C_R   0.798511 0.530860 0.662988 -0.125960
C58   C     C_R   0.201329 0.472890 0.341127 -0.104687
C59   C     C_R   0.298681 0.973640 0.658162 -0.105252
C60   C     C_R   0.701336 0.973534 0.341761 -0.105266
H49   H     H_    0.782114 0.554926 0.650454 0.171955
H50   H     H_    0.218007 0.452895 0.358709 0.164417
H51   H     H_    0.281994 0.954137 0.640060 0.165961
H52   H     H_    0.718036 0.954000 0.359822 0.165721
C61   C     C_R   0.774031 0.499354 0.720067 0.064193
C62   C     C_R   0.225529 0.497230 0.273622 0.066067
C63   C     C_R   0.274493 0.997382 0.726357 0.064725
C64   C     C_R   0.725510 0.997313 0.273629 0.064938
C65   C     C_R   0.703440 0.538457 0.805554 -0.256582
C66   C     C_R   0.295705 0.515962 0.253496 -0.251974
C67   C     C_R   0.204267 0.016408 0.746767 -0.252292
C68   C     C_R   0.795711 0.016339 0.253265 -0.251766
H53   H     H_    0.722450 0.567361 0.798744 0.193782
H54   H     H_    0.276596 0.530740 0.309746 0.202741
H55   H     H_    0.223351 0.031430 0.690725 0.202626
H56   H     H_    0.776607 0.031344 0.309333 0.203088
C69   C     C_R   0.657372 0.539971 0.855882 0.346162
C70   C     C_R   0.341660 0.519722 0.207920 0.347069
C71   C     C_R   0.158299 0.020100 0.792367 0.350405
C72   C     C_R   0.841674 0.020053 0.207671 0.349888
C73   C     C_R   0.633042 0.501585 0.866272 -0.184437
C74   C     C_R   0.366361 0.501225 0.133888 -0.204471
C75   C     C_R   0.133631 0.001279 0.866134 -0.203677
C76   C     C_R   0.866367 0.001257 0.133869 -0.203663
C77   C     C_R   0.654932 0.463271 0.825483 -0.286335
C78   C     C_R   0.344292 0.480958 0.106487 -0.283106
C79   C     C_R   0.155728 0.980746 0.893276 -0.281581
C80   C     C_R   0.844296 0.980726 0.106692 -0.281724
H57   H     H_    0.635878 0.434465 0.832262 0.187913
H58   H     H_    0.363149 0.466267 0.050213 0.210314
H59   H     H_    0.136888 0.965801 0.949338 0.209990
H60   H     H_    0.863155 0.965799 0.050603 0.209888
C81   C     C_R   0.700973 0.461852 0.774870 0.371604
C82   C     C_R   0.298239 0.477878 0.151600 0.364384
C83   C     C_R   0.201788 0.977702 0.848133 0.365127
C84   C     C_R   0.798240 0.977663 0.151830 0.364957
C85   C     C_R   0.725484 0.499791 0.766031 -0.072605
C86   C     C_R   0.273868 0.495820 0.225854 -0.077247
C87   C     C_R   0.226142 0.995992 0.774141 -0.076822
C88   C     C_R   0.773863 0.995928 0.225854 -0.077073
O17   O     O_R   0.962770 0.564220 0.037230 -0.582954
O18   O     O_R   0.037230 0.564220 0.962770 -0.583547
O19   O     O_R   0.462770 0.064220 0.037230 -0.585256
O20   O     O_R   0.537230 0.064220 0.962770 -0.584701
C89   C     C_R   0.999992 0.585095 0.000026 0.781721
C90   C     C_R   0.499984 0.085090 0.000111 0.775527
O21   O     O_R   0.962780 0.499950 0.128370 -0.533511
O22   O     O_R   0.037220 0.499950 0.871630 -0.529864
O23   O     O_R   0.462780 0.999950 0.128370 -0.526387
O24   O     O_R   0.537220 0.999950 0.871630 -0.525981
O25   O     O_R   0.037180 0.500000 0.053970 -0.603574
O26   O     O_R   0.962820 0.500000 0.946030 -0.605089
O27   O     O_R   0.537180 0.000000 0.053970 -0.604510
O28   O     O_R   0.462820 0.000000 0.946030 -0.604674
C91   C     C_R   0.999896 0.500244 0.120305 0.794656
C92   C     C_R   0.000126 0.500777 0.879665 0.789015
C93   C     C_R   0.499856 0.001050 0.120346 0.787547
C94   C     C_R   0.500144 0.001068 0.879654 0.787556
Cu5   Cu    Cu3+1 0.955920 0.499940 0.044070 0.993283
Cu6   Cu    Cu3+1 0.044080 0.499940 0.955930 0.999720
Cu7   Cu    Cu3+1 0.455920 0.999940 0.044070 1.000288
Cu8   Cu    Cu3+1 0.544080 0.999940 0.955930 1.001886
O29   O     O_R   0.962780 0.435670 0.037210 -0.587937
O30   O     O_R   0.037220 0.435670 0.962790 -0.586253
O31   O     O_R   0.462780 0.935670 0.037210 -0.585362
O32   O     O_R   0.537220 0.935670 0.962790 -0.585101
C95   C     C_R   0.000008 0.414808 0.999988 0.769857
C96   C     C_R   0.500009 0.914808 0.999998 0.771647
O33   O     O_R   0.499930 0.435710 0.947300 -0.570306
O34   O     O_R   0.500070 0.435710 0.052700 -0.569818
O35   O     O_R   0.999930 0.935710 0.947300 -0.569204
O36   O     O_R   0.000070 0.935710 0.052700 -0.568868
C97   C     C_R   0.499992 0.415123 0.999992 0.732777
C98   C     C_R   0.999997 0.915153 0.000004 0.732484
O37   O     O_R   0.564240 0.499990 0.883000 -0.583300
O38   O     O_R   0.435760 0.499990 0.117000 -0.539318
O39   O     O_R   0.064240 0.999990 0.883000 -0.538274
O40   O     O_R   0.935760 0.999990 0.117000 -0.538239
O41   O     O_R   0.564250 0.499990 0.988510 -0.544646
O42   O     O_R   0.435750 0.499990 0.011490 -0.589505
O43   O     O_R   0.064250 0.999990 0.988510 -0.588266
O44   O     O_R   0.935750 0.999990 0.011490 -0.588331
C99   C     C_R   0.584848 0.501082 0.915031 0.854352
C100  C     C_R   0.414941 0.500916 0.085205 0.836242
C101  C     C_R   0.085056 0.000924 0.914801 0.837801
C102  C     C_R   0.914943 0.000921 0.085200 0.837616
Cu9   Cu    Cu3+1 0.499970 0.499990 0.937550 1.019600
Cu10  Cu    Cu3+1 0.500030 0.499990 0.062450 1.089630
Cu11  Cu    Cu3+1 0.999970 0.999990 0.937550 1.061775
Cu12  Cu    Cu3+1 0.000030 0.999990 0.062450 1.062429
O45   O     O_R   0.500010 0.564260 0.947230 -0.595991
O46   O     O_R   0.499990 0.564260 0.052770 -0.545224
O47   O     O_R   0.000010 0.064260 0.947230 -0.569863
O48   O     O_R   0.999990 0.064260 0.052770 -0.569783
C103  C     C_R   0.499963 0.585028 0.000039 0.837633
C104  C     C_R   0.000003 0.085021 0.999997 0.821259
C105  C     C_R   0.039592 0.702591 0.967512 -0.147485
C106  C     C_R   0.960341 0.702616 0.032674 -0.148929
C107  C     C_R   0.539592 0.202598 0.966249 -0.146907
C108  C     C_R   0.460015 0.202555 0.035770 -0.147749
H61   H     H_    0.070503 0.719804 0.942986 0.143891
H62   H     H_    0.929426 0.719850 0.057205 0.142878
H63   H     H_    0.570625 0.219863 0.940022 0.147278
H64   H     H_    0.428939 0.219783 0.062124 0.144066
C109  C     C_R   0.039618 0.656759 0.967343 -0.177209
C110  C     C_R   0.960327 0.656782 0.032823 -0.178265
C111  C     C_R   0.539681 0.156775 0.965826 -0.176843
C112  C     C_R   0.460072 0.156729 0.035563 -0.177685
H65   H     H_    0.070651 0.639620 0.942041 0.165444
H66   H     H_    0.929300 0.639660 0.058117 0.164222
H67   H     H_    0.570872 0.139673 0.938688 0.166900
H68   H     H_    0.428930 0.139589 0.062471 0.165874
C113  C     C_R   0.999977 0.633462 0.000068 -0.041672
C114  C     C_R   0.499918 0.133447 0.000470 -0.041860
C115  C     C_R   0.999965 0.725912 0.000088 0.145074
C116  C     C_R   0.499772 0.225859 0.001095 0.143655
C117  C     C_R   0.468096 0.297679 0.066578 -0.144261
C118  C     C_R   0.531341 0.297352 0.934711 -0.137622
C119  C     C_R   0.967206 0.797655 0.064954 -0.142748
C120  C     C_R   0.032730 0.797607 0.935149 -0.143360
H69   H     H_    0.443579 0.280185 0.118195 0.173197
H70   H     H_    0.555762 0.279606 0.883314 0.177591
H71   H     H_    0.941850 0.780078 0.115717 0.173284
H72   H     H_    0.058080 0.779993 0.884402 0.173284
C121  C     C_R   0.467068 0.343521 0.066756 0.388938
C122  C     C_R   0.532401 0.343172 0.933678 0.391199
C123  C     C_R   0.966192 0.843498 0.065442 0.388534
C124  C     C_R   0.033762 0.843448 0.934617 0.388786
C125  C     C_R   0.499825 0.366883 0.000101 -0.234845
C126  C     C_R   0.999983 0.866966 0.000020 -0.230125
C127  C     C_R   0.499752 0.274352 0.000855 -0.092138
C128  C     C_R   0.999965 0.774442 0.000064 -0.089400
C129  C     C_R   0.962444 0.297328 0.056894 -0.152661
C130  C     C_R   0.037624 0.297307 0.943046 -0.153146
C131  C     C_R   0.537557 0.797315 0.981763 -0.149537
C132  C     C_R   0.462574 0.797316 0.018162 -0.153488
H73   H     H_    0.933041 0.279931 0.101011 0.146014
H74   H     H_    0.067032 0.279892 0.898923 0.145346
H75   H     H_    0.566887 0.779899 0.967124 0.150204
H76   H     H_    0.433258 0.779901 0.032789 0.143793
C133  C     C_R   0.962309 0.343197 0.056576 -0.174743
C134  C     C_R   0.037745 0.343177 0.943375 -0.174495
C135  C     C_R   0.537670 0.843186 0.981182 -0.174296
C136  C     C_R   0.462418 0.843185 0.018779 -0.173427
H77   H     H_    0.932869 0.360433 0.100995 0.160234
H78   H     H_    0.067177 0.360399 0.898961 0.160237
H79   H     H_    0.567025 0.860415 0.966757 0.160599
H80   H     H_    0.433046 0.860411 0.033218 0.159595
C137  C     C_R   0.000023 0.366468 0.999979 -0.035523
C138  C     C_R   0.500033 0.866468 0.999986 -0.036075
C139  C     C_R   0.000038 0.274113 0.999968 0.095575
C140  C     C_R   0.500077 0.774120 0.999947 0.094807
C141  C     C_R   0.486751 0.702560 0.960343 -0.147962
C142  C     C_R   0.513407 0.702527 0.039516 -0.150255
C143  C     C_R   0.013977 0.202510 0.933271 -0.155033
C144  C     C_R   0.986094 0.202524 0.066669 -0.153984
H81   H     H_    0.476621 0.719989 0.929090 0.140101
H82   H     H_    0.523556 0.719930 0.070753 0.143085
H83   H     H_    0.024591 0.219910 0.881383 0.144380
H84   H     H_    0.975486 0.219935 0.118553 0.145612
C145  C     C_R   0.487037 0.656693 0.959874 -0.165751
C146  C     C_R   0.513020 0.656660 0.040096 -0.084050
C147  C     C_R   0.013649 0.156641 0.933415 -0.133773
C148  C     C_R   0.986396 0.156655 0.066545 -0.133562
H85   H     H_    0.476709 0.639497 0.928746 0.161126
H86   H     H_    0.523287 0.639443 0.071304 0.182618
H87   H     H_    0.024459 0.139413 0.881289 0.185458
H88   H     H_    0.975576 0.139439 0.118679 0.185828
C149  C     C_R   0.500006 0.633382 0.000007 -0.021990
C150  C     C_R   0.000015 0.133363 0.999986 -0.042785
C151  C     C_R   0.500093 0.725739 0.999916 0.088740
C152  C     C_R   0.000041 0.225720 0.999967 0.086821
O49   O     O_3   0.860438 0.439579 0.717336 -0.707487
H89   H     H_    0.889522 0.450865 0.701435 0.316365
O50   O     O_3   0.138608 0.549295 0.268373 -0.714326
H90   H     H_    0.107205 0.541223 0.295572 0.315172
O51   O     O_3   0.361500 0.048044 0.732872 -0.714788
H91   H     H_    0.392954 0.040001 0.705194 0.314419
O52   O     O_3   0.638473 0.048063 0.267215 -0.714926
H92   H     H_    0.607038 0.039994 0.294815 0.314391
N1    N     N_R   0.636335 0.580781 0.893891 0.113507
O53   O     O_R   0.600953 0.581138 0.963494 -0.371384
O54   O     O_R   0.655243 0.618092 0.861846 -0.346148
N2    N     N_R   0.362204 0.544550 0.236057 0.140908
O55   O     O_R   0.391314 0.574553 0.193466 -0.351074
O56   O     O_R   0.346492 0.542746 0.307941 -0.322904
N3    N     N_R   0.137700 0.045170 0.764553 0.140844
O57   O     O_R   0.108405 0.074951 0.807629 -0.363289
O58   O     O_R   0.153490 0.043795 0.692609 -0.324473
N4    N     N_R   0.862240 0.045120 0.235528 0.141197
O59   O     O_R   0.891495 0.074918 0.192506 -0.362304
O60   O     O_R   0.846453 0.043723 0.307470 -0.322626
N5    N     N_R   0.931170 0.550294 0.380205 0.136826
O61   O     O_R   0.899121 0.522997 0.401086 -0.326758
O62   O     O_R   0.923135 0.585229 0.421283 -0.362129
N6    N     N_R   0.074649 0.540620 0.613428 0.137109
O63   O     O_R   0.102854 0.509621 0.597773 -0.337920
O64   O     O_R   0.087047 0.573219 0.565963 -0.338315
N7    N     N_R   0.422803 0.035173 0.389440 0.135435
O65   O     O_R   0.396913 0.002338 0.402295 -0.339494
O66   O     O_R   0.408123 0.066486 0.439802 -0.342742
N8    N     N_R   0.577331 0.034768 0.610379 0.135570
O67   O     O_R   0.603075 0.001795 0.597655 -0.339429
O68   O     O_R   0.592139 0.065999 0.559873 -0.341625
N9    N     N_R   0.721977 0.422330 0.731710 0.127598
O69   O     O_R   0.756909 0.424516 0.661682 -0.315418
O70   O     O_R   0.703281 0.384257 0.758955 -0.319910
N10   N     N_R   0.277072 0.455851 0.121746 0.127420
O71   O     O_R   0.240981 0.433479 0.166401 -0.336923
O72   O     O_R   0.296238 0.454257 0.048531 -0.333143
N11   N     N_R   0.222978 0.955323 0.877651 0.127266
O73   O     O_R   0.259015 0.932902 0.832687 -0.337734
O74   O     O_R   0.203856 0.953426 0.950832 -0.331916
N12   N     N_R   0.777078 0.955294 0.122268 0.127216
O75   O     O_R   0.741060 0.932870 0.167192 -0.337948
O76   O     O_R   0.796208 0.953413 0.049083 -0.331934
O77   O     O_3   0.433133 0.363737 0.132805 -0.696531
H93   H     H_    0.429169 0.394149 0.121476 0.328474
O78   O     O_3   0.566185 0.362936 0.866970 -0.686149
H94   H     H_    0.569450 0.393867 0.876923 0.324033
O79   O     O_3   0.931296 0.863577 0.130552 -0.696966
H95   H     H_    0.928455 0.894424 0.119411 0.327731
O80   O     O_3   0.068665 0.863476 0.869488 -0.696742
H96   H     H_    0.071518 0.894323 0.880596 0.327812
O81   O     O_3   0.933625 0.547489 0.255022 -0.654275
H97   H     H_    0.925468 0.579081 0.265933 0.346060
O82   O     O_3   0.071567 0.540107 0.739250 -0.651955
H98   H     H_    0.083383 0.570478 0.723913 0.346667
O83   O     O_3   0.425900 0.035717 0.263648 -0.649908
H99   H     H_    0.412101 0.065237 0.281289 0.346489
O84   O     O_3   0.574266 0.035318 0.736132 -0.649236
H100  H     H_    0.588204 0.064760 0.718346 0.347569

loop_
_geom_bond_atom_site_label_1
_geom_bond_atom_site_label_2
_geom_bond_distance
_ccdc_geom_bond_type
O32   C96   1.294626 A    
O83   H99   0.993055 S    
O36   Cu12  1.964592 S    
C134  H78   1.083164 S    
C44   H44   1.083907 S    
O34   Cu10  1.964592 S    
N9    O69   1.301392 A    
C131  H75   1.083265 S    
C9    N5    1.472561 S    
O37   Cu9   1.961181 S    
C78   H58   1.083469 S    
C22   C38   1.539936 S    
C24   H24   1.109666 S    
C9    H1    1.115597 S    
C10   C14   1.559546 S    
C73   C77   1.399908 A    
C70   C74   1.415166 A    
C76   C80   1.404042 A    
N6    O63   1.301319 A    
O43   C101  1.302062 A    
C120  H72   1.083535 S    
C75   C79   1.404035 A    
O4    C4    1.294066 A    
C3    C51   1.462613 S    
O25   C91   1.290639 A    
O40   C102  1.301034 A    
C16   O84   1.407686 S    
C146  C149  1.404168 A    
C29   C37   1.551025 S    
C119  C128  1.399670 A    
Cu11  O47   1.964312 S    
N8    O67   1.301328 A    
O30   C95   1.294663 A    
C73   C99   1.461684 S    
C84   C88   1.412386 A    
O17   Cu5   1.964500 S    
N12   O75   1.301334 A    
C22   H22   1.109571 S    
O25   Cu6   1.976017 S    
O16   Cu4   1.977133 S    
O20   Cu8   1.964319 S    
O49   H89   0.989273 S    
C117  C121  1.393558 A    
C145  H85   1.083022 S    
O7    Cu4   1.961641 S    
C16   C32   1.562800 S    
C77   C81   1.400037 A    
C74   C100  1.473319 S    
O15   C7    1.291511 A    
Cu9   Cu10  2.695144 S    
O26   Cu5   1.976017 S    
O27   Cu8   1.976017 S    
O50   H90   0.988088 S    
C108  C116  1.403231 A    
C80   H60   1.083487 S    
O42   C100  1.302148 A    
O38   C100  1.301013 A    
O9    C5    1.290615 A    
C67   C87   1.399406 A    
C41   C61   1.401245 A    
O8    Cu4   1.961822 S    
O21   C91   1.290417 A    
C35   H39   1.113357 S    
O22   C92   1.290095 A    
C136  C138  1.403935 A    
C71   N3    1.437176 S    
O3    Cu2   1.960619 S    
C40   H28   1.112653 S    
C23   C39   1.539560 S    
N10   O71   1.301329 A    
C21   C25   1.556747 S    
C55   H47   1.083814 S    
C39   H31   1.113497 S    
C23   C27   1.558580 S    
C24   C28   1.558587 S    
C145  C149  1.404052 A    
C105  C109  1.392797 A    
C130  C139  1.402549 A    
C124  O80   1.382447 S    
O41   Cu10  1.958076 S    
C115  C128  1.474764 S    
C59   H51   1.083327 S    
O3    C3    1.294095 A    
O24   C94   1.289736 A    
C57   H49   1.083302 S    
N7    O65   1.301354 A    
C58   C62   1.397596 A    
O36   C98   1.298321 A    
N5    O61   1.301256 A    
C75   C101  1.473201 S    
O84   H100  0.993035 S    
C29   C33   1.560345 S    
C43   H43   1.083923 S    
C135  H79   1.083059 S    
C31   C35   1.560565 S    
C81   C85   1.413755 A    
O26   C92   1.291518 A    
C107  H63   1.083029 S    
O79   H95   0.988526 S    
C95   C137  1.468984 S    
O80   H96   0.988527 S    
O39   Cu11  1.961181 S    
C12   H4    1.115467 S    
C134  C137  1.404039 A    
C110  H66   1.082940 S    
C29   C91   1.489193 S    
C30   C92   1.490008 S    
C131  C140  1.402286 A    
N2    O55   1.301530 A    
C54   H46   1.083808 S    
N4    O60   1.301323 A    
C118  C127  1.398876 A    
C23   H19   1.113561 S    
O5    Cu3   1.961641 S    
C17   C25   1.547248 S    
C142  C146  1.393905 A    
C14   O82   1.407718 S    
C124  C126  1.421083 A    
O35   C98   1.298329 A    
C20   C28   1.547405 S    
C33   H37   1.113303 S    
C15   C31   1.562726 S    
C46   C50   1.420419 A    
C129  C133  1.393941 A    
C131  C135  1.393999 A    
H9    C17   1.112916 S    
C120  C128  1.399690 A    
C46   O50   1.381367 S    
O41   C99   1.298738 A    
O37   C99   1.298491 A    
O20   C90   1.295198 A    
C142  C151  1.402229 A    
N1    O54   1.301538 A    
C9    C25   1.569944 S    
C10   H2    1.115482 S    
C79   H59   1.083490 S    
O13   Cu3   1.977130 S    
C11   C27   1.566476 S    
C148  H88   1.083170 S    
C12   C28   1.566364 S    
C107  C116  1.403517 A    
C44   C48   1.396357 A    
C122  C125  1.421988 A    
C79   C83   1.400102 A    
Cu11  Cu12  2.695144 S    
C106  H62   1.082975 S    
C10   N6    1.472775 S    
C52   C56   1.402873 A    
C71   C75   1.415099 A    
O5    C1    1.295085 A    
O8    C4    1.292965 A    
O31   C96   1.294640 A    
C13   O81   1.407845 S    
C133  C137  1.404042 A    
O48   C104  1.301111 A    
O15   Cu4   1.977130 S    
C144  C148  1.393922 A    
C49   C53   1.403726 A    
O42   Cu9   1.958076 S    
C51   C55   1.402885 A    
C48   C52   1.420208 A    
C14   C30   1.561050 S    
C109  C113  1.403889 A    
C47   O51   1.381509 S    
C83   N11   1.441039 S    
C44   C64   1.399951 A    
C97   C125  1.465957 S    
C146  H86   1.082991 S    
C78   C82   1.400086 A    
C72   C76   1.415099 A    
C119  H71   1.083534 S    
O38   Cu10  1.961181 S    
C106  C110  1.392854 A    
Cu6   O30   1.964227 S    
C1    C49   1.469071 S    
O10   C6    1.291295 A    
C66   C70   1.398473 A    
H13   C33   1.113207 S    
C15   O83   1.407712 S    
C13   H5    1.117948 S    
O29   C95   1.294601 A    
C66   C86   1.399249 A    
C90   C114  1.469530 S    
O21   Cu5   1.977904 S    
C121  C125  1.421450 A    
C16   H8    1.117779 S    
C8    C28   1.485478 S    
O18   Cu6   1.964319 S    
C63   C87   1.467088 S    
C40   H32   1.113476 S    
C53   C57   1.392267 A    
O46   C103  1.301178 A    
C37   H25   1.112583 S    
C4    C52   1.462646 S    
C55   C59   1.391818 A    
C22   C26   1.557938 S    
C39   H27   1.112674 S    
C148  C150  1.404107 A    
O35   Cu11  1.964585 S    
C32   C40   1.548837 S    
C65   C85   1.402534 A    
O81   H97   0.993014 S    
C103  C149  1.469444 S    
C81   N9    1.440033 S    
O44   Cu11  1.958076 S    
N8    O68   1.301109 A    
C65   C69   1.400528 A    
C59   C63   1.397749 A    
O47   C104  1.301120 A    
C60   C64   1.397734 A    
C72   N4    1.437175 S    
O24   Cu8   1.977904 S    
N12   O76   1.301499 A    
C58   H50   1.083313 S    
C41   C45   1.396736 A    
O23   C93   1.289761 A    
C43   C47   1.396374 A    
O28   C94   1.292121 A    
C147  C150  1.404113 A    
C117  H69   1.083571 S    
C82   C86   1.412324 A    
C62   C86   1.466693 S    
O22   Cu6   1.977904 S    
C5    C25   1.486366 S    
C2    C50   1.463068 S    
C37   H29   1.113402 S    
C7    C27   1.485498 S    
C123  C126  1.421104 A    
O39   C101  1.301034 A    
N3    O57   1.301528 A    
C132  C136  1.393932 A    
O14   C6    1.291834 A    
C141  H81   1.083261 S    
C141  C151  1.402216 A    
C30   C38   1.549752 S    
H14   C34   1.113145 S    
N9    O70   1.301491 A    
O12   Cu2   1.976908 S    
O19   C90   1.294852 A    
C45   O49   1.380416 S    
C123  O79   1.382445 S    
C143  H83   1.083339 S    
O52   H92   0.988253 S    
C32   C36   1.560524 S    
C144  H84   1.083341 S    
O1    C1    1.295517 A    
N10   O72   1.301504 A    
C66   H54   1.084176 S    
O78   H94   0.987359 S    
C118  C122  1.392793 A    
C143  C147  1.393942 A    
C38   H26   1.112627 S    
C144  C152  1.402526 A    
C105  H61   1.082973 S    
C17   C33   1.541280 S    
C129  H73   1.083343 S    
C18   H34   1.113535 S    
C61   C85   1.473616 S    
C130  C134  1.393992 A    
C19   C35   1.541463 S    
N11   O73   1.301336 A    
C129  C139  1.402527 A    
C136  H80   1.083064 S    
H10   C18   1.113369 S    
C10   C26   1.567652 S    
C11   H3    1.115488 S    
C42   C46   1.396220 A    
C108  H64   1.083013 S    
C20   H36   1.113600 S    
C65   H53   1.083864 S    
C111  H67   1.082934 S    
C68   H56   1.084165 S    
C21   H17   1.113399 S    
C20   C36   1.541476 S    
O6    C2    1.293134 A    
O4    Cu2   1.960432 S    
C56   C60   1.391843 A    
C105  C115  1.403668 A    
C18   C26   1.547167 S    
C38   H30   1.113440 S    
C133  H77   1.083165 S    
C109  H65   1.082943 S    
Cu5   Cu6   2.673658 S    
C31   C39   1.548927 S    
C106  C115  1.403692 A    
C76   C102  1.473218 S    
C48   O52   1.381477 S    
N2    O56   1.301325 A    
O2    Cu1   1.960432 S    
O10   Cu1   1.976908 S    
C77   H57   1.082569 S    
Cu7   Cu8   2.673658 S    
C117  C127  1.399297 A    
O13   C5    1.293129 A    
C96   C138  1.469009 S    
O45   C103  1.301259 A    
C69   N1    1.441038 S    
C24   H20   1.113537 S    
O51   H91   0.988298 S    
C30   C34   1.560655 S    
C9    C13   1.558918 S    
C140  C151  1.470236 S    
H16   C36   1.113136 S    
C69   C73   1.413534 A    
C18   C34   1.541524 S    
O18   C89   1.295062 A    
C119  C123  1.393473 A    
C68   C88   1.399403 A    
C147  H87   1.083172 S    
C68   C72   1.398602 A    
N1    O53   1.300086 A    
O40   Cu12  1.961181 S    
O7    C3    1.292923 A    
C67   C71   1.398594 A    
O43   Cu12  1.958076 S    
C14   H6    1.117837 S    
Cu9   O45   1.964312 S    
C98   C126  1.464332 S    
O19   Cu7   1.964500 S    
C112  C114  1.404125 A    
C43   C63   1.399987 A    
C53   H45   1.083197 S    
C143  C152  1.402525 A    
C22   H18   1.113513 S    
C135  C138  1.404007 A    
O82   H98   0.993024 S    
N5    O62   1.301098 A    
C34   H38   1.113334 S    
O33   C97   1.298456 A    
O28   Cu7   1.976017 S    
Cu5   O29   1.964046 S    
O33   Cu9   1.964585 S    
C45   C49   1.420409 A    
O11   C7    1.291395 A    
O12   C8    1.291405 A    
C104  C150  1.469082 S    
C36   H40   1.113330 S    
O1    Cu1   1.960619 S    
O9    Cu1   1.976918 S    
C31   C93   1.490143 S    
C116  C127  1.473659 S    
C67   H55   1.084167 S    
C60   H52   1.083309 S    
Cu12  O48   1.964303 S    
H15   C35   1.113167 S    
C41   H41   1.083830 S    
N3    O58   1.301328 A    
O23   Cu7   1.977904 S    
C17   H33   1.113538 S    
O16   C8    1.291482 A    
C19   H35   1.113622 S    
O27   C93   1.292077 A    
O11   Cu2   1.976918 S    
C15   H7    1.117808 S    
C64   C88   1.467080 S    
C82   N10   1.441114 S    
O44   C102  1.302069 A    
C139  C152  1.470598 S    
C112  H68   1.082930 S    
C19   C27   1.547427 S    
C83   C87   1.412395 A    
C42   C62   1.399728 A    
C111  C114  1.403811 A    
N4    O59   1.301526 A    
Cu7   O31   1.964046 S    
C6    C26   1.485614 S    
O6    Cu3   1.961822 S    
C70   N2    1.437103 S    
C132  H76   1.083260 S    
O34   C97   1.299069 A    
C50   C54   1.403062 A    
N6    O64   1.301113 A    
N11   O74   1.301501 A    
C142  H82   1.083251 S    
C12   N8    1.472785 S    
C21   C37   1.540368 S    
O2    C2    1.294129 A    
C32   C94   1.490163 S    
C122  O78   1.381922 S    
H11   C19   1.113230 S    
C118  H70   1.083625 S    
C57   C61   1.399559 A    
H12   C20   1.113213 S    
C13   C29   1.558307 S    
O17   C89   1.295119 A    
C84   N12   1.441040 S    
O14   Cu3   1.977133 S    
C130  H74   1.083343 S    
C120  C124  1.393457 A    
Cu1   Cu3   2.677558 S    
C107  C111  1.392537 A    
Cu2   Cu4   2.677558 S    
C11   N7    1.472812 S    
C24   C40   1.539551 S    
N7    O66   1.301132 A    
C132  C140  1.402313 A    
C11   C15   1.559840 S    
C42   H42   1.083923 S    
C12   C16   1.559828 S    
C108  C112  1.392621 A    
Cu8   O32   1.964227 S    
C110  C113  1.403885 A    
C89   C113  1.469826 S    
C80   C84   1.400104 A    
C74   C78   1.404109 A    
C23   H23   1.109691 S    
C47   C51   1.420235 A    
C54   C58   1.391829 A    
C21   H21   1.109376 S    
O77   H93   0.988699 S    
Cu10  O46   1.964303 S    
C56   H48   1.083794 S    
C141  C145  1.393895 A    
C121  O77   1.382142 S    
