data_mof_unit_51704.cif
_audit_creation_date              2012-12-11T14:56:46-0500
_audit_creation_method            fapswitch 2.2
_symmetry_space_group_name_H-M    P1
_symmetry_Int_Tables_number       1
_space_group_crystal_system       triclinic
_cell_length_a                    10.592378
_cell_length_b                    10.671964
_cell_length_c                    17.266117
_cell_angle_alpha                 80.451832
_cell_angle_beta                  89.925843
_cell_angle_gamma                 119.90803
_cell_volume                      1660.34821857

loop_
_atom_site_label
_atom_site_type_symbol
_atom_type_description
_atom_site_fract_x
_atom_site_fract_y
_atom_site_fract_z
_atom_type_partial_charge
C1    C     C_R   0.225113 0.855661 0.129304 0.546937
C2    C     C_1   0.653384 0.346285 0.707806 -0.076848
C3    C     C_R   0.522007 0.723828 0.790116 0.169455
C4    C     C_R   0.635842 0.279363 0.087003 0.577827
C5    C     C_R   0.553841 0.688439 0.723010 0.154762
C6    C     C_R   0.678372 0.794202 0.671792 0.005644
C7    C     C_R   0.773297 0.932582 0.690373 -0.169547
C8    C     C_R   0.746335 0.966099 0.760145 -0.187360
C9    C     C_R   0.622642 0.862569 0.810991 0.004631
C10   C     C_R   0.141870 0.933030 0.779471 -0.109710
C11   C     C_R   0.140182 0.935141 0.700056 0.126087
C12   C     C_R   0.794222 0.424437 0.264668 -0.153991
C13   C     C_R   0.121989 0.810548 0.671212 0.039188
C14   C     C_R   0.101715 0.685915 0.725003 -0.169654
C15   C     C_R   0.114542 0.690737 0.804912 -0.155514
C16   C     C_R   0.640458 0.858713 0.125710 0.561023
C17   C     C_R   0.145832 0.819502 0.830883 0.001678
C18   C     C_R   0.686926 0.809682 0.356845 0.562491
C19   C     C_R   0.687862 0.394430 0.395326 0.549588
C20   C     C_R   0.102968 0.810195 0.358826 0.553159
C21   C     C_R   0.699681 0.763852 0.596330 0.564088
C22   C     C_R   0.680201 0.384493 0.624875 0.529734
C23   C     C_R   0.786686 0.411700 0.186351 0.074812
C24   C     C_R   0.089579 0.799563 0.589781 0.546003
C25   C     C_R   0.213835 0.857381 0.903071 0.542132
C26   C     C_R   0.637237 0.283423 0.860662 0.539878
C27   C     C_R   0.602739 0.889763 0.888387 0.564897
C28   C     C_R   0.520461 0.303325 0.206197 0.128768
C29   C     C_R   0.529242 0.309361 0.286714 0.116013
C30   C     C_R   0.666814 0.365684 0.315977 -0.012301
C31   C     C_3   0.361397 0.362897 0.127731 -0.269689
C32   C     C_3   0.305120 0.166878 0.615940 -0.257451
C33   C     C_3   0.338649 0.348425 0.337673 -0.251621
C34   C     C_R   0.648984 0.341897 0.157882 0.034326
C35   C     C_3   0.013002 0.414768 0.156222 -0.262163
C36   C     C_3   0.381802 0.485179 0.882076 -0.228234
C37   C     C_3   0.319049 0.512773 0.679589 -0.241621
C38   C     C_1   0.669014 0.849137 0.205585 -0.046613
C39   C     C_1   0.680550 0.839062 0.274694 -0.046549
C40   C     C_1   0.182038 0.826645 0.211554 -0.054653
C41   C     C_1   0.151452 0.820175 0.279705 -0.049202
C42   C     C_1   0.644925 0.323090 0.778071 -0.047920
Cr1   Cr    Cr6+3 0.402240 0.783890 0.019450 0.977256
Cr2   Cr    Cr6+3 0.382360 0.097900 0.991800 1.004865
Cr3   Cr    Cr6+3 0.715380 0.118170 0.988700 1.018650
Cr4   Cr    Cr6+3 0.936650 0.882420 0.465510 1.026459
Cr5   Cr    Cr6+3 0.605770 0.565620 0.493360 0.975962
Cr6   Cr    Cr6+3 0.921340 0.550490 0.496380 1.005249
H1    H     H_    0.291717 0.174693 0.214117 0.281733
H2    H     H_    0.101859 0.595744 0.845705 0.128753
H3    H     H_    0.396957 0.197008 0.393357 0.256311
H4    H     H_    0.227661 0.294967 0.317223 0.135247
H5    H     H_    0.408127 0.457561 0.298560 0.162490
H6    H     H_    0.329219 0.367161 0.398302 0.141775
H7    H     H_    0.901505 0.482343 0.285306 0.153792
H8    H     H_    0.972321 0.586587 0.122397 0.252402
H9    H     H_    0.066743 0.452080 0.209732 0.119341
H10   H     H_    0.099482 0.455007 0.106916 0.139613
H11   H     H_    0.950287 0.292409 0.166843 0.169824
H12   H     H_    0.258127 0.310112 0.099340 0.118088
H13   H     H_    0.327229 0.651798 0.860687 0.273906
H14   H     H_    0.359845 0.479077 0.945881 0.123352
H15   H     H_    0.486097 0.485892 0.872836 0.168396
H16   H     H_    0.291521 0.385296 0.864721 0.137802
H17   H     H_    0.504202 0.487124 0.691434 0.263825
H18   H     H_    0.309288 0.473857 0.622929 0.137183
H19   H     H_    0.308599 0.612600 0.669389 0.162599
H20   H     H_    0.228183 0.424778 0.722868 0.132158
H21   H     H_    0.867226 0.015947 0.650460 0.156807
H22   H     H_    0.822361 0.072078 0.774484 0.140506
H23   H     H_    0.453217 0.431608 0.080614 0.158207
H24   H     H_    0.156764 0.030704 0.798871 0.139249
H25   H     H_    0.354439 0.434773 0.165106 0.135016
H26   H     H_    0.112425 0.116612 0.675316 0.223107
H27   H     H_    0.307330 0.257704 0.572799 0.138230
H28   H     H_    0.349223 0.111765 0.584628 0.160177
H29   H     H_    0.374193 0.213153 0.663424 0.139584
H30   H     H_    0.074844 0.584838 0.705538 0.134894
N1    N     N_2   0.381711 0.250149 0.175160 -0.465766
N2    N     N_2   0.157099 0.064410 0.650199 -0.496862
N3    N     N_2   0.399177 0.252782 0.338040 -0.507943
N4    N     N_2   0.917538 0.473218 0.135195 -0.489511
N5    N     N_2   0.387533 0.615270 0.836128 -0.494691
N6    N     N_2   0.457886 0.543374 0.708951 -0.495000
O1    O     O_R   0.521780 0.757110 0.108900 -0.525017
O2    O     O_R   0.805020 0.410040 0.421340 -0.521928
O3    O     O_R   0.049240 0.685450 0.403290 -0.503990
O4    O     O_R   0.275160 0.783810 0.101120 -0.506045
O5    O     O_R   0.077520 0.903010 0.551800 -0.485486
O6    O     O_R   0.802980 0.872780 0.546830 -0.500201
O7    O     O_R   0.578090 0.681300 0.569920 -0.508968
O8    O     O_R   0.608530 0.436370 0.586530 -0.548545
O9    O     O_R   0.798770 0.401880 0.597100 -0.503337
O10   O     O_R   0.043450 0.677890 0.566230 -0.518205
O11   O     O_3   0.821250 0.666180 0.485090 -0.268534
O12   O     O_R   0.513330 0.228330 0.898660 -0.514814
O13   O     O_R   0.237900 0.972600 0.090980 -0.493974
O14   O     O_R   0.511190 0.220540 0.061620 -0.481610
O15   O     O_R   0.736920 0.257720 0.063840 -0.488046
O16   O     O_R   0.710450 0.984050 0.081720 -0.494030
O17   O     O_R   0.524090 0.765520 0.933110 -0.519811
O18   O     O_R   0.277300 0.791600 0.938160 -0.536069
O19   O     O_R   0.240210 0.981010 0.915190 -0.525029
O20   O     O_R   0.739230 0.266130 0.888050 -0.521672
O21   O     O_R   0.712580 0.991850 0.918770 -0.499662
O22   O     O_3   0.499990 0.999980 0.999980 -0.266230
O23   O     O_R   0.083770 0.911170 0.376030 -0.504818
O24   O     O_R   0.808770 0.880340 0.383890 -0.492623
O25   O     O_R   0.584340 0.689460 0.394160 -0.518979
O26   O     O_R   0.614320 0.443940 0.423590 -0.497889

loop_
_geom_bond_atom_site_label_1
_geom_bond_atom_site_label_2
_ccdc_geom_bond_type
C20   O3    A    
Cr6   O11   S    
C4    O14   A    
Cr5   O8    S    
C18   O25   A    
C19   O2    A    
C24   O5    A    
C32   H27   S    
C20   C41   S    
C7    C8    A    
Cr4   O5    S    
C33   H4    S    
C12   C23   A    
C26   C42   S    
Cr6   O10   S    
C35   H10   S    
C3    C9    A    
Cr1   O4    S    
C28   C29   A    
C23   N4    S    
C38   C39   T    
C25   O18   A    
C31   H25   S    
C27   O21   A    
C36   N5    S    
C37   H20   S    
C35   H11   S    
C15   H2    S    
C28   N1    S    
C1    C40   S    
C26   O20   A    
C32   H29   S    
Cr2   O14   S    
Cr2   O19   S    
Cr4   O11   S    
C8    C9    A    
Cr4   O24   S    
C2    C22   S    
C37   N6    S    
C36   H15   S    
H3    N3    S    
C20   O23   A    
C1    O4    A    
C31   H23   S    
C28   C34   A    
H26   N2    S    
C13   C14   A    
C37   H18   S    
C33   H5    S    
C36   H14   S    
C35   N4    S    
Cr3   O21   S    
C21   O6    A    
C26   O12   A    
C4    C34   S    
Cr6   O9    S    
Cr1   O1    S    
H13   N5    S    
C1    O13   A    
C5    N6    S    
C16   O16   A    
H17   N6    S    
Cr5   O25   S    
C6    C21   S    
C27   O17   A    
H1    N1    S    
C13   C24   S    
Cr1   O22   S    
C31   H12   S    
C18   C39   S    
Cr1   O17   S    
C29   N3    S    
C29   C30   A    
Cr2   O12   S    
Cr3   O20   S    
C24   O10   A    
C32   N2    S    
Cr2   O13   S    
C11   N2    S    
C23   C34   A    
Cr4   O23   S    
Cr6   O3    S    
H8    N4    S    
C40   C41   T    
Cr3   O15   S    
C16   O1    A    
C22   O9    A    
Cr6   O2    S    
Cr3   O22   S    
C9    C27   S    
C21   O7    A    
C19   O26   A    
C33   H6    S    
C15   C17   A    
Cr5   O11   S    
C12   C30   A    
Cr5   O7    S    
C25   O19   A    
C3    C5    A    
Cr3   O16   S    
C32   H28   S    
C31   N1    S    
C6    C7    A    
Cr4   O6    S    
Cr2   O22   S    
Cr5   O26   S    
C8    H22   S    
C35   H9    S    
C17   C25   S    
C7    H21   S    
Cr1   O18   S    
C3    N5    S    
C11   C13   A    
C5    C6    A    
C2    C42   T    
C37   H19   S    
C14   H30   S    
C18   O24   A    
C12   H7    S    
C10   C11   A    
C4    O15   A    
C22   O8    A    
C14   C15   A    
C10   C17   A    
C36   H16   S    
C19   C30   S    
C33   N3    S    
C16   C38   S    
C10   H24   S    
