data_mof_unit_20107.cif
_audit_creation_date              2012-12-10T20:35:55-0500
_audit_creation_method            fapswitch 2.2
_symmetry_space_group_name_H-M    P1
_symmetry_Int_Tables_number       1
_space_group_crystal_system       triclinic
_cell_length_a                    15.731157
_cell_length_b                    10.63641
_cell_length_c                    9.92183
_cell_angle_alpha                 89.794967
_cell_angle_beta                  89.533159
_cell_angle_gamma                 89.416204
_cell_volume                      1659.99929038

loop_
_atom_site_label
_atom_site_type_symbol
_atom_type_description
_atom_site_fract_x
_atom_site_fract_y
_atom_site_fract_z
_atom_type_partial_charge
C1    C     C_R   0.505837 0.260288 0.500134 0.888242
C2    C     C_3   0.946473 0.474485 0.640059 0.893918
C3    C     C_3   0.916838 0.500462 0.489596 -0.486308
C4    C     C_3   0.954827 0.636406 0.446802 0.691023
C5    C     C_3   0.054185 0.627736 0.469192 1.024952
C6    C     C_1   0.825321 0.501114 0.492971 0.162755
C7    C     C_1   0.174526 0.487672 0.499088 0.288580
C8    C     C_1   0.249756 0.492308 0.500798 -0.068414
C9    C     C_R   0.517512 0.063429 0.622227 -0.107382
C10   C     C_R   0.524557 0.128996 0.501519 -0.222597
C11   C     C_R   0.551335 0.065048 0.384064 0.517954
C12   C     C_R   0.338472 0.498495 0.500474 0.876021
C13   C     C_R   0.548681 0.933413 0.384606 -0.340113
C14   C     C_R   0.520665 0.870878 0.501429 -0.163775
C15   C     C_R   0.516380 0.935792 0.622761 -0.021082
C16   C     C_3   0.455392 0.930812 0.739274 0.891143
C17   C     C_3   0.456138 0.074235 0.737088 0.416492
C18   C     C_R   0.426368 0.518867 0.072317 -0.156747
C19   C     C_R   0.573478 0.485620 0.070529 0.545964
C20   C     C_R   0.573462 0.485180 0.927836 0.615283
C21   C     C_R   0.426402 0.520559 0.929601 -0.192962
C22   C     C_3   0.348038 0.439890 0.927629 0.938391
C23   C     C_R   0.503749 0.739909 0.499914 0.938673
C24   C     C_3   0.349423 0.438099 0.080950 0.440288
C25   C     C_R   0.661446 0.499811 0.499337 0.869011
C26   C     C_3   0.045140 0.449714 0.639186 0.761251
C27   C     C_3   0.048055 0.404963 0.374300 0.903822
C28   C     C_3   0.950682 0.383544 0.397130 0.706708
C29   C     C_1   0.750063 0.500277 0.497058 -0.149267
C30   C     C_3   0.082843 0.487713 0.496071 -0.561428
H1    H     H_    0.565083 0.881392 0.294311 0.175854
H2    H     H_    0.394501 0.119070 0.709539 0.106467
H3    H     H_    0.362453 0.344107 0.126219 0.075401
N1    N     N_R   0.499430 0.499140 0.142800 -0.188305
N2    N     N_R   0.499430 0.499180 0.857150 -0.143609
O1    O     O_R   0.500010 0.316790 0.614690 -0.554811
O2    O     O_R   0.500000 0.316760 0.385350 -0.588312
O3    O     O_R   0.377150 0.500020 0.614720 -0.595835
O4    O     O_R   0.377140 0.499990 0.385380 -0.568992
O5    O     O_R   0.500000 0.683240 0.614650 -0.582340
O6    O     O_R   0.499990 0.683210 0.385310 -0.629282
O7    O     O_R   0.622860 0.500010 0.614620 -0.542036
O8    O     O_R   0.622850 0.499980 0.385280 -0.552581
Zn1   Zn    Zn3+2 0.500010 0.500020 0.653130 1.090798
Zn2   Zn    Zn3+2 0.499990 0.499980 0.346870 1.035653
F1    F     F_    0.904106 0.368874 0.690590 -0.628946
F2    F     F_    0.081702 0.525763 0.737192 -0.636544
O9    O     O_3   0.926106 0.580965 0.721732 -0.570646
C31   C     C_3   0.911187 0.548942 0.857985 -0.017691
H4    H     H_    0.913916 0.635818 0.919251 0.155993
H5    H     H_    0.959837 0.482024 0.897454 0.184210
H6    H     H_    0.846504 0.509255 0.870257 0.195174
O10   O     O_3   0.938061 0.663632 0.308675 -0.668209
C32   C     C_3   0.957221 0.788350 0.267437 -0.106874
H7    H     H_    0.990437 0.845541 0.344161 0.205937
H8    H     H_    0.897534 0.837867 0.239178 0.128206
H9    H     H_    0.998179 0.784002 0.175971 0.217411
O11   O     O_3   0.583662 0.131881 0.275142 -0.597026
C33   C     C_3   0.536924 0.106926 0.157899 -0.128417
H10   H     H_    0.546902 0.185644 0.086112 0.240605
H11   H     H_    0.467192 0.101477 0.177769 0.121187
H12   H     H_    0.561065 0.019820 0.109008 0.182490
F3    F     F_    0.377938 0.879086 0.704172 -0.732945
O12   O     O_3   0.494387 0.875418 0.853341 -0.595719
C34   C     C_3   0.436422 0.872098 0.962365 -0.202350
H13   H     H_    0.384380 0.806071 0.942222 0.176255
H14   H     H_    0.409682 0.966727 0.985854 0.177657
H15   H     H_    0.470185 0.837021 0.052956 0.159834
F4    F     F_    0.494677 0.126679 0.848043 -0.638912
F5    F     F_    0.648156 0.467115 0.134677 -0.630400
O13   O     O_3   0.059455 0.319811 0.667248 -0.636818
C35   C     C_3   0.120715 0.297295 0.767861 -0.060416
H16   H     H_    0.098930 0.334666 0.866943 0.232726
H17   H     H_    0.183155 0.336617 0.737960 0.198900
H18   H     H_    0.129445 0.194230 0.779365 0.160183
F6    F     F_    0.648196 0.465849 0.862389 -0.614511
O14   O     O_3   0.271386 0.490570 0.872555 -0.598365
C36   C     C_3   0.268462 0.623152 0.865747 -0.119030
H19   H     H_    0.205517 0.652852 0.827038 0.264771
H20   H     H_    0.316862 0.659300 0.793873 0.191135
H21   H     H_    0.275224 0.665827 0.966875 0.178564
F7    F     F_    0.365359 0.322166 0.874589 -0.679926
F8    F     F_    0.281217 0.500523 0.140317 -0.591088
F9    F     F_    0.055752 0.477798 0.259002 -0.585012
O15   O     O_3   0.092937 0.292644 0.334409 -0.544623
C37   C     C_3   0.123991 0.209778 0.434201 -0.154816
H22   H     H_    0.072939 0.161602 0.490562 0.240977
H23   H     H_    0.171284 0.253002 0.500430 0.130439
H24   H     H_    0.159259 0.133350 0.381639 0.176335
O16   O     O_3   0.944716 0.271022 0.475720 -0.608158
C38   C     C_3   0.870511 0.199606 0.454477 0.004609
H25   H     H_    0.878283 0.141091 0.362582 0.156757
H26   H     H_    0.812154 0.258388 0.447040 0.159507
H27   H     H_    0.861953 0.134827 0.541261 0.171173
O17   O     O_3   0.911256 0.356868 0.269401 -0.602792
C39   C     C_3   0.877883 0.455119 0.190176 -0.102046
H28   H     H_    0.928910 0.508873 0.140059 0.224412
H29   H     H_    0.830732 0.514670 0.243195 0.189497
H30   H     H_    0.841967 0.411429 0.107178 0.191507
F10   F     F_    0.076675 0.703234 0.576987 -0.579338
F11   F     F_    0.099127 0.675303 0.359334 -0.595238
O18   O     O_3   0.922855 0.735509 0.532121 -0.538485
C40   C     C_3   0.838100 0.775497 0.507567 -0.178246
H31   H     H_    0.797470 0.748672 0.594759 0.190876
H32   H     H_    0.809569 0.738407 0.413942 0.147641
H33   H     H_    0.836801 0.879598 0.500355 0.150152

loop_
_geom_bond_atom_site_label_1
_geom_bond_atom_site_label_2
_ccdc_geom_bond_type
C17   F4    S    
C4    O10   S    
C18   C21   A    
C19   C20   A    
C3    C6    S    
C25   O8    A    
C7    C8    T    
O14   C36   S    
C2    F1    S    
C28   O17   S    
C18   C24   S    
C22   F7    S    
C3    C28   S    
C24   F8    S    
O15   C37   S    
C36   H20   S    
C23   O5    A    
C39   H30   S    
C20   F6    S    
C27   O15   S    
C20   N2    A    
O17   C39   S    
C16   C17   S    
C31   H5    S    
C4    O18   S    
C16   F3    S    
C11   O11   S    
C9    C10   A    
C1    O2    A    
O4    Zn2   S    
C31   H6    S    
C33   H10   S    
C7    C30   S    
C21   C22   S    
C27   C30   S    
C26   O13   S    
O7    Zn1   S    
C35   H18   S    
C5    F11   S    
C25   C29   S    
C32   H8    S    
C33   H11   S    
C40   H32   S    
C38   H25   S    
C37   H22   S    
C35   H16   S    
C34   H14   S    
O11   C33   S    
O10   C32   S    
C37   H24   S    
C39   H29   S    
C14   C23   S    
O3    Zn1   S    
C38   H26   S    
O8    Zn2   S    
C5    F10   S    
C8    C12   S    
C34   H15   S    
C39   H28   S    
C2    C26   S    
N1    Zn2   S    
N2    Zn1   S    
C18   N1    A    
C26   F2    S    
C35   H17   S    
O9    C31   S    
C26   C30   S    
C22   C24   S    
O1    Zn1   S    
O2    Zn2   S    
C3    C4    S    
C40   H31   S    
C5    C30   S    
C9    C17   S    
C32   H7    S    
C27   F9    S    
C33   H12   S    
C36   H19   S    
C13   H1    S    
C1    C10   S    
C22   O14   S    
C4    C5    S    
C19   N1    A    
C25   O7    A    
C21   N2    A    
C24   H3    S    
C23   O6    A    
C2    O9    S    
O12   C34   S    
C12   O4    A    
C2    C3    S    
C9    C15   A    
O13   C35   S    
C38   H27   S    
C11   C13   A    
C36   H21   S    
O16   C38   S    
C40   H33   S    
C37   H23   S    
C34   H13   S    
C12   O3    A    
O18   C40   S    
C10   C11   A    
O5    Zn1   S    
C6    C29   T    
C31   H4    S    
C27   C28   S    
C17   H2    S    
O6    Zn2   S    
C14   C15   A    
C19   F5    S    
C28   O16   S    
C16   O12   S    
C13   C14   A    
C15   C16   S    
C1    O1    A    
C32   H9    S    
