data_mof_unit_23220.cif
_audit_creation_date              2013-03-05T16:10:52-0500
_audit_creation_method            fapswitch 2.2
_symmetry_space_group_name_H-M    P1
_symmetry_Int_Tables_number       1
_space_group_crystal_system       triclinic
_cell_length_a                    10.753546
_cell_length_b                    9.474219
_cell_length_c                    15.848333
_cell_angle_alpha                 89.916671
_cell_angle_beta                  90.844226
_cell_angle_gamma                 89.906062
_cell_volume                      1614.47193631

loop_
_atom_site_label
_atom_site_type_symbol
_atom_site_description
_atom_site_fract_x
_atom_site_fract_y
_atom_site_fract_z
_atom_type_partial_charge
O1    O     O_R   0.317570 0.620260 0.500050 -0.602653
O2    O     O_R   0.317570 0.379740 0.500050 -0.602753
C1    C     C_R   0.260076 0.499994 0.498644 0.757957
O3    O     O_R   0.499890 0.620310 0.379470 -0.592247
O4    O     O_R   0.499890 0.379690 0.379470 -0.589135
C2    C     C_R   0.500024 0.500100 0.340363 0.809019
Cu1   Cu    Cu3+1 0.499860 0.642410 0.500040 0.935309
Cu2   Cu    Cu3+1 0.499860 0.357590 0.500040 0.941801
O5    O     O_R   0.682190 0.620260 0.500020 -0.595053
O6    O     O_R   0.682190 0.379740 0.500020 -0.577010
O7    O     O_R   0.499870 0.620210 0.620600 -0.530312
O8    O     O_R   0.499870 0.379790 0.620600 -0.528584
C3    C     C_R   0.739900 0.499653 0.500305 0.747372
C4    C     C_R   0.499883 0.499910 0.659654 0.845014
C5    C     C_3   0.389185 0.575517 0.047872 -0.388540
C6    C     C_3   0.511608 0.348125 0.048889 -0.401133
C7    C     C_3   0.502773 0.347129 0.951099 -0.423838
C8    C     C_3   0.387697 0.571590 0.950498 -0.387632
H1    H     H_    0.305492 0.509030 0.929078 0.161603
H2    H     H_    0.413535 0.296816 0.931192 0.184102
H3    H     H_    0.304727 0.521760 0.071868 0.166320
H4    H     H_    0.433147 0.285954 0.074841 0.171251
H5    H     H_    0.599272 0.295679 0.070134 0.161080
H6    H     H_    0.385623 0.686914 0.069871 0.158863
H7    H     H_    0.575923 0.278514 0.924122 0.177572
H8    H     H_    0.368687 0.677266 0.924421 0.174953
C9    C     C_1   0.501885 0.499762 0.749234 -0.104887
C10   C     C_3   0.507474 0.501869 0.082870 0.281066
C11   C     C_3   0.508918 0.501482 0.917054 0.274351
C12   C     C_3   0.633059 0.575584 0.952478 0.317601
C13   C     C_3   0.622600 0.584291 0.051319 -0.380904
C14   C     C_1   0.504529 0.500133 0.824785 -0.100020
C15   C     C_1   0.505474 0.501008 0.175105 -0.104463
C16   C     C_1   0.502912 0.500441 0.250692 -0.201687
H9    H     H_    0.616321 0.695718 0.072767 0.152948
H10   H     H_    0.707148 0.541131 0.083451 0.156751
C17   C     C_3   0.071674 0.585104 0.421534 -0.379378
C18   C     C_3   0.076743 0.570567 0.580225 -0.393218
H11   H     H_    0.110631 0.539617 0.363309 0.174492
H12   H     H_    0.121488 0.517220 0.634920 0.174343
H13   H     H_    0.106115 0.695809 0.424429 0.136338
H14   H     H_    0.109385 0.682037 0.583018 0.145859
C19   C     C_3   0.926928 0.586379 0.421677 -0.009053
C20   C     C_3   0.932399 0.568554 0.582723 -0.035192
H15   H     H_    0.899762 0.697911 0.434366 0.103576
H16   H     H_    0.903255 0.681169 0.579342 0.161906
H17   H     H_    0.104370 0.294719 0.434522 0.160246
H18   H     H_    0.107103 0.283387 0.547442 0.166233
H19   H     H_    0.892088 0.292840 0.435884 0.164565
H20   H     H_    0.896258 0.280756 0.546393 0.214704
C21   C     C_3   0.071483 0.346786 0.493045 -0.387141
C22   C     C_3   0.122435 0.500354 0.498275 0.101219
C23   C     C_3   0.878344 0.498653 0.499489 0.077794
C24   C     C_3   0.929063 0.345924 0.493249 -0.349080
C25   C     C_3   0.611354 0.083448 0.547986 0.296126
C26   C     C_3   0.610790 0.916129 0.548689 0.300646
H21   H     H_    0.695245 0.113784 0.511575 0.036775
H22   H     H_    0.695343 0.884012 0.513494 0.038248
H23   H     H_    0.369659 0.123525 0.603262 0.198239
H24   H     H_    0.366696 0.874374 0.601666 0.197500
C27   C     C_3   0.385098 0.083200 0.538825 -0.205622
C28   C     C_3   0.384489 0.916874 0.537985 -0.200531
C29   C     C_3   0.505392 0.083760 0.414781 -0.305810
C30   C     C_3   0.506370 0.916579 0.414818 -0.308480
N1    N     N_3   0.500250 0.143650 0.501830 -0.179821
N2    N     N_3   0.500250 0.856350 0.501830 -0.179143
H25   H     H_    0.424211 0.121593 0.376650 0.176342
H26   H     H_    0.426331 0.878088 0.375995 0.177572
H27   H     H_    0.589543 0.123015 0.382194 0.153704
H28   H     H_    0.591568 0.878244 0.383003 0.149456
H29   H     H_    0.302544 0.120007 0.501859 0.137516
H30   H     H_    0.302663 0.882069 0.499656 0.136435
C31   C     C_3   0.864067 0.553855 0.333889 -0.355232
C32   C     C_3   0.927233 0.445105 0.276960 -0.856474
H31   H     H_    0.005274 0.494515 0.242672 0.235519
H32   H     H_    0.962699 0.352634 0.312377 0.248182
H33   H     H_    0.859242 0.407357 0.228636 0.233663
H34   H     H_    0.766397 0.520416 0.342075 0.189283
H35   H     H_    0.858397 0.654073 0.297359 0.183583
C33   C     C_3   0.878168 0.514568 0.668319 -0.312593
C34   C     C_3   0.948881 0.396197 0.714884 -0.769863
H36   H     H_    0.981759 0.312863 0.671852 0.260480
H37   H     H_    0.029575 0.439806 0.750760 0.215175
H38   H     H_    0.886870 0.346556 0.761781 0.263265
H39   H     H_    0.875026 0.605042 0.712832 0.219954
H40   H     H_    0.780118 0.481166 0.659550 0.218916
N3    N     N_R   0.630410 0.143769 0.632837 0.174613
O9    O     O_R   0.739084 0.193480 0.653703 -0.412336
O10   O     O_R   0.546710 0.135004 0.691033 -0.341596
N4    N     N_R   0.627525 0.857595 0.634309 0.173655
O11   O     O_R   0.737173 0.814265 0.658295 -0.431618
O12   O     O_R   0.541198 0.865673 0.690739 -0.353613
C35   C     C_3   0.659129 0.725730 0.913167 -0.344601
C36   C     C_3   0.557738 0.838829 0.916157 -0.815155
H41   H     H_    0.490303 0.824486 0.863283 0.278824
H42   H     H_    0.510784 0.840910 0.977883 0.227125
H43   H     H_    0.600590 0.944189 0.906615 0.257609
H44   H     H_    0.740474 0.772598 0.946799 0.206580
H45   H     H_    0.686112 0.713608 0.846045 0.244020
C37   C     C_3   0.749113 0.479972 0.930606 -0.422039
C38   C     C_3   0.878150 0.545514 0.945738 -0.905545
H46   H     H_    0.898403 0.625893 0.896802 0.255676
H47   H     H_    0.885915 0.593909 0.009287 0.250909
H48   H     H_    0.950330 0.462006 0.941013 0.249942
H49   H     H_    0.748494 0.381681 0.968703 0.207990
H50   H     H_    0.743805 0.447837 0.863297 0.214259

loop_
_geom_bond_atom_site_label_1
_geom_bond_atom_site_label_2
_geom_bond_distance
_ccdc_geom_bond_type
C6    C10   1.554503 S    
C5    C8    1.543560 S    
N3    O9    1.299127 A    
C29   N1    1.494212 S    
C19   C31   1.569016 S    
C35   C36   1.528732 S    
C7    C11   1.559839 S    
C31   C32   1.534746 S    
C8    H8    1.100281 S    
C25   C26   1.585267 S    
C33   H39   1.111710 S    
C34   H36   1.105080 S    
N4    O11   1.299256 A    
Cu1   Cu2   2.698446 S    
C23   C24   1.549335 S    
Cu1   O7    1.921911 S    
C37   H49   1.109175 S    
H20   C24   1.105888 S    
C32   H32   1.104178 S    
C30   H26   1.112863 S    
C18   H14   1.114174 S    
C11   C14   1.462450 S    
C12   C13   1.574422 S    
O7    C4    1.296172 A    
C18   C22   1.546269 S    
H19   C24   1.108552 S    
C12   C37   1.583711 S    
C7    H2    1.113852 S    
H24   C28   1.105465 S    
C8    H1    1.114200 S    
O5    C3    1.299382 A    
C33   H40   1.108192 S    
C34   H37   1.110977 S    
C20   C23   1.580436 S    
C19   C23   1.581737 S    
H18   C21   1.112992 S    
C29   H27   1.112768 S    
C6    C7    1.551354 S    
C32   H33   1.110932 S    
C31   H34   1.106937 S    
C30   H28   1.112916 S    
C4    C9    1.419529 S    
C35   H45   1.112807 S    
C27   H29   1.111753 S    
C26   N4    1.473600 S    
Cu2   N1    2.027068 S    
C38   H47   1.109293 S    
C25   N3    1.473580 S    
C27   C28   1.575905 S    
O3    Cu1   1.922576 S    
C25   N1    1.502887 S    
C20   H16   1.112516 S    
C3    C23   1.489033 S    
C29   H25   1.112911 S    
H23   C27   1.105586 S    
C32   H31   1.110270 S    
C28   N2    1.492106 S    
C21   C22   1.557415 S    
C38   H46   1.110239 S    
C20   C33   1.569782 S    
O3    C2    1.297415 A    
C17   C22   1.548556 S    
H17   C21   1.113129 S    
C36   H43   1.111197 S    
C2    C16   1.421924 S    
O1    C1    1.297315 A    
C30   N2    1.494007 S    
C17   C19   1.556596 S    
C18   C20   1.553450 S    
C11   C12   1.603848 S    
N4    O12   1.300730 A    
Cu2   O8    1.922519 S    
C15   C16   1.198663 T    
C31   H35   1.112469 S    
C28   H30   1.112559 S    
C8    C11   1.562027 S    
C36   H42   1.107652 S    
C19   H15   1.115206 S    
C5    H6    1.112753 S    
O8    C4    1.296258 A    
C10   C15   1.462249 S    
C6    H5    1.112464 S    
C25   H21   1.115851 S    
C13   H9    1.111779 S    
C34   H38   1.110349 S    
Cu1   O5    1.971555 S    
C6    H4    1.113174 S    
C9    C14   1.197293 T    
O1    Cu1   1.971810 S    
C10   C13   1.553313 S    
O2    Cu2   1.971126 S    
C33   C34   1.535848 S    
O6    C3    1.295400 A    
O4    Cu2   1.921971 S    
C1    C22   1.480058 S    
C12   C35   1.579291 S    
C37   H50   1.110451 S    
C21   C24   1.531610 S    
C7    H7    1.110499 S    
N3    O10   1.300827 A    
O2    C1    1.295369 A    
C17   H11   1.106658 S    
Cu1   N2    2.027165 S    
C18   H12   1.106350 S    
C5    C10   1.545231 S    
O4    C2    1.297509 A    
C26   N2    1.504219 S    
C37   C38   1.536882 S    
C26   H22   1.115779 S    
C17   H13   1.113671 S    
C36   H41   1.108717 S    
C29   C30   1.583928 S    
C27   N1    1.492608 S    
C5    H3    1.113562 S    
Cu2   O6    1.972239 S    
C13   H10   1.112516 S    
C38   H48   1.110810 S    
C35   H44   1.111164 S    
