data_mof_unit_17470.cif
_audit_creation_date              2012-12-10T19:00:48-0500
_audit_creation_method            fapswitch 2.2
_symmetry_space_group_name_H-M    P1
_symmetry_Int_Tables_number       1
_space_group_crystal_system       triclinic
_cell_length_a                    15.072715
_cell_length_b                    10.888095
_cell_length_c                    9.533084
_cell_angle_alpha                 91.421676
_cell_angle_beta                  90.178384
_cell_angle_gamma                 90.718279
_cell_volume                      1563.89080227

loop_
_atom_site_label
_atom_site_type_symbol
_atom_type_description
_atom_site_fract_x
_atom_site_fract_y
_atom_site_fract_z
_atom_type_partial_charge
C1    C     C_R   0.496183 0.262584 0.498217 0.837556
C2    C     C_R   0.906882 0.512365 0.372589 0.108944
C3    C     C_R   0.953851 0.454291 0.749349 -0.208588
C4    C     C_R   0.046366 0.456456 0.749778 -0.201183
C5    C     C_R   0.092987 0.476293 0.625150 0.109841
C6    C     C_R   0.046436 0.494119 0.498769 0.061807
C7    C     C_R   0.092783 0.513287 0.372609 0.107159
C8    C     C_R   0.045948 0.531214 0.247631 -0.200467
C9    C     C_R   0.953445 0.531045 0.247679 -0.209558
C10   C     C_R   0.185421 0.478667 0.624670 -0.229336
C11   C     C_R   0.231696 0.497681 0.499409 -0.061586
C12   C     C_R   0.328583 0.499405 0.499813 0.843022
C13   C     C_R   0.185229 0.514472 0.373729 -0.219258
C14   C     C_R   0.531161 0.069589 0.608670 0.099920
C15   C     C_R   0.495364 0.129319 0.494182 -0.177791
C16   C     C_R   0.465271 0.058211 0.375937 -0.021466
C17   C     C_R   0.470848 0.930062 0.379134 -0.224503
C18   C     C_R   0.498977 0.871148 0.500791 -0.089252
C19   C     C_R   0.531086 0.942985 0.613817 -0.016293
C20   C     C_3   0.508758 0.946871 0.767715 -0.217393
C21   C     C_3   0.510158 0.086498 0.761227 -0.058430
C22   C     C_R   0.572814 0.540034 0.075799 0.209790
C23   C     C_R   0.499322 0.737732 0.501325 0.811510
C24   C     C_R   0.431681 0.449101 0.072523 -0.051868
C25   C     C_R   0.431574 0.449310 0.923721 -0.073956
C26   C     C_R   0.573967 0.537952 0.927769 0.245539
C27   C     C_3   0.614676 0.663962 0.928739 -0.084543
C28   C     C_3   0.612536 0.665303 0.087848 -0.460827
C29   C     C_R   0.671385 0.498283 0.499951 0.805110
C30   C     C_R   0.814493 0.513443 0.373897 -0.241285
C31   C     C_R   0.768216 0.494682 0.499225 -0.071929
C32   C     C_R   0.814642 0.471945 0.623351 -0.255562
C33   C     C_R   0.907067 0.472789 0.624483 0.113754
C34   C     C_R   0.953437 0.493064 0.498611 0.065993
Cu1   Cu    Cu3+1 0.500000 0.499980 0.640670 0.952967
Cu2   Cu    Cu3+1 0.500000 0.500020 0.359330 0.971588
H1    H     H_    0.778791 0.529606 0.277365 0.147808
H2    H     H_    0.446434 0.875806 0.289864 0.195243
H3    H     H_    0.563622 0.913868 0.833454 0.150516
H4    H     H_    0.445013 0.130976 0.780207 0.182411
H5    H     H_    0.375614 0.409779 0.126583 0.169919
H6    H     H_    0.375552 0.409820 0.866842 0.137576
H7    H     H_    0.568857 0.728585 0.881550 0.212130
H8    H     H_    0.678722 0.664982 0.139612 0.188342
H9    H     H_    0.778917 0.453269 0.719025 0.156874
H10   H     H_    0.565881 0.734196 0.132212 0.220511
H11   H     H_    0.918907 0.438980 0.846692 0.139187
H12   H     H_    0.081435 0.442636 0.847440 0.141344
H13   H     H_    0.221211 0.464964 0.721770 0.147446
H14   H     H_    0.220882 0.529339 0.276861 0.152209
H15   H     H_    0.080839 0.545817 0.150092 0.141424
H16   H     H_    0.918341 0.545654 0.150209 0.139231
N1    N     N_R   0.500570 0.500930 0.147930 -0.185497
N2    N     N_R   0.500570 0.500890 0.852020 -0.196169
O1    O     O_R   0.500000 0.319640 0.618810 -0.591374
O2    O     O_R   0.500010 0.319680 0.381230 -0.560354
O3    O     O_R   0.370250 0.499950 0.618800 -0.593039
O4    O     O_R   0.370260 0.499990 0.381220 -0.580037
O5    O     O_R   0.499990 0.680320 0.618770 -0.577781
O6    O     O_R   0.500000 0.680360 0.381190 -0.589935
O7    O     O_R   0.629740 0.500010 0.618780 -0.591116
O8    O     O_R   0.629750 0.500050 0.381200 -0.588310
C35   C     C_2   0.418787 0.893322 0.802953 0.891104
O9    O     O_2   0.353274 0.918913 0.733923 -0.597649
O10   O     O_R   0.410812 0.814713 0.915980 -0.763370
H17   H     H_    0.347734 0.783960 0.929519 0.333091
C36   C     C_3   0.586652 0.147378 0.845055 -0.833795
H18   H     H_    0.651455 0.106206 0.816403 0.233502
H19   H     H_    0.590061 0.247215 0.825215 0.256707
H20   H     H_    0.575367 0.135496 0.958909 0.260575
C37   C     C_3   0.708872 0.671110 0.870279 -0.850734
H21   H     H_    0.706965 0.669885 0.754166 0.255746
H22   H     H_    0.740599 0.759219 0.905437 0.240344
H23   H     H_    0.749796 0.594261 0.907726 0.226000
C38   C     C_2   0.418719 0.110890 0.254409 0.860410
O11   O     O_2   0.364298 0.192065 0.272610 -0.605609
O12   O     O_R   0.433366 0.062305 0.119483 -0.770084
H24   H     H_    0.396822 0.104172 0.045539 0.325775

loop_
_geom_bond_atom_site_label_1
_geom_bond_atom_site_label_2
_ccdc_geom_bond_type
C35   O10   S    
C16   C38   S    
C32   H9    S    
Cu1   Cu2   S    
C7    C8    A    
O12   H24   S    
C23   O5    A    
C28   H10   S    
C26   C27   S    
C14   C21   S    
C1    O2    A    
Cu2   O4    S    
C5    C6    A    
C3    C33   A    
C15   C16   A    
Cu1   O5    S    
C18   C19   A    
Cu2   N1    S    
C19   C20   S    
C8    C9    A    
C1    C15   S    
C12   O4    A    
C2    C34   A    
C22   C28   S    
C21   C36   S    
Cu1   N2    S    
C24   H5    S    
C9    H16   S    
Cu2   O8    S    
C26   N2    A    
C17   C18   A    
C22   N1    A    
C23   O6    A    
C29   O7    A    
Cu1   O1    S    
C36   H18   S    
C25   N2    A    
C37   H22   S    
C20   H3    S    
C16   C17   A    
C24   N1    A    
C35   O9    D    
C28   H8    S    
C18   C23   S    
C30   H1    S    
C36   H19   S    
C2    C9    A    
C38   O11   D    
Cu2   O2    S    
C27   H7    S    
C31   C32   A    
C33   C34   A    
Cu1   O7    S    
C24   C25   A    
C38   O12   S    
C8    H15   S    
C12   O3    A    
C3    C4    A    
C27   C37   S    
C4    H12   S    
C29   O8    A    
C14   C19   A    
C4    C5    A    
Cu2   O6    S    
C25   H6    S    
C37   H23   S    
C11   C12   S    
C6    C7    A    
C2    C30   A    
Cu1   O3    S    
C36   H20   S    
C32   C33   A    
C20   C35   S    
C1    O1    A    
C5    C10   A    
C29   C31   S    
C11   C13   A    
C30   C31   A    
C21   H4    S    
C3    H11   S    
C17   H2    S    
C10   C11   A    
C13   H14   S    
C6    C34   A    
C7    C13   A    
C37   H21   S    
C20   C21   S    
O10   H17   S    
C22   C26   A    
C27   C28   S    
C14   C15   A    
C10   H13   S    
