data_mof_unit_6970.cif
_audit_creation_date              2012-12-10T17:33:15-0500
_audit_creation_method            fapswitch 2.2
_symmetry_space_group_name_H-M    P1
_symmetry_Int_Tables_number       1
_space_group_crystal_system       triclinic
_cell_length_a                    12.078778
_cell_length_b                    12.96955
_cell_length_c                    13.610932
_cell_angle_alpha                 90.75037
_cell_angle_beta                  80.494975
_cell_angle_gamma                 93.12866
_cell_volume                      2099.81268199

loop_
_atom_site_label
_atom_site_type_symbol
_atom_type_description
_atom_site_fract_x
_atom_site_fract_y
_atom_site_fract_z
_atom_type_partial_charge
C1    C     C_R   0.522344 0.699972 0.497852 0.933602
C2    C     C_R   0.478307 0.299482 0.501621 0.927475
C3    C     C_R   0.455785 0.973801 0.481622 -0.045495
C4    C     C_R   0.546936 0.023643 0.518310 -0.071459
C5    C     C_R   0.970886 0.466586 0.373027 0.479493
C6    C     C_R   0.028482 0.526303 0.629108 0.500608
C7    C     C_R   0.853120 0.466178 0.389662 -0.244390
C8    C     C_R   0.147179 0.535162 0.610224 -0.247779
C9    C     C_R   0.849042 0.492279 0.562679 0.636361
C10   C     C_R   0.150504 0.501836 0.438348 0.647502
C11   C     C_R   0.969061 0.503236 0.549092 -0.274963
C12   C     C_R   0.030741 0.490800 0.452459 -0.288997
C13   C     C_R   0.481068 0.501212 0.686490 0.894207
C14   C     C_R   0.518956 0.499036 0.313517 0.870692
C15   C     C_1   0.532546 0.499553 0.209427 -0.173905
C16   C     C_1   0.467675 0.502614 0.790591 -0.158654
C17   C     C_2   0.548156 0.500760 0.017303 -0.155739
C18   C     C_2   0.452371 0.505044 0.982726 -0.163242
C19   C     C_1   0.457157 0.503941 0.878726 0.002065
C20   C     C_1   0.543206 0.500101 0.121298 -0.003636
C21   C     C_R   0.466896 0.187527 0.500304 -0.276641
C22   C     C_R   0.536749 0.810858 0.499023 -0.289617
C23   C     C_R   0.629056 0.966481 0.550147 -0.309766
C24   C     C_R   0.366337 0.029990 0.462454 -0.288100
C25   C     C_R   0.626659 0.859675 0.538911 0.414677
C26   C     C_R   0.367918 0.136294 0.478062 0.400336
C27   C     C_R   0.455825 0.868345 0.464398 0.413237
C28   C     C_R   0.558021 0.130686 0.518389 0.391963
H1    H     H_    0.371730 0.508600 0.031580 0.161936
H2    H     H_    0.628769 0.496943 0.968448 0.164518
H3    H     H_    0.694588 0.004775 0.584788 0.193501
H4    H     H_    0.293620 0.991651 0.438039 0.198081
H5    H     H_    0.192911 0.554073 0.670290 0.182253
H6    H     H_    0.809052 0.454091 0.327265 0.187448
N1    N     N_R   0.206090 0.519450 0.517820 -0.162703
N2    N     N_R   0.793910 0.480550 0.482180 -0.168490
O1    O     O_R   0.421240 0.658850 0.504760 -0.591292
O2    O     O_R   0.578760 0.341150 0.495240 -0.604888
O3    O     O_R   0.609960 0.646370 0.493320 -0.564886
O4    O     O_R   0.390040 0.353630 0.506680 -0.558609
O5    O     O_R   0.392060 0.507120 0.646890 -0.647901
O6    O     O_R   0.607940 0.492880 0.353110 -0.645469
O7    O     O_R   0.580780 0.494630 0.635450 -0.552456
O8    O     O_R   0.419220 0.505370 0.364550 -0.560471
Zn1   Zn    Zn3+2 0.373990 0.508340 0.507630 0.990932
Zn2   Zn    Zn3+2 0.626010 0.491660 0.492370 0.987248
O9    O     O_3   0.657140 0.179215 0.538859 -0.604191
C29   C     C_3   0.741282 0.175349 0.452845 0.133106
H7    H     H_    0.730509 0.236763 0.399557 0.162362
H8    H     H_    0.740457 0.099873 0.412748 0.116027
C30   C     C_3   0.856309 0.192511 0.483351 -0.910497
H9    H     H_    0.867773 0.133735 0.538898 0.249990
H10   H     H_    0.922818 0.185536 0.417210 0.207911
H11   H     H_    0.864874 0.270601 0.516159 0.250145
O10   O     O_3   0.379437 0.822292 0.409618 -0.608077
C31   C     C_3   0.430239 0.816898 0.308040 0.084126
H12   H     H_    0.447762 0.735246 0.288797 0.143100
H13   H     H_    0.511488 0.863510 0.288755 0.122158
C32   C     C_3   0.349957 0.854524 0.242676 -0.864596
H14   H     H_    0.339080 0.938417 0.254950 0.256232
H15   H     H_    0.384688 0.841360 0.163031 0.219577
H16   H     H_    0.266614 0.812626 0.260510 0.247106
O11   O     O_3   0.276717 0.191446 0.464008 -0.575728
C33   C     C_3   0.180584 0.159060 0.533168 0.122637
H17   H     H_    0.201124 0.126104 0.603064 0.124873
H18   H     H_    0.129628 0.100074 0.497599 0.137014
C34   C     C_3   0.110018 0.251319 0.563124 -0.832437
H19   H     H_    0.085259 0.285365 0.496222 0.254668
H20   H     H_    0.033182 0.226838 0.615937 0.195154
H21   H     H_    0.159075 0.310429 0.600137 0.259970
O12   O     O_3   0.706143 0.801175 0.572401 -0.564339
C35   C     C_3   0.816841 0.841869 0.537991 0.103259
H22   H     H_    0.841138 0.901451 0.591066 0.137457
H23   H     H_    0.826222 0.876038 0.461997 0.117913
C36   C     C_3   0.898104 0.755900 0.532861 -0.757761
H24   H     H_    0.878641 0.697137 0.477308 0.243179
H25   H     H_    0.985676 0.787706 0.509855 0.190254
H26   H     H_    0.891057 0.719213 0.607041 0.290251
O13   O     O_3   0.211785 0.494352 0.344058 -0.546951
C37   C     C_3   0.226650 0.594391 0.302868 -0.208036
H27   H     H_    0.282435 0.591128 0.229580 0.174285
H28   H     H_    0.267322 0.649157 0.351203 0.184914
H29   H     H_    0.145444 0.624088 0.290383 0.159221
O14   O     O_3   0.787312 0.495955 0.657145 -0.531550
C38   C     C_3   0.770105 0.394090 0.694056 -0.214683
H30   H     H_    0.717596 0.345597 0.649644 0.203530
H31   H     H_    0.724341 0.396652 0.771663 0.172899
H32   H     H_    0.850936 0.357361 0.695733 0.127682
O15   O     O_3   0.026033 0.450414 0.277219 -0.576760
C39   C     C_3   0.027521 0.343182 0.259288 -0.252920
H33   H     H_    0.072630 0.304320 0.312228 0.180208
H34   H     H_    0.073699 0.330121 0.183086 0.188801
H35   H     H_    0.940985 0.307654 0.262705 0.124839
O16   O     O_3   0.969797 0.548492 0.722967 -0.554008
C40   C     C_3   0.006674 0.490176 0.797202 -0.303237
H36   H     H_    0.080832 0.530022 0.822361 0.163215
H37   H     H_    0.025584 0.409799 0.772494 0.133636
H38   H     H_    0.938396 0.484436 0.862598 0.195485

loop_
_geom_bond_atom_site_label_1
_geom_bond_atom_site_label_2
_ccdc_geom_bond_type
C21   C26   A    
C28   O9    S    
C7    N2    A    
C40   H36   S    
O10   C31   S    
C13   O5    A    
C40   H38   S    
C38   H30   S    
C24   C26   A    
C35   C36   S    
C27   O10   S    
C17   C20   S    
C31   H12   S    
C18   C19   S    
O6    Zn2   S    
C36   H24   S    
C29   C30   S    
C6    O16   S    
C22   C25   A    
C9    N2    A    
N2    Zn2   S    
C10   N1    A    
C25   O12   S    
C1    O1    A    
C14   O6    A    
C29   H8    S    
C1    C22   S    
C17   H2    S    
C3    C24   A    
C15   C20   T    
C37   H29   S    
C4    C28   A    
C38   H31   S    
O4    Zn1   S    
C32   H15   S    
C34   H19   S    
C33   C34   S    
O14   C38   S    
C5    C12   A    
C37   H28   S    
C6    C11   A    
C5    C7    A    
C4    C23   A    
C35   H22   S    
C6    C8    A    
C36   H26   S    
C30   H9    S    
C30   H10   S    
C8    N1    A    
C33   H18   S    
C26   O11   S    
C24   H4    S    
C9    C11   A    
C2    O2    A    
C39   H34   S    
O9    C29   S    
C11   C12   A    
C2    C21   S    
C17   C18   D    
C18   H1    S    
C36   H25   S    
C10   C12   A    
O3    Zn2   S    
C35   H23   S    
C29   H7    S    
C21   C28   A    
C22   C27   A    
C7    H6    S    
O13   C37   S    
O1    Zn1   S    
C3    C4    A    
N1    Zn1   S    
C13   O7    A    
O8    Zn1   S    
C39   H35   S    
C14   O8    A    
C38   H32   S    
C32   H16   S    
C37   H27   S    
C10   O13   S    
C40   H37   S    
C31   C32   S    
C30   H11   S    
C33   H17   S    
C34   H21   S    
C3    C27   A    
O12   C35   S    
C39   H33   S    
C16   C19   T    
C31   H13   S    
C8    H5    S    
C23   C25   A    
O16   C40   S    
O7    Zn2   S    
O2    Zn2   S    
C1    O3    A    
C9    O14   S    
O11   C33   S    
C2    O4    A    
C32   H14   S    
C13   C16   S    
O5    Zn1   S    
C14   C15   S    
C34   H20   S    
O15   C39   S    
C5    O15   S    
C23   H3    S    
