data_mof_unit_15732.cif
_audit_creation_date              2013-03-05T15:46:35-0500
_audit_creation_method            fapswitch 2.2
_symmetry_space_group_name_H-M    P1
_symmetry_Int_Tables_number       1
_space_group_crystal_system       triclinic
_cell_length_a                    17.332793
_cell_length_b                    24.202008
_cell_length_c                    15.087821
_cell_angle_alpha                 90.034388
_cell_angle_beta                  125.896494
_cell_angle_gamma                 90.055745
_cell_volume                      5127.107164

loop_
_atom_site_label
_atom_site_type_symbol
_atom_site_description
_atom_site_fract_x
_atom_site_fract_y
_atom_site_fract_z
_atom_type_partial_charge
C1    C     C_R   0.308917 0.376202 0.906810 -0.124190
C2    C     C_R   0.648745 0.347820 0.091395 -0.106067
C3    C     C_R   0.808942 0.876146 0.906763 -0.120864
C4    C     C_R   0.148780 0.847811 0.091497 -0.105950
H1    H     H_    0.250885 0.371200 0.821603 0.098866
H2    H     H_    0.686705 0.334002 0.175104 0.128252
H3    H     H_    0.750933 0.871137 0.821551 0.096653
H4    H     H_    0.186841 0.834032 0.175246 0.126388
N1    N     N_R   0.394180 0.396910 0.943210 -0.048994
N2    N     N_R   0.605820 0.396910 0.056790 -0.046061
N3    N     N_R   0.894180 0.896910 0.943210 -0.048699
N4    N     N_R   0.105820 0.896910 0.056790 -0.045840
C5    C     C_R   0.401538 0.624498 0.090577 -0.089075
C6    C     C_R   0.556881 0.651938 0.908694 -0.134280
C7    C     C_R   0.901731 0.124688 0.090625 -0.078564
C8    C     C_R   0.057008 0.151901 0.908681 -0.128749
H5    H     H_    0.428807 0.630378 0.174915 0.098761
H6    H     H_    0.510000 0.665300 0.824656 0.097438
H7    H     H_    0.929238 0.130749 0.174994 0.115153
H8    H     H_    0.010236 0.165239 0.824615 0.095746
N5    N     N_R   0.450950 0.603070 0.056740 -0.044539
N6    N     N_R   0.549050 0.603070 0.943260 -0.043860
N7    N     N_R   0.950950 0.103070 0.056740 -0.048558
N8    N     N_R   0.049050 0.103070 0.943260 -0.042199
C9    C     C_R   0.546436 0.454582 0.301683 0.379599
C10   C     C_R   0.509199 0.454416 0.740234 0.352656
C11   C     C_R   0.044875 0.954839 0.301278 0.322925
C12   C     C_R   0.010840 0.954234 0.742084 0.385259
N9    N     N_R   0.525650 0.471570 0.206150 -0.089616
N10   N     N_R   0.474350 0.471570 0.793850 -0.089517
N11   N     N_R   0.025650 0.971570 0.206150 -0.090582
N12   N     N_R   0.974350 0.971570 0.793850 -0.086681
C13   C     C_R   0.247145 0.546083 0.696040 -0.117095
C14   C     C_R   0.767743 0.546587 0.246994 -0.147115
C15   C     C_R   0.747048 0.046088 0.696114 -0.131618
C16   C     C_R   0.267723 0.046591 0.246936 -0.148814
H9    H     H_    0.242099 0.587929 0.668362 0.119124
H10   H     H_    0.785954 0.589341 0.249750 0.116755
H11   H     H_    0.741963 0.087932 0.668408 0.116602
H12   H     H_    0.285925 0.089343 0.249670 0.117167
N13   N     N_R   0.319480 0.528420 0.793810 -0.046808
N14   N     N_R   0.680520 0.528420 0.206190 -0.050842
N15   N     N_R   0.819480 0.028420 0.793810 -0.045779
N16   N     N_R   0.180520 0.028420 0.206190 -0.051399
C17   C     C_R   0.542595 0.546383 0.299237 -0.178716
C18   C     C_R   0.515295 0.546913 0.748098 -0.098699
C19   C     C_R   0.043551 0.046684 0.299306 -0.115994
C20   C     C_R   0.014382 0.046837 0.747012 -0.141625
H13   H     H_    0.554027 0.588932 0.326124 0.119860
H14   H     H_    0.519362 0.589706 0.730757 0.129588
H15   H     H_    0.055766 0.089292 0.325994 0.116426
H16   H     H_    0.017657 0.089571 0.728687 0.129336
N17   N     N_R   0.525640 0.528390 0.206120 -0.059375
N18   N     N_R   0.474360 0.528390 0.793880 -0.057277
N19   N     N_R   0.025640 0.028390 0.206120 -0.064511
N20   N     N_R   0.974360 0.028390 0.793880 -0.056607
C21   C     C_R   0.244890 0.454571 0.695291 -0.100074
C22   C     C_R   0.769736 0.454279 0.251637 -0.084803
C23   C     C_R   0.744790 0.954568 0.695374 -0.086767
C24   C     C_R   0.269729 0.954284 0.251602 -0.083863
H17   H     H_    0.234952 0.412420 0.666794 0.114928
H18   H     H_    0.791471 0.411575 0.263257 0.100353
H19   H     H_    0.734846 0.912424 0.666845 0.112273
H20   H     H_    0.291476 0.911582 0.263239 0.099367
N21   N     N_R   0.319490 0.471590 0.793840 -0.046104
N22   N     N_R   0.680510 0.471590 0.206160 -0.042108
N23   N     N_R   0.819490 0.971590 0.793840 -0.047105
N24   N     N_R   0.180510 0.971590 0.206160 -0.040198
C25   C     C_R   0.309269 0.624096 0.907286 -0.120071
C26   C     C_R   0.647545 0.652706 0.090466 -0.138554
C27   C     C_R   0.809335 0.124180 0.907308 -0.124206
C28   C     C_R   0.147592 0.152691 0.090468 -0.139828
H21   H     H_    0.250872 0.628857 0.822157 0.095349
H22   H     H_    0.684677 0.667131 0.173789 0.092767
H23   H     H_    0.750925 0.128952 0.822188 0.097276
H24   H     H_    0.184691 0.167126 0.173780 0.093069
N25   N     N_R   0.394130 0.603080 0.943110 -0.043606
N26   N     N_R   0.605870 0.603080 0.056890 -0.042672
N27   N     N_R   0.894130 0.103080 0.943110 -0.043644
N28   N     N_R   0.105870 0.103080 0.056890 -0.042696
C29   C     C_R   0.399964 0.376668 0.089763 -0.035187
C30   C     C_R   0.556797 0.347527 0.909898 -0.106590
C31   C     C_R   0.899959 0.876579 0.089694 -0.057072
C32   C     C_R   0.056535 0.847381 0.910103 -0.109223
H25   H     H_    0.425245 0.372231 0.173612 0.141586
H26   H     H_    0.508532 0.332529 0.827659 0.159433
H27   H     H_    0.925175 0.872046 0.173472 0.134878
H28   H     H_    0.007730 0.832129 0.828210 0.159399
N29   N     N_R   0.450990 0.396900 0.056840 -0.040473
N30   N     N_R   0.549010 0.396900 0.943160 -0.063233
N31   N     N_R   0.950990 0.896900 0.056840 -0.036572
N32   N     N_R   0.049010 0.896900 0.943160 -0.065397
C33   C     C_R   0.309791 0.363847 0.997380 0.013226
C34   C     C_R   0.618466 0.315639 0.000683 0.016275
C35   C     C_R   0.809807 0.863750 0.997299 0.010758
C36   C     C_R   0.118377 0.815548 0.000867 0.017424
C37   C     C_R   0.311160 0.637096 0.998470 0.047911
C38   C     C_R   0.617644 0.684438 0.999205 0.057046
C39   C     C_R   0.811341 0.137275 0.998529 0.051386
C40   C     C_R   0.117783 0.184404 0.999212 0.056450
C41   C     C_R   0.555134 0.500737 0.359321 -0.040219
C42   C     C_R   0.537337 0.501157 0.713233 -0.078197
C43   C     C_R   0.054310 0.001355 0.358865 -0.046647
C44   C     C_R   0.037881 0.000926 0.713851 -0.073493
C45   C     C_R   0.198201 0.500768 0.631831 0.077074
C46   C     C_R   0.826289 0.501012 0.277360 0.058130
C47   C     C_R   0.698019 0.000771 0.631975 0.082758
C48   C     C_R   0.326262 0.001021 0.277284 0.058006
Ni1   Ni    Ni4+2 0.434860 0.434850 0.869700 0.262385
Ni2   Ni    Ni4+2 0.565140 0.434850 0.130300 0.288951
Ni3   Ni    Ni4+2 0.934860 0.934850 0.869700 0.264029
Ni4   Ni    Ni4+2 0.065140 0.934850 0.130300 0.286883
Ni5   Ni    Ni4+2 0.565130 0.565140 0.130240 0.207675
Ni6   Ni    Ni4+2 0.434870 0.565140 0.869760 0.230552
Ni7   Ni    Ni4+2 0.065130 0.065140 0.130240 0.206359
Ni8   Ni    Ni4+2 0.934870 0.065140 0.869760 0.226221
C49   C     C_R   0.073652 0.552480 0.466263 0.212559
C50   C     C_R   0.979533 0.552742 0.376732 0.165264
C51   C     C_R   0.573558 0.052486 0.466377 0.208694
C52   C     C_R   0.479487 0.052759 0.376748 0.168311
C53   C     C_R   0.119651 0.502491 0.515477 0.064903
C54   C     C_R   0.929400 0.502925 0.333552 0.024884
C55   C     C_R   0.619487 0.002491 0.515631 0.066679
C56   C     C_R   0.429362 0.002943 0.333502 0.025515
C57   C     C_R   0.077956 0.453526 0.455036 -0.129545
C58   C     C_R   0.982618 0.453799 0.363511 -0.196479
C59   C     C_R   0.577839 0.953528 0.455165 -0.131154
C60   C     C_R   0.482569 0.953813 0.363515 -0.199988
H29   H     H_    0.113672 0.414166 0.485145 0.140322
H30   H     H_    0.948541 0.414652 0.326495 0.134384
H31   H     H_    0.613528 0.914163 0.485310 0.139648
H32   H     H_    0.448506 0.914670 0.326452 0.134337
C61   C     C_3   0.958824 0.603572 0.416272 -0.511303
C62   C     C_3   0.061727 0.603366 0.513555 -0.523247
C63   C     C_3   0.458727 0.103592 0.416239 -0.510837
C64   C     C_3   0.561590 0.103376 0.513616 -0.523033
H33   H     H_    0.940305 0.639586 0.361480 0.209409
H34   H     H_    0.070501 0.595819 0.591726 0.192916
H35   H     H_    0.440274 0.139611 0.361475 0.209726
H36   H     H_    0.570279 0.095829 0.591739 0.193385
H37   H     H_    0.910028 0.595996 0.440204 0.201475
H38   H     H_    0.102552 0.639064 0.514357 0.219654
H39   H     H_    0.409862 0.096022 0.440074 0.201090
H40   H     H_    0.602464 0.139066 0.514486 0.220032
C65   C     C_R   0.156903 0.686166 0.899507 -0.153487
C66   C     C_R   0.707049 0.769930 0.096129 -0.156986
C67   C     C_R   0.656928 0.186180 0.899562 -0.155823
C68   C     C_R   0.207237 0.269884 0.096215 -0.162587
H41   H     H_    0.136346 0.670568 0.821292 0.117817
H42   H     H_    0.729653 0.753353 0.174410 0.123257
H43   H     H_    0.636251 0.170461 0.821375 0.118335
H44   H     H_    0.229915 0.253265 0.174493 0.124824
C69   C     C_R   0.609292 0.231828 0.900171 -0.142136
C70   C     C_R   0.253869 0.316185 0.095505 -0.105830
C71   C     C_R   0.109352 0.731832 0.900205 -0.142357
C72   C     C_R   0.753766 0.816179 0.095397 -0.114839
H45   H     H_    0.553670 0.249347 0.822125 0.136394
H46   H     H_    0.310508 0.333568 0.173383 0.150585
H47   H     H_    0.053945 0.749458 0.822174 0.136749
H48   H     H_    0.810380 0.833578 0.173268 0.142190
C73   C     C_R   0.642004 0.257762 0.999735 0.128847
C74   C     C_R   0.235733 0.334278 0.996573 0.135339
C75   C     C_R   0.141916 0.757653 0.999833 0.127746
C76   C     C_R   0.735723 0.834201 0.996469 0.133173
C77   C     C_R   0.709111 0.230865 0.098280 -0.163489
C78   C     C_R   0.155903 0.313950 0.897603 -0.149738
C79   C     C_R   0.208837 0.730623 0.098301 -0.157333
C80   C     C_R   0.655901 0.813873 0.897500 -0.148648
H49   H     H_    0.732151 0.247785 0.176548 0.127031
H50   H     H_    0.135655 0.329379 0.819470 0.114639
H51   H     H_    0.231737 0.747468 0.176577 0.124220
H52   H     H_    0.635722 0.829251 0.819363 0.113562
C81   C     C_R   0.256047 0.684720 0.097473 -0.118329
C82   C     C_R   0.608798 0.767840 0.898107 -0.155996
C83   C     C_R   0.756458 0.185044 0.097552 -0.109514
C84   C     C_R   0.108891 0.267860 0.898188 -0.155238
H53   H     H_    0.313298 0.667728 0.175287 0.132821
H54   H     H_    0.553930 0.749725 0.820183 0.117202
H55   H     H_    0.813986 0.168292 0.175430 0.150497
H56   H     H_    0.054007 0.249757 0.820257 0.117771
C85   C     C_R   0.237459 0.666516 0.998313 0.130498
C86   C     C_R   0.641036 0.742352 0.997765 0.123471
C87   C     C_R   0.737690 0.166702 0.998394 0.131764
C88   C     C_R   0.141205 0.242323 0.997824 0.123654
C89   C     C_R   0.455232 0.504966 0.516679 0.260136
C90   C     C_R   0.459832 0.503637 0.428264 0.233130
C91   C     C_R   0.956827 0.010975 0.518183 0.252192
C92   C     C_R   0.961269 0.010482 0.429750 0.240882
C93   C     C_R   0.549992 0.501529 0.448862 -0.029064
C94   C     C_R   0.541011 0.504155 0.622513 -0.026621
C95   C     C_R   0.050379 0.003497 0.449252 -0.044919
C96   C     C_R   0.041661 0.003010 0.623168 -0.031041
C97   C     C_R   0.634473 0.501873 0.553916 -0.119437
C98   C     C_R   0.629911 0.503175 0.641774 -0.144504
C99   C     C_R   0.134297 0.997227 0.553693 -0.111101
C100  C     C_R   0.129748 0.996487 0.641599 -0.127144
H57   H     H_    0.703091 0.500725 0.567253 0.144683
H58   H     H_    0.694950 0.502434 0.724278 0.147026
H59   H     H_    0.202166 0.991840 0.566298 0.146618
H60   H     H_    0.194127 0.990626 0.723454 0.146047
N33   N     N_R   0.364345 0.504049 0.499299 0.257869
O1    O     O_R   0.304339 0.464261 0.442861 -0.310188
O2    O     O_R   0.336850 0.546196 0.527741 -0.408553
N34   N     N_R   0.373880 0.505961 0.318619 0.254235
O3    O     O_R   0.312231 0.545123 0.290831 -0.357861
O4    O     O_R   0.353426 0.466674 0.249092 -0.400267
N35   N     N_R   0.867384 0.020982 0.501531 0.249649
O5    O     O_R   0.830007 0.983659 0.527689 -0.356733
O6    O     O_R   0.818088 0.064777 0.448732 -0.367185
N36   N     N_R   0.875202 0.013553 0.320557 0.255308
O7    O     O_R   0.857801 0.056855 0.260537 -0.413387
O8    O     O_R   0.808743 0.976676 0.286830 -0.336687
N37   N     N_R   0.583678 0.400966 0.347491 0.214389
O9    O     O_R   0.610485 0.367968 0.302227 -0.445264
O10   O     O_R   0.595719 0.385852 0.437552 -0.358843
N38   N     N_R   0.486810 0.402145 0.686013 0.222995
O11   O     O_R   0.405909 0.378412 0.649617 -0.408768
O12   O     O_R   0.539863 0.382256 0.658702 -0.370762
N39   N     N_R   0.081163 0.901176 0.347462 0.217718
O13   O     O_R   0.110370 0.868266 0.304620 -0.439341
O14   O     O_R   0.088312 0.885522 0.434457 -0.362193
N40   N     N_R   0.990232 0.901570 0.689497 0.226325
O15   O     O_R   0.909096 0.877613 0.651233 -0.400493
O16   O     O_R   0.045500 0.881388 0.665604 -0.375472

loop_
_geom_bond_atom_site_label_1
_geom_bond_atom_site_label_2
_geom_bond_distance
_ccdc_geom_bond_type
C22   H18   1.079058 S    
C31   H27   1.073893 S    
N3    N31   1.388973 A    
C11   N39   1.434105 S    
C30   C34   1.378520 A    
N12   Ni3   1.867231 S    
C26   N26   1.337689 A    
N33   O1    1.301009 A    
C6    H6    1.079536 S    
C25   N25   1.335600 A    
C14   N14   1.328491 A    
C3    N3    1.335361 A    
C47   C55   1.460890 S    
N13   Ni6   1.846835 S    
C100  H60   1.083976 S    
C51   C55   1.399729 A    
C82   C86   1.403617 A    
C77   H49   1.080632 S    
C27   N27   1.335473 A    
C63   C64   1.505226 S    
C98   H58   1.084066 S    
N37   O9    1.300845 A    
C80   C82   1.383771 A    
C97   C98   1.373781 A    
C18   C42   1.372866 A    
N19   Ni7   1.867953 S    
C92   C95   1.402983 A    
C1    H1    1.078121 S    
C96   C100  1.391402 A    
C19   N19   1.325263 A    
C8    H8    1.079535 S    
N7    Ni7   1.849409 S    
N38   O12   1.300776 A    
C70   H46   1.080427 S    
C20   H16   1.080740 S    
C41   C93   1.405225 S    
N16   N24   1.375397 A    
N24   Ni4   1.846842 S    
C15   H11   1.079612 S    
C16   C48   1.383292 A    
C58   H30   1.081606 S    
C61   H33   1.111947 S    
C20   C44   1.374788 A    
C65   C85   1.399780 A    
C29   C33   1.387744 A    
C10   N38   1.430300 S    
C50   C54   1.402256 A    
C89   N33   1.437505 S    
C49   C53   1.399801 A    
N13   N21   1.375398 A    
C59   H31   1.081151 S    
C23   N23   1.340086 A    
C4    C36   1.382071 A    
C92   N36   1.436498 S    
C64   H36   1.112441 S    
N8    N28   1.388971 A    
N16   Ni7   1.849370 S    
N17   Ni5   1.867953 S    
C78   C84   1.383835 A    
C26   H22   1.080179 S    
N11   Ni4   1.867213 S    
C25   H21   1.078607 S    
C17   H13   1.081236 S    
C4    N4    1.336397 A    
C15   N15   1.327964 A    
C82   H54   1.079968 S    
C39   C87   1.461369 S    
C24   C48   1.393495 A    
C4    H4    1.080048 S    
C56   C60   1.408001 A    
C29   N29   1.335413 A    
C7    N7    1.332244 A    
C81   C85   1.403550 A    
C8    N8    1.331430 A    
C74   C78   1.400462 A    
N27   Ni8   1.866272 S    
N1    Ni1   1.867463 S    
N33   O2    1.300758 A    
C18   N18   1.325135 A    
C2    H2    1.079989 S    
N7    N27   1.388969 A    
C68   C70   1.384742 A    
C48   C56   1.461973 S    
C67   C69   1.383107 A    
C49   C62   1.496982 S    
C60   H32   1.081606 S    
C12   N12   1.328712 A    
C22   N22   1.339905 A    
C29   H25   1.074348 S    
C6    C38   1.379622 A    
C99   H59   1.083956 S    
N37   O10   1.300752 A    
C9    N9    1.329844 A    
C2    C34   1.382328 A    
C19   C43   1.360457 A    
C21   C45   1.384255 A    
C66   C86   1.401176 A    
N10   Ni1   1.867231 S    
C71   H47   1.079770 S    
N35   O5    1.300194 A    
C14   C46   1.383430 A    
C68   H44   1.080573 S    
N9    Ni2   1.867213 S    
C16   H12   1.075121 S    
C1    N1    1.335394 A    
N38   O11   1.301093 A    
N6    N26   1.388971 A    
N5    Ni5   1.849409 S    
C10   C42   1.384185 A    
N1    N29   1.388973 A    
N39   O13   1.300901 A    
C8    C40   1.379853 A    
C79   H51   1.080700 S    
C99   C100  1.374159 A    
C67   C87   1.399886 A    
C71   C75   1.404243 A    
C30   H26   1.073701 S    
C27   C39   1.392573 A    
N29   Ni2   1.846716 S    
C23   C47   1.384296 A    
C28   N28   1.337631 A    
C69   C73   1.404082 A    
C83   H55   1.080154 S    
C22   C46   1.393527 A    
N31   Ni4   1.846716 S    
C54   C58   1.408066 A    
C7    H7    1.075730 S    
C53   C57   1.408004 A    
C57   H29   1.081168 S    
N15   Ni8   1.846835 S    
C62   H38   1.111786 S    
N10   N18   1.375158 A    
C12   C44   1.382676 A    
N14   Ni5   1.849370 S    
C55   C59   1.407974 A    
N28   Ni7   1.866248 S    
C81   H53   1.080469 S    
C75   C79   1.400883 A    
C68   C88   1.401278 A    
C31   C35   1.387657 A    
C46   C54   1.462187 S    
N20   Ni8   1.867931 S    
C45   C53   1.461057 S    
C28   H24   1.080176 S    
C5    C37   1.388093 A    
N22   Ni2   1.846842 S    
C21   H17   1.080498 S    
C34   C73   1.461731 S    
N21   Ni1   1.849372 S    
C91   C96   1.406418 A    
C50   C61   1.499725 S    
C17   C41   1.363850 A    
C76   C80   1.400409 A    
N15   N23   1.375398 A    
N34   O4    1.300842 A    
N8    Ni8   1.846834 S    
N36   O8    1.300965 A    
C11   N11   1.332337 A    
C90   N34   1.438605 S    
C57   C58   1.400624 A    
C16   N16   1.328401 A    
N26   Ni5   1.866248 S    
C43   C95   1.405715 S    
N5    N25   1.388969 A    
N25   Ni6   1.866272 S    
C2    N2    1.335900 A    
C32   C36   1.378188 A    
N4    Ni4   1.867485 S    
C83   C87   1.403325 A    
C28   C40   1.385487 A    
C80   H52   1.080717 S    
N23   Ni3   1.849372 S    
C84   C88   1.403577 A    
C66   H42   1.080588 S    
C18   H14   1.080684 S    
N40   O16   1.300724 A    
C14   H10   1.075144 S    
C23   H19   1.080487 S    
N4    N32   1.388972 A    
C12   N40   1.430795 S    
N14   N22   1.375397 A    
C32   H28   1.073172 S    
C7    C39   1.388083 A    
C70   C74   1.403365 A    
C62   H34   1.112436 S    
C19   H15   1.081413 S    
C51   C52   1.379046 A    
C36   C75   1.462367 S    
N32   Ni3   1.849291 S    
C37   C85   1.461862 S    
C59   C60   1.400487 A    
C72   H48   1.080404 S    
C20   N20   1.324975 A    
C38   C86   1.462439 S    
C77   C83   1.384101 A    
C31   N31   1.335487 A    
C63   H35   1.111948 S    
N6    Ni6   1.846834 S    
C3    H3    1.078098 S    
C51   C64   1.496922 S    
C30   N30   1.333028 A    
C13   C45   1.376274 A    
C79   C81   1.384807 A    
C24   H20   1.079040 S    
C52   C63   1.499802 S    
C13   N13   1.328044 A    
C6    N6    1.331393 A    
C90   C93   1.404253 A    
C9    N37   1.434483 S    
C91   C92   1.380862 A    
C64   H40   1.111785 S    
C35   C76   1.462807 S    
C5    N5    1.332796 A    
C72   C76   1.403420 A    
C27   H23   1.078607 S    
C9    C41   1.368034 A    
C89   C90   1.382607 A    
C61   C62   1.505246 S    
N9    N17   1.375159 A    
C33   C74   1.462825 S    
C97   H57   1.084075 S    
C67   H43   1.080836 S    
N18   Ni6   1.867931 S    
C11   C43   1.371460 A    
C63   H39   1.112297 S    
C42   C94   1.408958 S    
C78   H50   1.080716 S    
C89   C94   1.405997 A    
C13   H9    1.079623 S    
N2    Ni2   1.867485 S    
N39   O14   1.300647 A    
C69   H45   1.079811 S    
N40   O15   1.301196 A    
C40   C88   1.462552 S    
C95   C99   1.390959 A    
C15   C47   1.376270 A    
C52   C56   1.402294 A    
C94   C98   1.390812 A    
C17   N17   1.328417 A    
C5    H5    1.075745 S    
C65   C71   1.383060 A    
C93   C97   1.390990 A    
C84   H56   1.079979 S    
N2    N30   1.388972 A    
C66   C72   1.384707 A    
N34   O3    1.301169 A    
C24   N24   1.339854 A    
C1    C33   1.390404 A    
N36   O7    1.300302 A    
C91   N35   1.438495 S    
N35   O6    1.301035 A    
N3    Ni3   1.867463 S    
C65   H41   1.080830 S    
C3    C35   1.390199 A    
C61   H37   1.112298 S    
C32   N32   1.333394 A    
N30   Ni1   1.849291 S    
N11   N19   1.375159 A    
C49   C50   1.379117 A    
N12   N20   1.375158 A    
C73   C77   1.400720 A    
C26   C38   1.385475 A    
C25   C37   1.392630 A    
C21   N21   1.340198 A    
C10   N10   1.328418 A    
C44   C96   1.408553 S    
