data_mof_unit_51928.cif
_audit_creation_date              2012-12-10T19:00:00-0500
_audit_creation_method            fapswitch 2.2
_symmetry_space_group_name_H-M    P1
_symmetry_Int_Tables_number       1
_space_group_crystal_system       triclinic
_cell_length_a                    10.815188
_cell_length_b                    10.693926
_cell_length_c                    9.867766
_cell_angle_alpha                 90.050559
_cell_angle_beta                  91.087144
_cell_angle_gamma                 90.091969
_cell_volume                      1141.06705618

loop_
_atom_site_label
_atom_site_type_symbol
_atom_type_description
_atom_site_fract_x
_atom_site_fract_y
_atom_site_fract_z
_atom_type_partial_charge
C1    C     C_R   0.500033 0.260012 0.499911 0.866966
C2    C     C_R   0.534068 0.064234 0.618591 -0.198197
C3    C     C_R   0.499906 0.872461 0.500107 -0.007390
C4    C     C_R   0.500094 0.127538 0.499893 -0.007390
C5    C     C_R   0.512435 0.609011 0.072081 -0.058990
C6    C     C_R   0.487565 0.390989 0.927919 -0.058990
C7    C     C_R   0.512808 0.608953 0.928602 -0.065273
C8    C     C_R   0.487192 0.391047 0.071398 -0.065273
C9    C     C_R   0.259928 0.500665 0.498331 0.877441
C10   C     C_R   0.740072 0.499335 0.501669 0.877440
C11   C     C_R   0.194063 0.652620 0.058610 0.216324
C12   C     C_R   0.499967 0.739988 0.500089 0.866965
C13   C     C_R   0.805937 0.347380 0.941390 0.216324
C14   C     C_R   0.146537 0.641449 0.189080 -0.148671
C15   C     C_R   0.853462 0.358550 0.810920 -0.148671
C16   C     C_R   0.110883 0.524202 0.238142 0.068719
C17   C     C_R   0.889117 0.475798 0.761857 0.068719
C18   C     C_R   0.121301 0.417958 0.156123 -0.143490
C19   C     C_R   0.878699 0.582042 0.843877 -0.143490
C20   C     C_R   0.170148 0.427684 0.026288 0.216486
C21   C     C_R   0.829852 0.572316 0.973712 0.216486
C22   C     C_R   0.206650 0.545365 0.978024 -0.116933
C23   C     C_R   0.872653 0.498974 0.504485 -0.092827
C24   C     C_R   0.793350 0.454635 0.021975 -0.116933
C25   C     C_R   0.931299 0.511555 0.380592 -0.254834
C26   C     C_R   0.068701 0.488445 0.619408 -0.254834
C27   C     C_3   0.231185 0.778817 0.006820 -0.969154
C28   C     C_3   0.768815 0.221183 0.993180 -0.969155
C29   C     C_3   0.183970 0.311867 0.941933 -0.964367
C30   C     C_3   0.816030 0.688133 0.058067 -0.964366
C31   C     C_R   0.127347 0.501026 0.495515 -0.092827
C32   C     C_R   0.942250 0.487370 0.625956 0.020526
C33   C     C_R   0.057750 0.512630 0.374044 0.020526
C34   C     C_R   0.466041 0.063844 0.381293 -0.198051
C35   C     C_R   0.533959 0.936156 0.618707 -0.198051
C36   C     C_R   0.465931 0.935766 0.381409 -0.198197
H1    H     H_    0.246256 0.553743 0.878764 0.152756
H2    H     H_    0.120968 0.478455 0.712696 0.173380
H3    H     H_    0.438524 0.112622 0.289385 0.144151
H4    H     H_    0.561476 0.887378 0.710615 0.144151
H5    H     H_    0.438400 0.886651 0.289568 0.144065
H6    H     H_    0.561600 0.113348 0.710432 0.144065
H7    H     H_    0.522631 0.696548 0.125916 0.130395
H8    H     H_    0.477369 0.303451 0.874084 0.130395
H9    H     H_    0.267454 0.773081 0.902418 0.245095
H10   H     H_    0.149779 0.841968 0.005493 0.246042
H11   H     H_    0.304333 0.819175 0.074183 0.235575
H12   H     H_    0.753744 0.446257 0.121236 0.152756
H13   H     H_    0.732546 0.226919 0.097582 0.245095
H14   H     H_    0.695667 0.180825 0.925817 0.235576
H15   H     H_    0.850221 0.158032 0.994507 0.246042
H16   H     H_    0.229268 0.331963 0.844374 0.248484
H17   H     H_    0.241629 0.242626 0.998062 0.236809
H18   H     H_    0.091619 0.270276 0.920343 0.252268
H19   H     H_    0.770732 0.668037 0.155626 0.248484
H20   H     H_    0.908381 0.729724 0.079657 0.252268
H21   H     H_    0.758370 0.757374 0.001938 0.236809
H22   H     H_    0.523292 0.696435 0.875362 0.126134
H23   H     H_    0.476708 0.303565 0.124637 0.126134
H24   H     H_    0.136854 0.723753 0.252162 0.134944
H25   H     H_    0.863146 0.276247 0.747838 0.134944
H26   H     H_    0.092378 0.327580 0.193934 0.140525
H27   H     H_    0.907622 0.672420 0.806065 0.140525
H28   H     H_    0.879032 0.521545 0.287304 0.173380
N1    N     N_R   0.499970 0.499970 0.857200 -0.086762
N2    N     N_R   0.500030 0.500030 0.142800 -0.086762
O1    O     O_R   0.499990 0.316750 0.614620 -0.634480
O2    O     O_R   0.500010 0.683250 0.385380 -0.634480
O3    O     O_R   0.499990 0.316780 0.385290 -0.635855
O4    O     O_R   0.500010 0.683220 0.614710 -0.635855
O5    O     O_R   0.316760 0.500000 0.614660 -0.637532
O6    O     O_R   0.683240 0.500000 0.385340 -0.637532
O7    O     O_R   0.316760 0.500020 0.385330 -0.603904
O8    O     O_R   0.683240 0.499980 0.614670 -0.603903
Zn1   Zn    Zn3+2 0.500000 0.499980 0.653120 0.939622
Zn2   Zn    Zn3+2 0.500000 0.500020 0.346880 0.939623

loop_
_geom_bond_atom_site_label_1
_geom_bond_atom_site_label_2
_ccdc_geom_bond_type
C2    C35   A    
C8    N2    A    
O6    Zn2   S    
C26   C32   A    
C12   O2    A    
C19   C21   A    
C8    H23   S    
C28   H15   S    
C29   H18   S    
C30   H21   S    
O3    Zn2   S    
C3    C12   S    
C17   C19   A    
C28   H14   S    
C6    N1    A    
C19   H27   S    
C31   C33   A    
C13   C28   S    
C3    C35   A    
C7    H22   S    
C34   C36   A    
C27   H9    S    
C5    H7    S    
C26   C31   A    
C6    H8    S    
C36   H5    S    
C9    O7    A    
C20   C29   S    
C4    C34   A    
O8    Zn1   S    
C34   H3    S    
C24   H12   S    
C11   C14   A    
C5    C7    A    
C26   H2    S    
C6    C8    A    
C22   H1    S    
C30   H20   S    
C1    O3    A    
C13   C24   A    
C25   H28   S    
C2    C4    A    
C16   C33   S    
C7    N1    A    
C28   H13   S    
C11   C27   S    
N2    Zn2   S    
C15   H25   S    
C27   H10   S    
C20   C22   A    
C13   C15   A    
O7    Zn2   S    
C14   C16   A    
O1    Zn1   S    
C30   H19   S    
C27   H11   S    
C15   C17   A    
C12   O4    A    
C18   H26   S    
C9    O5    A    
C5    N2    A    
C10   C23   S    
O2    Zn2   S    
C14   H24   S    
C21   C30   S    
C11   C22   A    
N1    Zn1   S    
C1    C4    S    
C23   C32   A    
C35   H4    S    
O5    Zn1   S    
C10   O8    A    
C29   H17   S    
C3    C36   A    
C2    H6    S    
C1    O1    A    
C18   C20   A    
C23   C25   A    
C9    C31   S    
C16   C18   A    
C21   C24   A    
O4    Zn1   S    
C17   C32   S    
C25   C33   A    
C29   H16   S    
C10   O6    A    
