data_mof_unit_28747.cif
_audit_creation_date              2012-12-10T17:06:12-0500
_audit_creation_method            fapswitch 2.2
_symmetry_space_group_name_H-M    P1
_symmetry_Int_Tables_number       1
_space_group_crystal_system       triclinic
_cell_length_a                    10.629544
_cell_length_b                    11.034918
_cell_length_c                    9.841556
_cell_angle_alpha                 110.956025
_cell_angle_beta                  98.477775
_cell_angle_gamma                 91.048355
_cell_volume                      1063.0843397

loop_
_atom_site_label
_atom_site_type_symbol
_atom_type_description
_atom_site_fract_x
_atom_site_fract_y
_atom_site_fract_z
_atom_type_partial_charge
C1    C     C_R   0.490790 0.254215 0.440787 0.870637
C2    C     C_R   0.509209 0.745785 0.559213 0.870637
C3    C     C_R   0.259448 0.499870 0.500559 0.847770
C4    C     C_R   0.740552 0.500130 0.499441 0.847770
C5    C     C_3   0.045875 0.405091 0.546854 -0.320664
C6    C     C_3   0.954124 0.594909 0.453146 -0.320661
C7    C     C_3   0.944928 0.385888 0.409945 0.588803
C8    C     C_3   0.055072 0.614112 0.590055 0.588807
C9    C     C_3   0.877254 0.500778 0.499683 -0.110816
C10   C     C_3   0.122746 0.499222 0.500317 -0.110816
C11   C     C_3   0.977558 0.522264 0.638645 -0.269945
C12   C     C_3   0.022442 0.477736 0.361355 -0.269947
C13   C     C_2   0.485785 0.114988 0.407459 -0.339237
C14   C     C_2   0.514215 0.885012 0.592541 -0.339237
C15   C     C_2   0.502378 0.069541 0.516648 -0.155712
C16   C     C_2   0.497622 0.930459 0.483352 -0.155712
C17   C     C_2   0.510589 0.510779 0.081421 -0.061107
C18   C     C_2   0.489411 0.489221 0.918579 -0.061108
Cu1   Cu    Cu3+1 0.522260 0.521810 0.644920 0.954604
Cu2   Cu    Cu3+1 0.477740 0.478190 0.355080 0.954604
H1    H     H_    0.480374 0.864898 0.368478 0.181643
H2    H     H_    0.519626 0.135102 0.631522 0.181643
H3    H     H_    0.531502 0.950880 0.707214 0.152559
H4    H     H_    0.468498 0.049120 0.292786 0.152559
H5    H     H_    0.415858 0.416046 0.845323 0.155322
H6    H     H_    0.584142 0.583954 0.154677 0.155322
H7    H     H_    0.624452 0.623953 0.934884 0.188287
H8    H     H_    0.375548 0.376047 0.065116 0.188287
N1    N     N_2   0.444270 0.445410 0.137360 -0.284856
N2    N     N_2   0.555730 0.554590 0.862640 -0.284856
O1    O     O_R   0.511880 0.332340 0.577400 -0.585787
O2    O     O_R   0.488120 0.667660 0.422600 -0.585787
O3    O     O_R   0.474280 0.295500 0.332650 -0.570949
O4    O     O_R   0.525720 0.704500 0.667350 -0.570949
O5    O     O_R   0.335640 0.518390 0.622350 -0.561453
O6    O     O_R   0.664360 0.481610 0.377650 -0.561453
O7    O     O_R   0.298050 0.481550 0.377590 -0.590575
O8    O     O_R   0.701950 0.518450 0.622410 -0.590575
O9    O     O_3   0.876409 0.267619 0.316359 -0.571708
C19   C     C_3   0.962172 0.179344 0.247318 -0.326730
H9    H     H_    0.031729 0.156773 0.329475 0.155961
H10   H     H_    0.012873 0.216328 0.177164 0.154897
H11   H     H_    0.907143 0.086853 0.174186 0.188804
O10   O     O_3   0.123590 0.732380 0.683640 -0.571706
C20   C     C_3   0.037828 0.820656 0.752684 -0.326749
H12   H     H_    0.987137 0.783677 0.822845 0.154902
H13   H     H_    0.968266 0.843222 0.670533 0.155961
H14   H     H_    0.092854 0.913148 0.825807 0.188806
H15   H     H_    0.086164 0.327636 0.583492 0.149112
H16   H     H_    0.913836 0.672364 0.416507 0.149112
H17   H     H_    0.956857 0.541798 0.751567 0.161143
H18   H     H_    0.043143 0.458202 0.248433 0.161143

loop_
_geom_bond_atom_site_label_1
_geom_bond_atom_site_label_2
_ccdc_geom_bond_type
C14   H3    S    
C4    O6    A    
C16   H1    S    
C18   N2    D    
Cu1   O8    S    
C17   N1    D    
Cu1   Cu2   S    
C13   C15   D    
C3    O5    A    
Cu1   O1    S    
C2    O4    A    
C6    C9    S    
C19   H10   S    
C17   C18   S    
C1    O3    A    
C5    C10   S    
C15   H2    S    
C3    C10   S    
Cu1   O5    S    
C20   H12   S    
C6    H16   S    
H7    N2    S    
Cu2   O7    S    
C9    C11   S    
C5    H15   S    
C18   H5    S    
C10   C12   S    
C8    C11   S    
Cu2   O3    S    
C8    C10   S    
H8    N1    S    
C12   H18   S    
C4    O8    A    
C5    C11   S    
Cu2   N1    S    
C20   H13   S    
C6    C12   S    
C7    C12   S    
C2    C14   S    
C14   C16   D    
C1    C13   S    
C17   H6    S    
C15   C16   S    
Cu2   O6    S    
C7    C9    S    
C1    O1    A    
C11   H17   S    
O10   C20   S    
C3    O7    A    
C2    O2    A    
Cu2   O2    S    
C20   H14   S    
O9    C19   S    
C5    C7    S    
C7    O9    S    
C19   H9    S    
C6    C8    S    
C4    C9    S    
Cu1   N2    S    
C19   H11   S    
C8    O10   S    
C13   H4    S    
Cu1   O4    S    
