data_mof_unit_62710.cif
_audit_creation_date              2013-03-05T15:42:48-0500
_audit_creation_method            fapswitch 2.2
_symmetry_space_group_name_H-M    P1
_symmetry_Int_Tables_number       1
_space_group_crystal_system       triclinic
_cell_length_a                    21.759513
_cell_length_b                    21.757898
_cell_length_c                    55.737759
_cell_angle_alpha                 90.570453
_cell_angle_beta                  91.020821
_cell_angle_gamma                 90.043063
_cell_volume                      26383.0478016

loop_
_atom_site_label
_atom_site_type_symbol
_atom_site_description
_atom_site_fract_x
_atom_site_fract_y
_atom_site_fract_z
_atom_type_partial_charge
O1    O     O_R   0.499960 0.590510 0.020150 -0.624408
O2    O     O_R   0.409490 0.499960 0.020150 -0.617855
O3    O     O_R   0.500040 0.409490 0.020150 -0.615022
O4    O     O_R   0.590510 0.500040 0.020150 -0.621656
O5    O     O_R   0.999960 0.090510 0.520150 -0.624465
O6    O     O_R   0.909490 0.999960 0.520150 -0.617829
O7    O     O_R   0.000040 0.909490 0.520150 -0.615131
O8    O     O_R   0.090510 0.000040 0.520150 -0.621581
O9    O     O_R   0.499990 0.590510 0.979930 -0.615168
O10   O     O_R   0.409490 0.499990 0.979930 -0.621709
O11   O     O_R   0.500010 0.409490 0.979930 -0.624425
O12   O     O_R   0.590510 0.500010 0.979930 -0.617726
O13   O     O_R   0.999990 0.090510 0.479930 -0.615044
O14   O     O_R   0.909490 0.999990 0.479930 -0.621676
O15   O     O_R   0.000010 0.909490 0.479930 -0.624427
O16   O     O_R   0.090510 0.000010 0.479930 -0.617907
C1    C     C_R   0.504636 0.618662 0.000273 0.914634
C2    C     C_R   0.381350 0.504646 0.999775 0.913802
C3    C     C_R   0.495363 0.381338 0.999808 0.914676
C4    C     C_R   0.618650 0.495353 0.000306 0.913619
C5    C     C_R   0.004635 0.118662 0.500273 0.914489
C6    C     C_R   0.881350 0.004645 0.499775 0.913502
C7    C     C_R   0.995365 0.881338 0.499808 0.914684
C8    C     C_R   0.118650 0.995355 0.500306 0.913643
C9    C     C_R   0.503892 0.998087 0.123685 0.306398
C10   C     C_R   0.997986 0.502455 0.123675 0.306698
C11   C     C_R   0.003557 0.500680 0.623696 0.306311
C12   C     C_R   0.497933 0.002435 0.623669 0.306179
Zn1   Zn    Zn3+2 0.500000 0.500000 0.026890 0.984427
Zn2   Zn    Zn3+2 0.000000 0.000000 0.526890 0.984302
Zn3   Zn    Zn3+2 0.500000 0.500000 0.973180 0.984286
Zn4   Zn    Zn3+2 0.000000 0.000000 0.473180 0.984174
C13   C     C_2   0.782880 0.460909 0.985261 -0.200244
C14   C     C_2   0.538261 0.783250 0.985237 -0.202341
C15   C     C_2   0.217121 0.539098 0.014819 -0.201062
C16   C     C_2   0.461757 0.216750 0.014850 -0.202151
C17   C     C_2   0.282879 0.960905 0.485264 -0.199921
C18   C     C_2   0.038246 0.283250 0.485234 -0.201154
C19   C     C_2   0.717121 0.039077 0.514822 -0.199776
C20   C     C_2   0.961752 0.716751 0.514848 -0.201637
C21   C     C_2   0.814270 0.504032 0.997774 0.285985
C22   C     C_2   0.495667 0.814302 0.997577 0.284644
C23   C     C_2   0.185731 0.495965 0.002311 0.283064
C24   C     C_2   0.504333 0.185697 0.002501 0.285152
C25   C     C_2   0.314269 0.004034 0.497773 0.283665
C26   C     C_2   0.995667 0.314303 0.497581 0.285720
C27   C     C_2   0.685730 0.995965 0.502304 0.284184
C28   C     C_2   0.004336 0.685697 0.502503 0.282749
H1    H     H_    0.806590 0.424098 0.975916 0.128258
H2    H     H_    0.574755 0.807207 0.976098 0.129033
H3    H     H_    0.193413 0.575920 0.024158 0.131492
H4    H     H_    0.425276 0.192792 0.023995 0.128542
H5    H     H_    0.306588 0.924087 0.475922 0.131446
H6    H     H_    0.074729 0.307208 0.476088 0.128322
H7    H     H_    0.693412 0.075882 0.524172 0.130905
H8    H     H_    0.925261 0.692794 0.523989 0.131841
C29   C     C_2   0.715944 0.465057 0.982753 -0.109125
C30   C     C_2   0.534067 0.716328 0.982730 -0.106816
C31   C     C_2   0.284058 0.534946 0.017328 -0.109204
C32   C     C_2   0.465955 0.283671 0.017357 -0.106950
C33   C     C_2   0.215943 0.965054 0.482755 -0.109505
C34   C     C_2   0.034051 0.216329 0.482727 -0.107179
C35   C     C_2   0.784056 0.034923 0.517332 -0.109736
C36   C     C_2   0.965950 0.783671 0.517355 -0.107172
C37   C     C_2   0.683489 0.482906 0.001688 -0.225924
C38   C     C_2   0.517050 0.683532 0.001611 -0.229382
C39   C     C_2   0.316510 0.517090 0.998394 -0.226868
C40   C     C_2   0.482947 0.316468 0.998473 -0.228899
C41   C     C_2   0.183489 0.982911 0.501689 -0.226436
C42   C     C_2   0.017051 0.183532 0.501610 -0.228651
C43   C     C_2   0.816511 0.017091 0.498395 -0.226002
C44   C     C_2   0.982952 0.816468 0.498472 -0.229658
H9    H     H_    0.693957 0.454299 0.965573 0.162602
H10   H     H_    0.544170 0.694640 0.965616 0.163679
H11   H     H_    0.306046 0.545711 0.034507 0.163506
H12   H     H_    0.455875 0.305358 0.034473 0.163288
H13   H     H_    0.193957 0.954288 0.465576 0.163405
H14   H     H_    0.044138 0.194642 0.465611 0.163143
H15   H     H_    0.806042 0.045666 0.534513 0.162953
H16   H     H_    0.955860 0.805359 0.534470 0.164245
H17   H     H_    0.705341 0.486936 0.019342 0.188174
H18   H     H_    0.513654 0.705148 0.019221 0.187006
H19   H     H_    0.294656 0.513056 0.980740 0.188020
H20   H     H_    0.486320 0.294853 0.980861 0.187002
H21   H     H_    0.205342 0.986948 0.519343 0.188357
H22   H     H_    0.013669 0.205146 0.519222 0.187148
H23   H     H_    0.794659 0.013078 0.480739 0.188331
H24   H     H_    0.986335 0.794851 0.480861 0.187139
O17   O     O_R   0.999980 0.448970 0.964420 -0.624191
O18   O     O_R   0.551030 0.999980 0.964420 -0.623811
O19   O     O_R   0.000020 0.551030 0.964420 -0.616451
O20   O     O_R   0.448970 0.000020 0.964420 -0.616821
O21   O     O_R   0.499980 0.948970 0.464420 -0.624492
O22   O     O_R   0.051030 0.499980 0.464420 -0.623658
O23   O     O_R   0.500020 0.051030 0.464420 -0.616346
O24   O     O_R   0.948970 0.500020 0.464420 -0.616631
C45   C     C_R   0.999983 0.499720 0.952923 0.880066
C46   C     C_R   0.499485 0.999991 0.952921 0.879933
C47   C     C_R   0.500000 0.999705 0.452922 0.880087
C48   C     C_R   0.999485 0.499991 0.452923 0.879768
O25   O     O_R   0.909490 0.448990 0.000040 -0.629069
O26   O     O_R   0.551010 0.909490 0.000040 -0.631888
O27   O     O_R   0.090510 0.551010 0.000040 -0.629534
O28   O     O_R   0.448990 0.090510 0.000040 -0.631851
O29   O     O_R   0.409490 0.948990 0.500040 -0.627212
O30   O     O_R   0.051010 0.409490 0.500040 -0.629793
O31   O     O_R   0.590510 0.051010 0.500040 -0.627190
O32   O     O_R   0.948990 0.590510 0.500040 -0.630158
O33   O     O_R   0.909510 0.551130 0.000040 -0.611510
O34   O     O_R   0.448870 0.909510 0.000040 -0.609179
O35   O     O_R   0.090490 0.448870 0.000040 -0.611499
O36   O     O_R   0.551130 0.090490 0.000040 -0.609107
O37   O     O_R   0.409510 0.051130 0.500040 -0.613614
O38   O     O_R   0.948870 0.409510 0.500040 -0.611053
O39   O     O_R   0.590490 0.948870 0.500040 -0.613594
O40   O     O_R   0.051130 0.590490 0.500040 -0.611042
C49   C     C_R   0.880702 0.500507 0.999637 0.808622
C50   C     C_R   0.499421 0.880700 0.999596 0.808134
C51   C     C_R   0.119298 0.499493 0.000444 0.808456
C52   C     C_R   0.500579 0.119299 0.000484 0.808103
C53   C     C_R   0.380702 0.000507 0.499637 0.808706
C54   C     C_R   0.999421 0.380701 0.499596 0.808233
C55   C     C_R   0.619297 0.999492 0.500442 0.808654
C56   C     C_R   0.000579 0.619299 0.500484 0.808212
Zn5   Zn    Zn3+2 0.999950 0.431840 0.000040 0.975745
Zn6   Zn    Zn3+2 0.568160 0.999950 0.000040 0.975890
Zn7   Zn    Zn3+2 0.000050 0.568160 0.000040 0.975483
Zn8   Zn    Zn3+2 0.431840 0.000050 0.000040 0.975806
Zn9   Zn    Zn3+2 0.499950 0.931840 0.500040 0.975581
Zn10  Zn    Zn3+2 0.068160 0.499950 0.500040 0.975859
Zn11  Zn    Zn3+2 0.500050 0.068160 0.500040 0.975569
Zn12  Zn    Zn3+2 0.931840 0.500050 0.500040 0.975742
O41   O     O_R   0.999930 0.448970 0.035660 -0.616487
O42   O     O_R   0.551030 0.999930 0.035660 -0.616792
O43   O     O_R   0.000070 0.551030 0.035660 -0.624607
O44   O     O_R   0.448970 0.000070 0.035660 -0.623815
O45   O     O_R   0.499930 0.948970 0.535660 -0.616361
O46   O     O_R   0.051030 0.499930 0.535660 -0.616925
O47   O     O_R   0.500070 0.051030 0.535660 -0.624510
O48   O     O_R   0.948970 0.500070 0.535660 -0.623994
C57   C     C_R   0.000002 0.500296 0.047160 0.880227
C58   C     C_R   0.500515 0.000008 0.047159 0.879926
C59   C     C_R   0.500001 0.000296 0.547158 0.880127
C60   C     C_R   0.000507 0.500022 0.547159 0.880044
C61   C     C_R   0.961604 0.538650 0.762595 0.044550
C62   C     C_R   0.455340 0.963259 0.762227 0.044451
C63   C     C_R   0.043800 0.460422 0.762925 0.044453
C64   C     C_R   0.533093 0.046051 0.763231 0.044538
C65   C     C_R   0.546942 0.034132 0.263280 0.044614
C66   C     C_R   0.954422 0.464337 0.262225 0.044703
C67   C     C_R   0.463956 0.956586 0.262246 0.044789
C68   C     C_R   0.034233 0.545147 0.263238 0.044701
C69   C     C_R   0.002342 0.499229 0.775336 0.072427
C70   C     C_R   0.494186 0.004543 0.775310 0.072421
C71   C     C_R   0.505187 0.995473 0.275343 0.072424
C72   C     C_R   0.994293 0.504631 0.275312 0.072411
C73   C     C_R   0.918308 0.573132 0.775736 -0.213391
C74   C     C_R   0.420561 0.920129 0.775126 -0.213050
C75   C     C_R   0.086229 0.425182 0.776518 -0.213089
C76   C     C_R   0.567564 0.089151 0.777080 -0.213403
C77   C     C_R   0.589928 0.068692 0.277176 -0.213252
C78   C     C_R   0.918566 0.422097 0.275120 -0.213186
C79   C     C_R   0.420540 0.922110 0.275097 -0.213386
C80   C     C_R   0.069776 0.587365 0.277091 -0.213460
C81   C     C_R   0.917073 0.571084 0.800600 -0.135517
C82   C     C_R   0.422109 0.919274 0.800026 -0.135286
C83   C     C_R   0.086074 0.426082 0.801422 -0.135406
C84   C     C_R   0.566176 0.089335 0.801965 -0.135669
C85   C     C_R   0.589834 0.067554 0.302069 -0.135085
C86   C     C_R   0.920097 0.421197 0.300020 -0.135347
C87   C     C_R   0.419414 0.923910 0.299982 -0.135775
C88   C     C_R   0.068381 0.587592 0.301976 -0.135524
C89   C     C_R   0.958909 0.534696 0.813331 -0.021546
C90   C     C_R   0.458240 0.961363 0.813044 -0.021708
C91   C     C_R   0.043647 0.462018 0.813749 -0.021511
C92   C     C_R   0.530456 0.046627 0.814014 -0.021411
C93   C     C_R   0.546944 0.032014 0.314080 -0.021792
C94   C     C_R   0.957278 0.462361 0.313041 -0.021637
C95   C     C_R   0.461501 0.960009 0.313032 -0.021255
C96   C     C_R   0.031594 0.545798 0.314020 -0.021441
C97   C     C_R   0.001624 0.498633 0.800788 -0.051328
C98   C     C_R   0.494254 0.004210 0.800771 -0.051314
C99   C     C_R   0.504568 0.995803 0.300801 -0.051295
C100  C     C_R   0.994349 0.504297 0.300773 -0.051268
C101  C     C_R   0.958728 0.533169 0.838461 0.503883
C102  C     C_R   0.459801 0.961119 0.838196 0.504328
C103  C     C_R   0.042726 0.462774 0.838893 0.504452
C104  C     C_R   0.529754 0.045614 0.839147 0.503994
C105  C     C_R   0.545760 0.031426 0.339213 0.504212
C106  C     C_R   0.958844 0.462063 0.338194 0.504101
C107  C     C_R   0.461091 0.961684 0.338175 0.503977
C108  C     C_R   0.030849 0.544817 0.339153 0.503771
N1    N     N_R   0.000549 0.497897 0.850696 -0.354423
N2    N     N_R   0.495111 0.002963 0.850691 -0.354442
N3    N     N_R   0.502997 0.996873 0.350711 -0.354479
N4    N     N_R   0.995170 0.503027 0.350696 -0.354485
H25   H     H_    0.883524 0.601201 0.767318 0.144806
H26   H     H_    0.392716 0.885114 0.766514 0.144854
H27   H     H_    0.121386 0.397376 0.768477 0.144765
H28   H     H_    0.595203 0.124494 0.769232 0.144705
H29   H     H_    0.625401 0.096201 0.269372 0.144445
H30   H     H_    0.889840 0.387800 0.266504 0.144338
H31   H     H_    0.385517 0.894310 0.266444 0.144229
H32   H     H_    0.098305 0.621997 0.269248 0.144306
H33   H     H_    0.883069 0.598441 0.809819 0.190852
H34   H     H_    0.394697 0.885250 0.809045 0.190984
H35   H     H_    0.119530 0.398267 0.810991 0.190811
H36   H     H_    0.593569 0.123171 0.811741 0.190678
H37   H     H_    0.623623 0.094970 0.311880 0.191171
H38   H     H_    0.891836 0.387873 0.309035 0.191009
H39   H     H_    0.385207 0.896691 0.308965 0.190669
H40   H     H_    0.096617 0.620728 0.311756 0.190882
O49   O     O_2   0.916864 0.566375 0.850594 -0.560663
O50   O     O_2   0.426777 0.919036 0.850089 -0.560324
O51   O     O_2   0.084014 0.429158 0.851470 -0.561286
O52   O     O_2   0.563128 0.087141 0.851971 -0.561524
O53   O     O_2   0.587275 0.064765 0.352082 -0.559864
O54   O     O_2   0.924812 0.420783 0.350079 -0.559781
O55   O     O_2   0.418827 0.928835 0.350017 -0.561486
O56   O     O_2   0.065214 0.585534 0.351979 -0.560917
C109  C     C_R   0.544654 0.036746 0.237853 0.044704
C110  C     C_R   0.952207 0.467006 0.236798 0.044612
C111  C     C_R   0.466897 0.953959 0.236848 0.044701
C112  C     C_R   0.037107 0.542451 0.237839 0.044788
C113  C     C_R   0.964972 0.541887 0.737245 0.044543
C114  C     C_R   0.453052 0.965875 0.736800 0.044443
C115  C     C_R   0.041865 0.458439 0.737466 0.044471
C116  C     C_R   0.536035 0.043424 0.737834 0.044554
C117  C     C_R   0.505806 0.995464 0.224770 0.072419
C118  C     C_R   0.994917 0.504609 0.224739 0.072426
C119  C     C_R   0.003701 0.500418 0.724779 0.072432
C120  C     C_R   0.494806 0.004536 0.724737 0.072427
C121  C     C_R   0.432423 0.910860 0.223000 -0.213458
C122  C     C_R   0.081371 0.575834 0.224991 -0.213365
C123  C     C_R   0.579436 0.079874 0.224953 -0.213184
C124  C     C_R   0.908375 0.433528 0.222898 -0.213232
C125  C     C_R   0.076441 0.415389 0.724142 -0.213091
C126  C     C_R   0.579451 0.077900 0.724983 -0.213269
C127  C     C_R   0.931217 0.585673 0.723834 -0.213374
C128  C     C_R   0.410066 0.931314 0.722903 -0.213171
C129  C     C_R   0.433811 0.910676 0.198115 -0.135533
C130  C     C_R   0.082443 0.574022 0.200104 -0.135779
C131  C     C_R   0.577891 0.080726 0.200053 -0.135354
C132  C     C_R   0.908509 0.434653 0.198006 -0.135091
C133  C     C_R   0.075419 0.415309 0.699234 -0.135424
C134  C     C_R   0.580577 0.076100 0.700098 -0.135732
C135  C     C_R   0.933149 0.586616 0.698967 -0.135570
C136  C     C_R   0.410160 0.932453 0.698010 -0.135215
C137  C     C_R   0.469533 0.953381 0.186066 -0.021485
C138  C     C_R   0.039468 0.538989 0.187051 -0.021307
C139  C     C_R   0.541757 0.038639 0.187036 -0.021684
C140  C     C_R   0.952274 0.469111 0.185998 -0.021833
C141  C     C_R   0.040029 0.458116 0.686632 -0.021439
C142  C     C_R   0.538493 0.039999 0.687048 -0.021267
C143  C     C_R   0.968713 0.544005 0.686504 -0.021539
C144  C     C_R   0.453051 0.967994 0.685999 -0.021717
C145  C     C_R   0.505739 0.995796 0.199308 -0.051261
C146  C     C_R   0.995529 0.504265 0.199280 -0.051280
C147  C     C_R   0.004182 0.500871 0.699323 -0.051365
C148  C     C_R   0.495425 0.004205 0.699279 -0.051346
C149  C     C_R   0.540198 0.038881 0.161883 0.504132
C150  C     C_R   0.953486 0.469658 0.160865 0.504232
C151  C     C_R   0.470236 0.954394 0.160933 0.503814
C152  C     C_R   0.039822 0.537325 0.161908 0.504008
C153  C     C_R   0.969946 0.543766 0.661373 0.504231
C154  C     C_R   0.454235 0.968581 0.660866 0.504398
C155  C     C_R   0.039007 0.458668 0.661479 0.504384
C156  C     C_R   0.538904 0.038324 0.661905 0.504171
N5    N     N_R   0.504884 0.997040 0.149389 -0.354569
N6    N     N_R   0.997074 0.503166 0.149372 -0.354558
N7    N     N_R   0.004364 0.501167 0.649406 -0.354358
N8    N     N_R   0.496999 0.003134 0.649369 -0.354353
H41   H     H_    0.404782 0.875520 0.230848 0.144310
H42   H     H_    0.117081 0.602745 0.233645 0.144224
H43   H     H_    0.607283 0.114887 0.233565 0.144344
H44   H     H_    0.872221 0.406917 0.230700 0.144436
H45   H     H_    0.103748 0.379892 0.732403 0.144733
H46   H     H_    0.614472 0.105702 0.733636 0.144703
H47   H     H_    0.903790 0.621013 0.732035 0.144825
H48   H     H_    0.374594 0.903805 0.730707 0.144852
H49   H     H_    0.406415 0.876842 0.188339 0.190867
H50   H     H_    0.117317 0.600383 0.191123 0.190655
H51   H     H_    0.605304 0.114749 0.191034 0.191001
H52   H     H_    0.874049 0.408086 0.188192 0.191154
H53   H     H_    0.102663 0.381328 0.689878 0.190792
H54   H     H_    0.614785 0.103320 0.691115 0.190634
H55   H     H_    0.906313 0.620975 0.689532 0.190758
H56   H     H_    0.376372 0.905036 0.688199 0.190972
O57   O     O_2   0.573228 0.080958 0.149990 -0.559665
O58   O     O_2   0.911196 0.437319 0.147990 -0.559771
O59   O     O_2   0.436856 0.912871 0.148109 -0.560809
O60   O     O_2   0.082850 0.569160 0.150065 -0.561368
O61   O     O_2   0.937269 0.585960 0.648970 -0.561408
O62   O     O_2   0.412721 0.935242 0.647997 -0.560625
O63   O     O_2   0.071848 0.416686 0.649164 -0.561452
O64   O     O_2   0.581168 0.071173 0.650063 -0.562132
C157  C     C_R   0.988018 0.444085 0.888815 -0.096167
C158  C     C_R   0.551006 0.989336 0.888892 -0.097211
C159  C     C_R   0.012878 0.552766 0.889143 -0.097432
C160  C     C_R   0.442245 0.013563 0.889047 -0.096556
C161  C     C_R   0.513597 0.943498 0.389140 -0.096692
C162  C     C_R   0.050792 0.488333 0.388897 -0.097011
C163  C     C_R   0.489650 0.052328 0.388825 -0.097270
C164  C     C_R   0.942510 0.514622 0.389062 -0.096425
H57   H     H_    0.978083 0.401828 0.879071 0.148474
H58   H     H_    0.592729 0.979924 0.879213 0.147963
H59   H     H_    0.022927 0.594691 0.879660 0.148583
H60   H     H_    0.399718 0.023636 0.879498 0.148899
H61   H     H_    0.523557 0.901084 0.379657 0.148290
H62   H     H_    0.092328 0.478113 0.379217 0.148023
H63   H     H_    0.480344 0.094219 0.379086 0.148525
H64   H     H_    0.900183 0.525518 0.379520 0.148926
C165  C     C_R   0.988142 0.444423 0.913799 -0.216602
C166  C     C_R   0.552200 0.988849 0.913867 -0.215491
C167  C     C_R   0.012414 0.553344 0.914108 -0.209885
C168  C     C_R   0.443202 0.012502 0.914020 -0.210864
C169  C     C_R   0.512514 0.944073 0.414103 -0.215991
C170  C     C_R   0.051979 0.487854 0.413872 -0.215523
C171  C     C_R   0.489140 0.053138 0.413800 -0.210083
C172  C     C_R   0.943442 0.513522 0.414035 -0.210997
H65   H     H_    0.978320 0.402096 0.923052 0.164010
H66   H     H_    0.595153 0.979087 0.923173 0.164379
H67   H     H_    0.022122 0.596033 0.923595 0.166123
H68   H     H_    0.401070 0.021778 0.923451 0.165787
H69   H     H_    0.521669 0.901763 0.423589 0.164696
H70   H     H_    0.094734 0.477283 0.423178 0.163941
H71   H     H_    0.479481 0.095969 0.423047 0.166477
H72   H     H_    0.901500 0.523598 0.423475 0.165371
C173  C     C_R   0.000167 0.499130 0.926621 -0.047639
C174  C     C_R   0.498265 0.000360 0.926613 -0.047679
C175  C     C_R   0.500467 0.998963 0.426619 -0.048452
C176  C     C_R   0.998269 0.500367 0.426620 -0.047156
C177  C     C_R   0.000498 0.498217 0.876403 0.306182
C178  C     C_R   0.496104 0.001914 0.876395 0.306314
C179  C     C_R   0.502065 0.997570 0.376411 0.306227
C180  C     C_R   0.996139 0.501953 0.376402 0.305906
C181  C     C_R   0.557746 0.986413 0.111033 -0.096631
C182  C     C_R   0.009369 0.447475 0.111254 -0.097449
C183  C     C_R   0.448996 0.010689 0.111187 -0.097256
C184  C     C_R   0.987468 0.556736 0.110958 -0.096894
C185  C     C_R   0.948610 0.488754 0.611025 -0.097928
C186  C     C_R   0.510339 0.947674 0.611255 -0.097263
C187  C     C_R   0.057595 0.512195 0.611214 -0.096101
C188  C     C_R   0.486410 0.056508 0.610939 -0.096596
H73   H     H_    0.600268 0.976322 0.120582 0.148636
H74   H     H_    0.017875 0.405416 0.120989 0.148257
H75   H     H_    0.407278 0.020120 0.120866 0.147741
H76   H     H_    0.978322 0.599328 0.120452 0.148008
H77   H     H_    0.906750 0.479451 0.620569 0.147870
H78   H     H_    0.519639 0.905783 0.620995 0.148697
H79   H     H_    0.100164 0.521757 0.620904 0.149245
H80   H     H_    0.476456 0.098925 0.620422 0.148548
C189  C     C_R   0.556790 0.987471 0.086060 -0.210805
C190  C     C_R   0.009884 0.446664 0.086279 -0.209918
C191  C     C_R   0.447804 0.011176 0.086212 -0.215450
C192  C     C_R   0.988512 0.556142 0.085995 -0.215925
C193  C     C_R   0.947540 0.488753 0.586054 -0.215322
C194  C     C_R   0.510849 0.946863 0.586280 -0.210135
C195  C     C_R   0.056754 0.511630 0.586227 -0.210764
C196  C     C_R   0.487496 0.055932 0.585976 -0.216044
H81   H     H_    0.598918 0.978175 0.076629 0.165610
H82   H     H_    0.018739 0.403655 0.077029 0.166627
H83   H     H_    0.404855 0.020958 0.076907 0.164204
H84   H     H_    0.980149 0.598624 0.076521 0.164877
H85   H     H_    0.904538 0.479456 0.576621 0.165000
H86   H     H_    0.520502 0.904030 0.577033 0.166619
H87   H     H_    0.099017 0.520751 0.576921 0.166766
H88   H     H_    0.478347 0.098242 0.576489 0.164861
C197  C     C_R   0.501733 0.999638 0.073467 -0.047481
C198  C     C_R   0.999549 0.501041 0.073467 -0.048670
C199  C     C_R   0.001643 0.500100 0.573468 -0.048770
C200  C     C_R   0.499533 0.001039 0.573461 -0.048621
O65   O     O_3   0.784479 0.556433 0.005921 -0.759672
H89   H     H_    0.812731 0.580253 0.016622 0.341902
O66   O     O_3   0.443534 0.784250 0.005419 -0.757734
H90   H     H_    0.420215 0.812126 0.016081 0.343856
O67   O     O_3   0.215523 0.443557 0.994173 -0.759434
H91   H     H_    0.187274 0.419727 0.983474 0.343735
O68   O     O_3   0.556456 0.215748 0.994647 -0.757665
H92   H     H_    0.579762 0.187869 0.983982 0.343637
O69   O     O_3   0.284479 0.056439 0.505916 -0.760227
H93   H     H_    0.312731 0.080264 0.516616 0.342152
O70   O     O_3   0.943543 0.284253 0.505434 -0.758469
H94   H     H_    0.920237 0.312132 0.516098 0.342017
O71   O     O_3   0.715518 0.943570 0.494151 -0.760360
H95   H     H_    0.687264 0.919758 0.483447 0.341854
O72   O     O_3   0.056465 0.715748 0.494656 -0.758234
H96   H     H_    0.079778 0.687871 0.483993 0.343934

loop_
_geom_bond_atom_site_label_1
_geom_bond_atom_site_label_2
_geom_bond_distance
_ccdc_geom_bond_type
C14   C22   1.342731 D    
C163  C179  1.400725 A    
O34   C50   1.266949 A    
C140  C146  1.407769 A    
O15   Zn4   2.008600 S    
O17   Zn5   2.023710 S    
C141  C155  1.401923 A    
C92   C98   1.407732 A    
C142  C156  1.401703 A    
O19   Zn7   2.016393 S    
C86   C94   1.395904 A    
O2    Zn1   1.998376 S    
C19   C27   1.342500 D    
C157  C177  1.400692 A    
O23   C47   1.282017 A    
C193  H85   1.083011 S    
C34   C42   1.335012 D    
C195  H87   1.082993 S    
C152  O60   1.349933 S    
C85   C93   1.395930 A    
C111  C121  1.414820 A    
O33   Zn7   2.004377 S    
C68   C72   1.420155 A    
C95   C107  1.401696 A    
O35   Zn5   2.004377 S    
C84   H36   1.083496 S    
O3    C3    1.285710 A    
C67   C71   1.420157 A    
C103  N1    1.368054 A    
O32   C56   1.284825 A    
C105  O53   1.349913 S    
C92   C104  1.401605 A    
C143  C147  1.407743 A    
C72   C100  1.419248 A    
C82   C90   1.395900 A    
O39   C55   1.266713 A    
C133  H53   1.083497 S    
C129  C137  1.395898 A    
C137  C145  1.407734 A    
O36   C52   1.266944 A    
C21   O65   1.388371 S    
C61   C113  1.418551 A    
C32   H12   1.086083 S    
C124  H44   1.076888 S    
C195  C199  1.404392 A    
C17   H5    1.086685 S    
C116  C126  1.414890 A    
O30   Zn10  2.003007 S    
C38   H18   1.087953 S    
C61   C73   1.414791 A    
C27   C55   1.449558 S    
C62   C70   1.420187 A    
C79   H31   1.076866 S    
O12   C4    1.285553 A    
O1    Zn1   2.008486 S    
O18   Zn6   2.013530 S    
O13   C5    1.285710 A    
C3    C40   1.437801 S    
C161  C179  1.400448 A    
C137  C151  1.401605 A    
C123  C131  1.387999 A    
C135  H55   1.083498 S    
O6    Zn2   1.998377 S    
C35   C43   1.334978 D    
C15   H3    1.086682 S    
O69   H93   0.991253 S    
C113  C127  1.414776 A    
C16   C24   1.342732 D    
N1    C177  1.432852 S    
C189  C197  1.404363 A    
O70   H94   0.991199 S    
Zn10  O46   2.026591 S    
N3    C179  1.432872 S    
C163  H63   1.082906 S    
C20   C28   1.342726 D    
C151  O59   1.349931 S    
C7    C44   1.437794 S    
C25   O69   1.388373 S    
C12   C188  1.400449 A    
O66   H90   0.991195 S    
C119  C147  1.419189 A    
C93   C105  1.401743 A    
C33   C41   1.334979 D    
C164  C180  1.400581 A    
C65   C71   1.420192 A    
O8    Zn2   2.011527 S    
C12   C186  1.400725 A    
C159  H59   1.082930 S    
C181  C189  1.392144 A    
C160  C168  1.392139 A    
C114  C120  1.420188 A    
C161  C169  1.391917 A    
C74   H26   1.076846 S    
C75   C83   1.388112 A    
C172  H72   1.083022 S    
C63   C69   1.420220 A    
O4    C4    1.276980 A    
C60   C199  1.466173 S    
Zn9   O45   2.016423 S    
C168  H68   1.082999 S    
C14   C30   1.463990 S    
C164  H64   1.082912 S    
C159  C177  1.400505 A    
C26   C54   1.450053 S    
C129  H49   1.083497 S    
C81   H33   1.083498 S    
C130  H50   1.083518 S    
C9    N5    1.432864 S    
C96   C100  1.407710 A    
O34   Zn8   2.004786 S    
C18   C34   1.463981 S    
C115  C119  1.420220 A    
C39   H19   1.087938 S    
C12   N8    1.432879 S    
O13   Zn4   2.001241 S    
C64   C116  1.418792 A    
C90   C98   1.407764 A    
C169  C175  1.404307 A    
C48   C176  1.465953 S    
C89   C101  1.401462 A    
O22   Zn10  2.013530 S    
C171  C175  1.404125 A    
C162  C170  1.391962 A    
C15   C31   1.463662 S    
O10   C2    1.276971 A    
C64   C76   1.414816 A    
C71   C99   1.419233 A    
C190  C198  1.404218 A    
C138  C152  1.401691 A    
C170  H70   1.083035 S    
O35   C51   1.266726 A    
C29   H9    1.086109 S    
O3    Zn1   2.001146 S    
C186  H78   1.082905 S    
C31   C39   1.334983 D    
C196  C200  1.404306 A    
O47   C59   1.281948 A    
C166  H66   1.083009 S    
C156  N8    1.368025 A    
C33   H13   1.086112 S    
O25   Zn5   2.003696 S    
C15   C23   1.342504 D    
C149  N5    1.368021 A    
C16   H4    1.086664 S    
C140  C150  1.401743 A    
C91   C97   1.407753 A    
C189  H81   1.082998 S    
C76   C84   1.387883 A    
C62   C114  1.418947 A    
C182  C190  1.392204 A    
C87   C95   1.395869 A    
C157  H57   1.082896 S    
C131  C139  1.395899 A    
C132  H52   1.083512 S    
C73   C81   1.387756 A    
C63   C115  1.419100 A    
C102  O50   1.349900 S    
C46   C174  1.466185 S    
C187  H79   1.082893 S    
O40   Zn10  2.004786 S    
C156  O64   1.349921 S    
C127  H47   1.076935 S    
C57   C198  1.466414 S    
C86   H38   1.083517 S    
O22   C48   1.281801 A    
C29   C37   1.334989 D    
O30   C54   1.284817 A    
C153  O61   1.349957 S    
O5    C5    1.276885 A    
C155  O63   1.349879 S    
Zn6   O42   2.026591 S    
C139  C149  1.401835 A    
C187  C195  1.392429 A    
C122  C130  1.387892 A    
C158  C178  1.400687 A    
O12   Zn3   1.998471 S    
C22   O66   1.388432 S    
C80   C88   1.387878 A    
C185  C193  1.391613 A    
C30   H10   1.086083 S    
C83   C91   1.395958 A    
O5    Zn2   2.008487 S    
C169  H69   1.083003 S    
C84   C92   1.395900 A    
C194  C200  1.404119 A    
O21   C47   1.281953 A    
C152  N6    1.367955 A    
C34   H14   1.086083 S    
C171  H71   1.082998 S    
O26   Zn6   2.003007 S    
C62   C74   1.414932 A    
O16   Zn4   1.998471 S    
C183  H75   1.082918 S    
O1    C1    1.276886 A    
C190  H82   1.082992 S    
O25   C49   1.284669 A    
O14   C6    1.276970 A    
O46   C60   1.282371 A    
C9    C181  1.400475 A    
C158  H58   1.082916 S    
O7    C7    1.285709 A    
C144  C148  1.407741 A    
C168  C174  1.404360 A    
O8    C8    1.276963 A    
C101  O49   1.349958 S    
C107  N3    1.368024 A    
C18   C26   1.342731 D    
Zn11  O47   2.023702 S    
C91   C103  1.401915 A    
O43   C57   1.282004 A    
O37   C53   1.266717 A    
C110  C118  1.420195 A    
C110  C124  1.414866 A    
C45   C173  1.466031 S    
C21   C49   1.449564 S    
C135  C143  1.395851 A    
C42   H22   1.087956 S    
C123  H43   1.076844 S    
C11   N7    1.432774 S    
O31   C55   1.284674 A    
C158  C166  1.391976 A    
C104  O52   1.349935 S    
O33   C49   1.266723 A    
O68   H92   0.991200 S    
O11   C3    1.276875 A    
C1    C38   1.437804 S    
C108  N4    1.368112 A    
Zn7   O43   2.023702 S    
Zn8   O44   2.013530 S    
C94   C106  1.401847 A    
C24   C52   1.450065 S    
C13   H1    1.086689 S    
O6    C6    1.285563 A    
C127  C135  1.387756 A    
C165  C173  1.404276 A    
C112  C122  1.414894 A    
O44   C58   1.281869 A    
C10   N6    1.432714 S    
C155  N7    1.368017 A    
O10   Zn3   2.011642 S    
C19   H7    1.086685 S    
C20   H8    1.086663 S    
C149  O57   1.349894 S    
C128  H48   1.076877 S    
C79   C87   1.387894 A    
C167  C173  1.404065 A    
C24   O68   1.388432 S    
O36   Zn6   2.004786 S    
O4    Zn1   2.011526 S    
C88   C96   1.395903 A    
C75   H27   1.076845 S    
C89   C97   1.407733 A    
O7    Zn2   2.001147 S    
C109  C123  1.414932 A    
O23   Zn11  2.016393 S    
C36   H16   1.086080 S    
O9    C1    1.285716 A    
C64   C70   1.420152 A    
O21   Zn9   2.023710 S    
C106  O54   1.349915 S    
C188  C196  1.391913 A    
C102  N2    1.368024 A    
C161  H61   1.082913 S    
C66   C78   1.414932 A    
C114  C128  1.414857 A    
C40   H20   1.087955 S    
C4    C37   1.437693 S    
C165  H65   1.083006 S    
C196  H88   1.083002 S    
C22   C50   1.450076 S    
C134  C142  1.395868 A    
C126  H46   1.076872 S    
C93   C99   1.407744 A    
C184  C192  1.391909 A    
C28   C56   1.450072 S    
C41   H21   1.087939 S    
C112  C118  1.420159 A    
O42   C58   1.282221 A    
C105  N3    1.368050 A    
C37   H17   1.087935 S    
C18   H6    1.086667 S    
C142  C148  1.407755 A    
C121  H41   1.076899 S    
C126  C134  1.387890 A    
O19   C45   1.281686 A    
C66   C110  1.418963 A    
C43   H23   1.087937 S    
C78   H30   1.076857 S    
C68   C112  1.418803 A    
C193  C199  1.404062 A    
C65   C77   1.414859 A    
C116  C120  1.420155 A    
C19   C35   1.463646 S    
C74   C82   1.388000 A    
C9    C183  1.400687 A    
O71   H95   0.991260 S    
O40   C56   1.266938 A    
O48   C60   1.281705 A    
O14   Zn4   2.011642 S    
C122  H42   1.076876 S    
Zn12  O48   2.013530 S    
C143  C153  1.401438 A    
O41   C57   1.282072 A    
C154  O62   1.349915 S    
C25   C53   1.449570 S    
C153  N7    1.367991 A    
C130  C138  1.395854 A    
C154  N8    1.368052 A    
C139  C145  1.407766 A    
C162  C180  1.400787 A    
C133  C141  1.395945 A    
C73   H25   1.076926 S    
O28   Zn8   2.003007 S    
C157  C165  1.392453 A    
C32   C40   1.335015 D    
C120  C148  1.419239 A    
C109  C117  1.420188 A    
C128  C136  1.387986 A    
C82   H34   1.083496 S    
C111  C117  1.420153 A    
O28   C52   1.284814 A    
C117  C145  1.419237 A    
C188  H80   1.082914 S    
O2    C2    1.285570 A    
C58   C197  1.466185 S    
C125  H45   1.076835 S    
C63   C75   1.414921 A    
O20   C46   1.282219 A    
C76   H28   1.076900 S    
C35   H15   1.086108 S    
C11   C187  1.400567 A    
C113  C119  1.420086 A    
C77   H29   1.076877 S    
C192  H84   1.082995 S    
C163  C171  1.392206 A    
C164  C172  1.392142 A    
C150  N6    1.367983 A    
C81   C89   1.395843 A    
C115  C125  1.414945 A    
O24   C48   1.282163 A    
C141  C147  1.407768 A    
C59   C200  1.466198 S    
C10   C184  1.400345 A    
C131  H51   1.083496 S    
C185  H77   1.082934 S    
C30   C38   1.335016 D    
C118  C146  1.419245 A    
C67   C111  1.418786 A    
C78   C86   1.388004 A    
N4    C180  1.433020 S    
O26   C50   1.284818 A    
C159  C167  1.391591 A    
O24   Zn12  2.026570 S    
C181  H73   1.082904 S    
C160  H60   1.082905 S    
O15   C7    1.276869 A    
O45   C59   1.282011 A    
O11   Zn3   2.008600 S    
O16   C8    1.285560 A    
C183  C191  1.391976 A    
C170  C176  1.403957 A    
C65   C109  1.418946 A    
O20   Zn8   2.026570 S    
C44   H24   1.087958 S    
C8    C41   1.437680 S    
C95   C99   1.407758 A    
C172  C176  1.404263 A    
C103  O51   1.349880 S    
C14   H2    1.086665 S    
O32   Zn12  2.003007 S    
C125  C133  1.388110 A    
C192  C198  1.404399 A    
C13   C21   1.342504 D    
C88   H40   1.083516 S    
O31   Zn11  2.003696 S    
C96   C108  1.401609 A    
C107  O55   1.349919 S    
C136  H56   1.083497 S    
O29   Zn9   2.003696 S    
C47   C175  1.466204 S    
C2    C39   1.437687 S    
C182  H74   1.082910 S    
C150  O58   1.349920 S    
O17   C45   1.282194 A    
C83   H35   1.083495 S    
O37   Zn11  2.004377 S    
C87   H39   1.083496 S    
C151  N5    1.368038 A    
C85   H37   1.083493 S    
C162  H62   1.082924 S    
O29   C53   1.284678 A    
O67   H91   0.991253 S    
C68   C80   1.414817 A    
C27   O71   1.388369 S    
C121  C129  1.387877 A    
C67   C79   1.414893 A    
C80   H32   1.076913 S    
C108  O56   1.349951 S    
C186  C194  1.392212 A    
C31   H11   1.086112 S    
C6    C43   1.437680 S    
O27   Zn7   2.003696 S    
C166  C174  1.404062 A    
O39   Zn9   2.004377 S    
Zn5   O41   2.016423 S    
C61   C69   1.420088 A    
C11   C185  1.400522 A    
C144  C154  1.401744 A    
C13   C29   1.463653 S    
C132  C140  1.395914 A    
O38   Zn12  2.004786 S    
O27   C51   1.284680 A    
C101  N1    1.368025 A    
C16   C32   1.463990 S    
C191  C197  1.404064 A    
C17   C33   1.463645 S    
C136  C144  1.395932 A    
C28   O72   1.388436 S    
C106  N4    1.368093 A    
C191  H83   1.083007 S    
C23   O67   1.388373 S    
C20   C36   1.463986 S    
C5    C42   1.437800 S    
C124  C132  1.387989 A    
C160  C178  1.400483 A    
C77   C85   1.387985 A    
C10   C182  1.400625 A    
O65   H89   0.991255 S    
C90   C102  1.401836 A    
N2    C178  1.432870 S    
C70   C98   1.419238 A    
O18   C46   1.281868 A    
C36   C44   1.335007 D    
C69   C97   1.419195 A    
C194  H86   1.082998 S    
O9    Zn3   2.001241 S    
C104  N2    1.368043 A    
O38   C54   1.266939 A    
C26   O70   1.388434 S    
C23   C51   1.449591 S    
C134  H54   1.083502 S    
C66   C72   1.420187 A    
C184  H76   1.082916 S    
C17   C25   1.342502 D    
C138  C146  1.407783 A    
C94   C100  1.407744 A    
O72   H96   0.991195 S    
C167  H67   1.083015 S    
