data_mof_unit_47183.cif
_audit_creation_date              2013-03-05T16:42:52-0500
_audit_creation_method            fapswitch 2.2
_symmetry_space_group_name_H-M    P1
_symmetry_Int_Tables_number       1
_space_group_crystal_system       triclinic
_cell_length_a                    9.88444
_cell_length_b                    10.701498
_cell_length_c                    13.62563
_cell_angle_alpha                 90.009336
_cell_angle_beta                  83.247832
_cell_angle_gamma                 89.749455
_cell_volume                      1431.28534598

loop_
_atom_site_label
_atom_site_type_symbol
_atom_site_description
_atom_site_fract_x
_atom_site_fract_y
_atom_site_fract_z
_atom_type_partial_charge
O1    O     O_R   0.385310 0.683210 0.499990 -0.602168
O2    O     O_R   0.614650 0.683240 0.500000 -0.561038
C1    C     C_R   0.500413 0.739210 0.496391 0.990751
O3    O     O_R   0.368820 0.499950 0.640340 -0.610735
O4    O     O_R   0.598170 0.499990 0.640350 -0.606751
C2    C     C_R   0.475791 0.500480 0.685591 0.951967
Zn1   Zn    Zn3+2 0.346870 0.499980 0.499990 1.036377
Zn2   Zn    Zn3+2 0.653130 0.500020 0.500010 1.090302
O5    O     O_R   0.385350 0.316760 0.500000 -0.624041
O6    O     O_R   0.614690 0.316790 0.500010 -0.594021
O7    O     O_R   0.401830 0.500010 0.359650 -0.621198
O8    O     O_R   0.631180 0.500050 0.359660 -0.594384
C3    C     C_R   0.500891 0.260747 0.497149 0.973476
C4    C     C_R   0.524099 0.499956 0.314391 0.920973
C5    C     C_1   0.541427 0.504975 0.210861 -0.014273
C6    C     C_2   0.549121 0.518718 0.019972 -0.237130
C7    C     C_2   0.432403 0.532503 0.980237 0.317772
C8    C     C_1   0.441846 0.520552 0.876215 0.037693
C9    C     C_1   0.549981 0.511142 0.123368 0.151441
C10   C     C_1   0.456839 0.510047 0.788895 -0.038074
C11   C     C_R   0.395875 0.938269 0.536176 -0.063457
C12   C     C_R   0.501751 0.870261 0.487225 -0.199304
C13   C     C_R   0.610917 0.933757 0.431896 0.224508
C14   C     C_R   0.611804 0.065290 0.433163 0.209768
C15   C     C_R   0.503093 0.129652 0.488884 -0.186398
C16   C     C_R   0.396553 0.062740 0.537080 -0.050688
C17   C     C_3   0.268639 0.074794 0.607550 0.019739
C18   C     C_3   0.267698 0.929612 0.606584 0.413168
C19   C     C_R   0.918133 0.439999 0.571858 0.135986
N1    N     N_R   0.857130 0.500860 0.500650 -0.101743
C20   C     C_R   0.939979 0.554372 0.424757 0.027898
C21   C     C_R   0.083784 0.554903 0.424993 0.013797
N2    N     N_R   0.142770 0.500820 0.500650 -0.104509
C22   C     C_R   0.060344 0.437623 0.570722 0.127483
C23   C     C_3   0.052502 0.455771 0.679683 -0.444318
C24   C     C_3   0.898249 0.460841 0.681855 0.067256
H1    H     H_    0.099370 0.545107 0.699835 0.270361
H2    H     H_    0.843952 0.382248 0.722536 0.139366
N3    N     N_R   0.301022 0.553137 0.036635 0.242569
O9    O     O_R   0.190555 0.532362 0.995921 -0.297932
O10   O     O_R   0.290222 0.607009 0.122859 -0.351254
H3    H     H_    0.147100 0.600733 0.365661 0.184518
H4    H     H_    0.088523 0.371960 0.717218 0.225723
N4    N     N_R   0.843758 0.583779 0.714295 0.259203
O11   O     O_R   0.822478 0.671489 0.651675 -0.271128
O12   O     O_R   0.821961 0.607718 0.808418 -0.328499
H5    H     H_    0.645163 0.503482 0.973673 0.195505
N5    N     N_R   0.714499 0.866327 0.370404 0.233076
O13   O     O_R   0.680757 0.788184 0.304377 -0.386810
O14   O     O_R   0.842200 0.879034 0.382681 -0.254679
N6    N     N_R   0.716789 0.132151 0.373571 0.244336
O15   O     O_R   0.685842 0.202474 0.301525 -0.370033
O16   O     O_R   0.839390 0.135870 0.399192 -0.288507
N7    N     N_R   0.291222 0.128857 0.703152 0.237341
O17   O     O_R   0.188002 0.145151 0.770468 -0.309639
O18   O     O_R   0.411170 0.166859 0.720383 -0.366670
H6    H     H_    0.184708 0.121588 0.573758 0.150007
N8    N     N_R   0.286412 0.871181 0.701818 0.235786
O19   O     O_R   0.186529 0.871130 0.773121 -0.235087
O20   O     O_R   0.401148 0.817877 0.715979 -0.373732
N9    N     N_R   0.154632 0.875580 0.560153 0.203819
O21   O     O_R   0.123662 0.918862 0.476282 -0.325811
O22   O     O_R   0.090574 0.778014 0.598416 -0.306689
H7    H     H_    0.895295 0.599280 0.365092 0.188736

loop_
_geom_bond_atom_site_label_1
_geom_bond_atom_site_label_2
_geom_bond_distance
_ccdc_geom_bond_type
O4    Zn2   1.925470 S    
C5    C9    1.187061 T    
C11   C16   1.332131 A    
C19   N1    1.365112 A    
C18   N8    1.471314 S    
C2    C10   1.401659 S    
N6    O16   1.300744 A    
C23   C24   1.522240 S    
C4    C5    1.401948 S    
Zn2   O8    1.949807 S    
Zn2   N1    2.017530 S    
C18   N9    1.468122 S    
C14   N6    1.434102 S    
N5    O14   1.300343 A    
O2    C1    1.281933 A    
C15   C16   1.377355 A    
C17   N7    1.466527 S    
N3    O10   1.301466 A    
C11   C12   1.377976 A    
C14   C15   1.416686 A    
Zn1   O7    1.925470 S    
Zn1   N2    2.016357 S    
C19   C24   1.504971 S    
C3    C15   1.407275 S    
C16   C17   1.500092 S    
N9    O21   1.302086 A    
O3    Zn1   1.949808 S    
O4    C2    1.291463 A    
C20   H7    1.081502 S    
C6    H5    1.087909 S    
C24   H2    1.112131 S    
N5    O13   1.301034 A    
C23   H1    1.112517 S    
C11   C18   1.499784 S    
O8    C4    1.286191 A    
N2    C22   1.361942 A    
C8    C10   1.186818 T    
C6    C9    1.412200 S    
C7    N3    1.445155 S    
N1    C20   1.368602 A    
O7    C4    1.290601 A    
N7    O18   1.302239 A    
C24   N4    1.467643 S    
O3    C2    1.285117 A    
C13   C14   1.407789 A    
N8    O20   1.301776 A    
N6    O15   1.300934 A    
C17   C18   1.553797 S    
C23   H4    1.110389 S    
N4    O11   1.301542 A    
C7    C8    1.415175 S    
C22   C23   1.490182 S    
C17   H6    1.112335 S    
N3    O9    1.301525 A    
Zn1   O5    1.995649 S    
C21   H3    1.081491 S    
N7    O17   1.300375 A    
C1    C12   1.407994 S    
O5    C3    1.284018 A    
C13   N5    1.436186 S    
O1    C1    1.284066 A    
N8    O19   1.301185 A    
O1    Zn1   1.998940 S    
C19   C22   1.404061 A    
Zn2   O6    1.998939 S    
O2    Zn2   1.995649 S    
C12   C13   1.417629 A    
C20   C21   1.421852 A    
C21   N2    1.369743 A    
N4    O12   1.300484 A    
C6    C7    1.338405 D    
N9    O22   1.300467 A    
O6    C3    1.281669 A    
