data_mof_unit_21747.cif
_audit_creation_date              2012-12-11T14:38:31-0500
_audit_creation_method            fapswitch 2.2
_symmetry_space_group_name_H-M    P1
_symmetry_Int_Tables_number       1
_space_group_crystal_system       triclinic
_cell_length_a                    19.61051
_cell_length_b                    11.09766
_cell_length_c                    19.682734
_cell_angle_alpha                 90.079285
_cell_angle_beta                  96.614678
_cell_angle_gamma                 90.313211
_cell_volume                      4254.98180422

loop_
_atom_site_label
_atom_site_type_symbol
_atom_type_description
_atom_site_fract_x
_atom_site_fract_y
_atom_site_fract_z
_atom_type_partial_charge
C1    C     C_R   0.725018 0.952196 0.359983 0.548094
C2    C     C_R   0.275969 0.955544 0.639041 0.542685
C3    C     C_R   0.223991 0.455586 0.361033 0.551739
C4    C     C_R   0.775985 0.455273 0.639207 0.544516
C5    C     C_3   0.670445 0.406885 0.464538 -0.239449
C6    C     C_3   0.318951 0.449923 0.542532 -0.232681
C7    C     C_3   0.181174 0.948751 0.457551 -0.232573
C8    C     C_3   0.818352 0.949026 0.541896 -0.234078
C9    C     C_3   0.816722 0.474602 0.526097 -0.222545
C10   C     C_3   0.175911 0.483772 0.469678 -0.210938
C11   C     C_3   0.324161 0.984869 0.530630 -0.209756
C12   C     C_3   0.675573 0.974898 0.467710 -0.209465
C13   C     C_3   0.765317 0.282825 0.561084 -0.253739
C14   C     C_3   0.236145 0.293544 0.446072 -0.262075
C15   C     C_3   0.263588 0.793494 0.553615 -0.262591
C16   C     C_3   0.737167 0.786280 0.445530 -0.263158
C17   C     C_3   0.760578 0.419241 0.568026 0.064605
C18   C     C_3   0.236644 0.428682 0.433752 0.062185
C19   C     C_3   0.263317 0.928598 0.566300 0.064676
C20   C     C_3   0.737634 0.921938 0.432511 0.064303
C21   C     C_3   0.737915 0.362305 0.439322 0.052713
C22   C     C_3   0.252817 0.393117 0.564982 0.055574
C23   C     C_3   0.247310 0.893168 0.435018 0.054422
C24   C     C_3   0.752884 0.889516 0.564181 0.055983
C25   C     C_3   0.792140 0.464946 0.449300 -0.232739
C26   C     C_3   0.192286 0.479127 0.547883 -0.256386
C27   C     C_3   0.307887 0.980241 0.452398 -0.256882
C28   C     C_3   0.690727 0.971263 0.545848 -0.257133
C29   C     C_3   0.766046 0.255461 0.484824 -0.248423
C30   C     C_3   0.234856 0.275631 0.522934 -0.221102
C31   C     C_3   0.265173 0.775902 0.476774 -0.220874
C32   C     C_3   0.737086 0.769972 0.523166 -0.219309
C33   C     C_3   0.481454 0.310986 0.963607 -0.101261
C34   C     C_3   0.507997 0.311922 0.038597 -0.098320
C35   C     C_3   0.972159 0.812754 0.965196 -0.103837
C36   C     C_3   0.002959 0.811813 0.039289 -0.098401
C37   C     C_3   0.428889 0.100401 0.970721 -0.238135
C38   C     C_3   0.569941 0.111541 0.029362 -0.239292
C39   C     C_3   0.912658 0.609303 0.976974 -0.257481
C40   C     C_3   0.057454 0.605739 0.026464 -0.247660
C41   C     C_3   0.553108 0.122835 0.951373 -0.266655
C42   C     C_3   0.445196 0.111856 0.048996 -0.269648
C43   C     C_3   0.034905 0.616945 0.949326 -0.243968
C44   C     C_3   0.935762 0.618326 0.054694 -0.260934
C45   C     C_R   0.536081 0.180175 0.338610 0.529998
C46   C     C_R   0.463755 0.180399 0.661279 0.533395
C47   C     C_R   0.036174 0.680208 0.338664 0.535070
C48   C     C_R   0.963714 0.680401 0.661264 0.540086
C49   C     C_3   0.480853 0.178004 0.935032 0.010438
C50   C     C_3   0.514791 0.178143 0.065943 0.013620
C51   C     C_3   0.963779 0.679969 0.937024 0.008670
C52   C     C_3   0.007859 0.678032 0.066878 0.012510
C53   C     C_1   0.763832 0.430307 0.905583 -0.006259
C54   C     C_1   0.218993 0.474791 0.085179 -0.012934
C55   C     C_1   0.263560 0.929830 0.905384 -0.003316
C56   C     C_1   0.719120 0.974192 0.085122 -0.015930
C57   C     C_1   0.751371 0.410983 0.036138 -0.041930
C58   C     C_1   0.239522 0.437967 0.957347 -0.026940
C59   C     C_1   0.250411 0.909816 0.035718 -0.037288
C60   C     C_1   0.738333 0.938690 0.956777 -0.030890
C61   C     C_1   0.756841 0.420158 0.965388 -0.047399
C62   C     C_1   0.228668 0.459320 0.026251 -0.042319
C63   C     C_1   0.256205 0.919321 0.965068 -0.044072
C64   C     C_1   0.728172 0.959232 0.025967 -0.045661
C65   C     C_1   0.745625 0.395625 0.095871 0.010245
C66   C     C_1   0.249740 0.410743 0.899912 0.020516
C67   C     C_1   0.244927 0.894569 0.095492 0.016455
C68   C     C_1   0.748850 0.911617 0.899380 0.020369
C69   C     C_R   0.727105 0.320240 0.367898 0.545960
C70   C     C_R   0.261315 0.360224 0.637849 0.536973
C71   C     C_R   0.238774 0.860172 0.362110 0.538096
C72   C     C_R   0.761412 0.859360 0.637528 0.537570
C73   C     C_R   0.705756 0.995958 0.154547 0.549178
C74   C     C_R   0.278260 0.955072 0.837123 0.542331
C75   C     C_R   0.205585 0.496396 0.154572 0.550309
C76   C     C_R   0.778294 0.455141 0.837175 0.537341
C77   C     C_R   0.535348 0.180077 0.139711 0.531946
C78   C     C_R   0.461595 0.180537 0.861266 0.540320
C79   C     C_R   0.033833 0.679926 0.140062 0.529203
C80   C     C_R   0.939931 0.682753 0.863202 0.547745
C81   C     C_R   0.736440 0.359081 0.164103 0.548636
C82   C     C_R   0.262860 0.361773 0.834937 0.547606
C83   C     C_R   0.236266 0.858689 0.163934 0.542940
C84   C     C_R   0.762642 0.862177 0.834706 0.544748
C85   C     C_1   0.484999 0.172895 0.594116 -0.030541
C86   C     C_1   0.514517 0.172513 0.405635 -0.031252
C87   C     C_1   0.984968 0.672898 0.594122 -0.029273
C88   C     C_1   0.014763 0.672664 0.405739 -0.027976
C89   C     C_1   0.504083 0.169375 0.464769 -0.070048
C90   C     C_1   0.495269 0.169583 0.534936 -0.068949
C91   C     C_1   0.004318 0.669562 0.464863 -0.067867
C92   C     C_1   0.995347 0.669666 0.534981 -0.068388
C93   C     C_3   0.686086 0.453787 0.538177 -0.235617
C94   C     C_3   0.308920 0.473172 0.465418 -0.237079
C95   C     C_3   0.191151 0.972091 0.534691 -0.237159
C96   C     C_3   0.810159 0.965478 0.464295 -0.238538
Cr1   Cr    Cr6+3 0.765780 0.160710 0.267420 1.018173
Cr2   Cr    Cr6+3 0.234220 0.160710 0.732580 1.019988
Cr3   Cr    Cr6+3 0.265780 0.660710 0.267420 1.021528
Cr4   Cr    Cr6+3 0.734220 0.660710 0.732580 1.014916
Cr5   Cr    Cr6+3 0.612200 0.009560 0.248850 1.022147
Cr6   Cr    Cr6+3 0.387800 0.009560 0.751150 1.025090
Cr7   Cr    Cr6+3 0.112200 0.509560 0.248850 1.025416
Cr8   Cr    Cr6+3 0.887800 0.509560 0.751150 1.025406
Cr9   Cr    Cr6+3 0.616030 0.323720 0.248510 1.055489
Cr10  Cr    Cr6+3 0.383970 0.323720 0.751490 1.053186
Cr11  Cr    Cr6+3 0.116030 0.823720 0.248510 1.054587
Cr12  Cr    Cr6+3 0.883970 0.823720 0.751490 1.050771
H1    H     H_    0.679350 0.551564 0.538768 0.126284
H2    H     H_    0.317594 0.567759 0.454755 0.131433
H3    H     H_    0.182681 0.066562 0.545537 0.132262
H4    H     H_    0.822570 0.057629 0.450454 0.131344
H5    H     H_    0.820273 0.240467 0.475864 0.131275
H6    H     H_    0.181365 0.250265 0.530346 0.133043
H7    H     H_    0.318728 0.751726 0.469488 0.133177
H8    H     H_    0.684838 0.739365 0.531833 0.133479
H9    H     H_    0.864557 0.420563 0.536336 0.136637
H10   H     H_    0.129089 0.427562 0.455749 0.139787
H11   H     H_    0.370934 0.929463 0.544465 0.139925
H12   H     H_    0.629613 0.916595 0.453623 0.140815
H13   H     H_    0.837265 0.447781 0.421284 0.146376
H14   H     H_    0.146019 0.447785 0.570859 0.131210
H15   H     H_    0.354155 0.949842 0.429372 0.131517
H16   H     H_    0.644709 0.936529 0.568011 0.131998
H17   H     H_    0.516533 0.365772 0.934719 0.164725
H18   H     H_    0.470845 0.359430 0.068308 0.164288
H19   H     H_    0.008169 0.862409 0.935001 0.176565
H20   H     H_    0.968889 0.862561 0.070967 0.164651
H21   H     H_    0.375041 0.127940 0.954604 0.106268
H22   H     H_    0.621943 0.149118 0.045348 0.093201
H23   H     H_    0.859568 0.644102 0.965260 0.098870
H24   H     H_    0.111171 0.638344 0.038341 0.092941
H25   H     H_    0.403755 0.162959 0.070181 0.115332
H26   H     H_    0.592087 0.181131 0.930510 0.113311
H27   H     H_    0.898145 0.672769 0.079657 0.118424
H28   H     H_    0.073860 0.669805 0.924910 0.123701
H29   H     H_    0.555411 0.032281 0.927368 0.146455
H30   H     H_    0.447010 0.020498 0.072375 0.149301
H31   H     H_    0.032760 0.525193 0.926282 0.158542
H32   H     H_    0.936721 0.526662 0.077630 0.148002
H33   H     H_    0.570960 0.014479 0.043610 0.155695
H34   H     H_    0.432799 0.004119 0.955765 0.162432
H35   H     H_    0.056942 0.509037 0.041411 0.155996
H36   H     H_    0.911333 0.512944 0.961118 0.157638
H37   H     H_    0.648009 0.415208 0.570068 0.123317
H38   H     H_    0.349692 0.425323 0.441156 0.119237
H39   H     H_    0.150252 0.923677 0.558821 0.117921
H40   H     H_    0.850373 0.911862 0.442544 0.118245
H41   H     H_    0.632694 0.331430 0.462898 0.124801
H42   H     H_    0.363012 0.387601 0.554498 0.145049
H43   H     H_    0.137082 0.885634 0.445442 0.145049
H44   H     H_    0.863826 0.891097 0.556709 0.146293
H45   H     H_    0.647061 0.480569 0.431503 0.138731
H46   H     H_    0.331657 0.535665 0.570532 0.118252
H47   H     H_    0.168532 0.034309 0.429729 0.119384
H48   H     H_    0.828128 0.037441 0.567740 0.117699
H49   H     H_    0.341569 0.074802 0.549091 0.106871
H50   H     H_    0.656334 0.063436 0.448469 0.104017
H51   H     H_    0.836400 0.564214 0.541547 0.101318
H52   H     H_    0.158450 0.573421 0.451539 0.106120
H53   H     H_    0.294549 0.069161 0.431043 0.111450
H54   H     H_    0.701129 0.061040 0.567399 0.109340
H55   H     H_    0.768573 0.549821 0.429678 0.121721
H56   H     H_    0.205712 0.568159 0.569551 0.110434
H57   H     H_    0.812424 0.245536 0.590297 0.135165
H58   H     H_    0.190881 0.248342 0.417316 0.130128
H59   H     H_    0.308637 0.748764 0.582413 0.129410
H60   H     H_    0.691161 0.741547 0.417757 0.130927
H61   H     H_    0.720296 0.242713 0.581715 0.110612
H62   H     H_    0.283145 0.255076 0.428822 0.110088
H63   H     H_    0.216365 0.754352 0.570458 0.108747
H64   H     H_    0.783393 0.744506 0.427890 0.110580
H65   H     H_    0.736880 0.175069 0.471648 0.116269
H66   H     H_    0.269433 0.204053 0.541643 0.123681
H67   H     H_    0.230744 0.703612 0.457676 0.123766
H68   H     H_    0.773677 0.702771 0.542966 0.121191
O1    O     O_R   0.783100 0.287550 0.345460 -0.527433
O2    O     O_R   0.216900 0.287550 0.654540 -0.532088
O3    O     O_R   0.283100 0.787550 0.345460 -0.531362
O4    O     O_R   0.716900 0.787550 0.654540 -0.530978
O5    O     O_R   0.554710 0.081900 0.170950 -0.518827
O6    O     O_R   0.445290 0.081900 0.829050 -0.505867
O7    O     O_R   0.054710 0.581900 0.170950 -0.519247
O8    O     O_R   0.945290 0.581900 0.829050 -0.504696
O9    O     O_R   0.545650 0.284910 0.163740 -0.490130
O10   O     O_R   0.454350 0.284910 0.836260 -0.500468
O11   O     O_R   0.045650 0.784910 0.163740 -0.490920
O12   O     O_R   0.954350 0.784910 0.836260 -0.500545
O13   O     O_R   0.677950 0.374280 0.185410 -0.457726
O14   O     O_R   0.322050 0.374280 0.814590 -0.458603
O15   O     O_R   0.177950 0.874280 0.185410 -0.460441
O16   O     O_R   0.822050 0.874280 0.814590 -0.466257
O17   O     O_3   0.664670 0.164660 0.254930 -0.302422
O18   O     O_3   0.335330 0.164660 0.745070 -0.270889
O19   O     O_3   0.164670 0.664660 0.254930 -0.289089
O20   O     O_3   0.835330 0.664660 0.745070 -0.283108
O21   O     O_R   0.760020 0.037400 0.337700 -0.519428
O22   O     O_R   0.239980 0.037400 0.662300 -0.514630
O23   O     O_R   0.260020 0.537400 0.337700 -0.510159
O24   O     O_R   0.739980 0.537400 0.662300 -0.513161
O25   O     O_R   0.666600 0.921990 0.332020 -0.518400
O26   O     O_R   0.333400 0.921990 0.667980 -0.523360
O27   O     O_R   0.166600 0.421990 0.332020 -0.519544
O28   O     O_R   0.833400 0.421990 0.667980 -0.522824
O29   O     O_R   0.557260 0.082670 0.312540 -0.500201
O30   O     O_R   0.442740 0.082670 0.687460 -0.498905
O31   O     O_R   0.057260 0.582670 0.312540 -0.499700
O32   O     O_R   0.942740 0.582670 0.687460 -0.494389
O33   O     O_R   0.548410 0.285740 0.316480 -0.514013
O34   O     O_R   0.451590 0.285740 0.683520 -0.513358
O35   O     O_R   0.048410 0.785740 0.316480 -0.511030
O36   O     O_R   0.951590 0.785740 0.683520 -0.511151
O37   O     O_R   0.680500 0.375040 0.327000 -0.501195
O38   O     O_R   0.319500 0.375040 0.673000 -0.508003
O39   O     O_R   0.180500 0.875040 0.327000 -0.505006
O40   O     O_R   0.819500 0.875040 0.673000 -0.507703
O41   O     O_R   0.780350 0.286720 0.192720 -0.514860
O42   O     O_R   0.219650 0.286720 0.807280 -0.514242
O43   O     O_R   0.280350 0.786720 0.192720 -0.518568
O44   O     O_R   0.719650 0.786720 0.807280 -0.515296
O45   O     O_R   0.757470 0.036630 0.196110 -0.486575
O46   O     O_R   0.242530 0.036630 0.803890 -0.494591
O47   O     O_R   0.257470 0.536630 0.196110 -0.486255
O48   O     O_R   0.742530 0.536630 0.803890 -0.496617
O49   O     O_R   0.663840 0.921160 0.179280 -0.490418
O50   O     O_R   0.336160 0.921160 0.820720 -0.502279
O51   O     O_R   0.163840 0.421160 0.179280 -0.491375
O52   O     O_R   0.836160 0.421160 0.820720 -0.504781
C97   C     C_2   0.412409 0.372903 0.954557 0.252748
H69   H     H_    0.368653 0.331788 0.974436 0.087066
O53   O     O_2   0.406587 0.472316 0.928067 -0.471008
C98   C     C_2   0.574371 0.384526 0.047432 0.259468
H70   H     H_    0.617998 0.354271 0.023266 0.088367
O54   O     O_2   0.577909 0.479812 0.078788 -0.462519
C99   C     C_2   0.906415 0.883494 0.958847 0.232472
H71   H     H_    0.863755 0.851382 0.984170 0.092075
O55   O     O_2   0.902491 0.980002 0.928957 -0.470143
C100  C     C_2   0.071355 0.878866 0.044906 0.256451
H72   H     H_    0.113446 0.843585 0.019980 0.087657
O56   O     O_2   0.078431 0.975182 0.075042 -0.463578

loop_
_geom_bond_atom_site_label_1
_geom_bond_atom_site_label_2
_ccdc_geom_bond_type
C94   H38   S    
C39   C51   S    
C58   C62   S    
C47   O35   A    
C76   O52   A    
C77   O9    A    
C14   C18   S    
C1    O21   A    
C35   C36   S    
C8    C96   S    
C2    O26   A    
C14   H62   S    
C11   H11   S    
Cr11  O19   S    
C9    C25   S    
Cr10  O18   S    
C31   H67   S    
C93   H1    S    
C76   O48   A    
C67   C83   S    
C32   H68   S    
C11   C19   S    
C79   O11   A    
C48   O32   A    
C12   C28   S    
C42   H25   S    
Cr7   O7    S    
Cr8   O28   S    
C13   C29   S    
C8    H44   S    
Cr7   O31   S    
C73   O45   A    
C16   H60   S    
C7    C23   S    
C4    O28   A    
Cr11  O35   S    
Cr4   O48   S    
Cr7   O51   S    
C6    C22   S    
Cr3   O19   S    
Cr6   O50   S    
C86   C89   T    
C3    O27   A    
C49   C78   S    
Cr2   O18   S    
C3    C18   S    
Cr5   O49   S    
C95   H3    S    
Cr1   O17   S    
C37   C42   S    
C51   C80   S    
C21   C25   S    
C84   O44   A    
C69   O1    A    
C12   H12   S    
C5    H41   S    
Cr1   O1    S    
C58   C66   T    
C40   C43   S    
C48   O36   A    
Cr1   O45   S    
C6    C94   S    
C55   C63   T    
C77   O5    A    
C99   H71   S    
C56   C64   T    
C93   H37   S    
C78   O10   A    
Cr8   O32   S    
C23   C27   S    
C14   H58   S    
C52   C79   S    
C22   C30   S    
C75   O47   A    
C41   H29   S    
C36   C52   S    
C16   C20   S    
C46   C85   S    
C59   C67   T    
C44   C52   S    
C44   H27   S    
C13   H61   S    
C40   H24   S    
C1    O25   A    
C44   H32   S    
C25   H55   S    
Cr3   O23   S    
C87   C92   T    
C82   O14   A    
C99   O55   D    
C15   H59   S    
Cr12  O20   S    
C36   H20   S    
Cr7   O19   S    
C14   C30   S    
C33   C97   S    
Cr6   O18   S    
C31   H7    S    
C41   H26   S    
Cr12  O36   S    
Cr5   O17   S    
Cr8   O52   S    
C100  O56   D    
Cr4   O20   S    
C24   C72   S    
C36   C100  S    
Cr10  O38   S    
Cr3   O47   S    
C34   C50   S    
Cr9   O37   S    
C37   H34   S    
Cr2   O22   S    
C28   H54   S    
C68   C84   S    
Cr1   O21   S    
C95   H39   S    
Cr10  O10   S    
C38   C41   S    
C29   H65   S    
C91   C92   S    
C27   H15   S    
C70   O2    A    
C54   C62   T    
C46   O34   A    
C21   C29   S    
C15   C31   S    
C94   H2    S    
C10   C26   S    
C45   O33   A    
C96   H40   S    
C21   C69   S    
C78   O6    A    
Cr6   O6    S    
C15   C19   S    
C24   C32   S    
Cr3   O3    S    
C97   H69   S    
C10   H10   S    
C23   C71   S    
C66   C82   S    
C96   H4    S    
C16   H64   S    
C13   H57   S    
C82   O42   A    
C88   C91   T    
C11   C27   S    
C34   H18   S    
C81   O41   A    
C12   C20   S    
C22   C70   S    
C33   H17   S    
C33   C34   S    
Cr8   O20   S    
C48   C87   S    
C69   O37   A    
Cr12  O40   S    
C32   H8    S    
C3    O23   A    
C35   H19   S    
C7    H47   S    
Cr6   O30   S    
C81   O13   A    
C37   C49   S    
C6    H46   S    
Cr5   O29   S    
C42   C50   S    
C7    H43   S    
C4    C17   S    
Cr4   O24   S    
C9    C17   S    
C72   O40   A    
Cr3   O43   S    
C25   H13   S    
Cr2   O42   S    
C35   C51   S    
C15   H63   S    
C38   H33   S    
Cr1   O41   S    
C53   C76   S    
C17   C93   S    
Cr10  O14   S    
Cr9   O33   S    
C53   C61   T    
Cr4   O4    S    
C50   C77   S    
C10   H52   S    
C19   C95   S    
C11   H49   S    
Cr2   O2    S    
C30   H6    S    
C35   C99   S    
C83   O15   A    
C46   O30   A    
C29   H5    S    
C100  H72   S    
C1    C20   S    
C45   O29   A    
C56   C73   S    
Cr9   O17   S    
Cr8   O8    S    
C2    C19   S    
C2    O22   A    
Cr12  O12   S    
C34   C98   S    
C24   C28   S    
C57   C65   T    
Cr11  O39   S    
C98   O54   D    
C5    C93   S    
C85   C90   T    
C28   H16   S    
C57   C61   S    
C39   C44   S    
C38   C50   S    
C47   O31   A    
C43   H31   S    
C16   C32   S    
C41   C49   S    
C7    C95   S    
C74   O46   A    
C59   C63   S    
C6    H42   S    
C38   H22   S    
C13   C17   S    
C60   C64   S    
C60   C68   T    
C47   C88   S    
C72   O4    A    
C75   O51   A    
C45   C86   S    
Cr6   O26   S    
C55   C74   S    
C40   C52   S    
C27   H53   S    
C73   O49   A    
C43   C51   S    
C39   H23   S    
C30   H66   S    
C10   C18   S    
C71   O39   A    
Cr2   O46   S    
C26   H56   S    
C98   H70   S    
C8    C24   S    
Cr9   O13   S    
C79   O7    A    
C84   O16   A    
C70   O38   A    
C80   O8    A    
C20   C96   S    
C43   H28   S    
C8    H48   S    
Cr5   O5    S    
Cr7   O27   S    
Cr9   O9    S    
C71   O3    A    
C54   C75   S    
C5    H45   S    
C4    O24   A    
C5    C21   S    
C39   H36   S    
Cr4   O44   S    
C97   O53   D    
C83   O43   A    
C22   C26   S    
C40   H35   S    
Cr11  O15   S    
C18   C94   S    
C9    H51   S    
C65   C81   S    
Cr12  O16   S    
Cr11  O11   S    
Cr5   O25   S    
C42   H30   S    
C26   H14   S    
C12   H50   S    
C89   C90   S    
C33   C49   S    
C37   H21   S    
C9    H9    S    
C74   O50   A    
C23   C31   S    
C80   O12   A    
Cr10  O34   S    
