data_mof_unit_20075.cif
_audit_creation_date              2012-12-11T14:17:47-0500
_audit_creation_method            fapswitch 2.2
_symmetry_space_group_name_H-M    P1
_symmetry_Int_Tables_number       1
_space_group_crystal_system       triclinic
_cell_length_a                    11.05697
_cell_length_b                    10.930677
_cell_length_c                    18.873066
_cell_angle_alpha                 90.395297
_cell_angle_beta                  89.978982
_cell_angle_gamma                 119.258715
_cell_volume                      1989.93634926

loop_
_atom_site_label
_atom_site_type_symbol
_atom_type_description
_atom_site_fract_x
_atom_site_fract_y
_atom_site_fract_z
_atom_type_partial_charge
C1    C     C_R   0.520592 0.460080 0.147413 0.549704
C2    C     C_R   0.540146 0.059699 0.147516 0.561092
C3    C     C_R   0.939973 0.479130 0.147310 0.563550
C4    C     C_R   0.453039 0.521189 0.854634 0.562205
C5    C     C_R   0.067171 0.546420 0.854618 0.570475
C6    C     C_R   0.478621 0.932876 0.854574 0.563990
C7    C     C_R   0.492998 0.136120 0.481536 -0.156757
C8    C     C_R   0.921748 0.388987 0.477807 -0.168812
C9    C     C_R   0.622393 0.536619 0.472299 -0.161698
C10   C     C_R   0.983950 0.415884 0.543319 -0.118407
C11   C     C_R   0.470037 0.090021 0.551741 -0.156103
C12   C     C_R   0.607225 0.531933 0.545696 -0.177600
C13   C     C_R   0.613813 0.843346 0.542077 -0.069950
C14   C     C_R   0.156616 0.809450 0.545820 -0.108588
C15   C     C_R   0.229720 0.287719 0.550342 -0.096706
C16   C     C_R   0.999496 0.754737 0.427432 -0.077358
C17   C     C_R   0.757125 0.026909 0.437218 -0.084791
C18   C     C_R   0.255566 0.387071 0.413111 -0.063881
C19   C     C_R   0.733355 0.848787 0.515648 -0.111647
C20   C     C_R   0.162143 0.919098 0.507288 -0.127188
C21   C     C_R   0.117133 0.228138 0.504205 -0.162909
C22   C     C_R   0.090428 0.892139 0.445449 -0.120114
C23   C     C_R   0.802406 0.938675 0.461754 -0.145065
C24   C     C_R   0.128966 0.281564 0.436379 -0.110217
C25   C     C_R   0.520804 0.457125 0.354289 0.516475
C26   C     C_R   0.583144 0.130747 0.360922 0.530663
C27   C     C_R   0.881267 0.460016 0.362213 0.516845
C28   C     C_R   0.454516 0.513371 0.646650 0.544639
C29   C     C_R   0.121549 0.577560 0.638024 0.540862
C30   C     C_R   0.480065 0.934774 0.645197 0.540560
C31   C     C_R   0.493187 0.973674 0.929512 0.002045
C32   C     C_R   0.026080 0.520237 0.929281 0.000380
C33   C     C_R   0.479347 0.505901 0.929355 0.002750
C34   C     C_R   0.006839 0.494551 0.077440 -0.002964
C35   C     C_R   0.489009 0.991477 0.077738 -0.002136
C36   C     C_R   0.504355 0.511487 0.077598 -0.001002
C37   C     C_R   0.415797 0.030879 0.961360 -0.009781
C38   C     C_R   0.967257 0.385067 0.959587 -0.009077
C39   C     C_R   0.612724 0.579777 0.960431 -0.010132
C40   C     C_R   0.980091 0.375407 0.034247 -0.000247
C41   C     C_R   0.394834 0.016707 0.036012 0.000719
C42   C     C_R   0.621985 0.602444 0.035177 0.001051
C43   C     C_R   0.563736 0.935701 0.045005 -0.147863
C44   C     C_R   0.064322 0.625695 0.046181 -0.146507
C45   C     C_R   0.374786 0.439463 0.045573 -0.146522
C46   C     C_R   0.081256 0.638983 0.973760 -0.151625
C47   C     C_R   0.559296 0.919417 0.972522 -0.148812
C48   C     C_R   0.361833 0.443418 0.973110 -0.148742
C49   C     C_R   0.354432 0.096809 0.921786 0.000027
C50   C     C_R   0.901023 0.259596 0.918484 -0.002876
C51   C     C_R   0.736703 0.636359 0.919940 -0.002120
C52   C     C_R   0.964766 0.247292 0.061311 0.013530
C53   C     C_R   0.282249 0.030065 0.064461 0.013333
C54   C     C_R   0.748441 0.713595 0.062927 0.014181
C55   C     C_R   0.252119 0.118528 0.952548 -0.145197
C56   C     C_R   0.876860 0.133445 0.947973 -0.145066
C57   C     C_R   0.860857 0.736855 0.949989 -0.145158
C58   C     C_R   0.910622 0.128166 0.018149 -0.152611
C59   C     C_R   0.214971 0.083094 0.022612 -0.152789
C60   C     C_R   0.865997 0.776248 0.020298 -0.152363
C61   C     C_R   0.504362 0.988406 0.572919 -0.001035
C62   C     C_R   0.067925 0.553540 0.565918 0.009540
C63   C     C_R   0.475718 0.475441 0.574383 -0.005988
C64   C     C_R   0.936479 0.496652 0.434315 0.000851
C65   C     C_R   0.572208 0.099932 0.436986 -0.005163
C66   C     C_R   0.506915 0.493012 0.427191 0.006056
C67   C     C_R   0.581640 0.950087 0.526802 0.025129
C68   C     C_R   0.079476 0.667468 0.524084 0.017182
C69   C     C_R   0.358702 0.400472 0.528521 0.026071
C70   C     C_R   0.003874 0.638853 0.460841 0.043896
C71   C     C_R   0.638507 0.027889 0.466197 0.041450
C72   C     C_R   0.374033 0.433631 0.456324 0.015569
Cr1   Cr    Cr6+3 0.768550 0.541320 0.250660 1.049432
Cr2   Cr    Cr6+3 0.458680 0.227230 0.250660 1.063736
Cr3   Cr    Cr6+3 0.772770 0.231450 0.250660 1.048195
Cr4   Cr    Cr6+3 0.541320 0.768550 0.749340 1.031954
Cr5   Cr    Cr6+3 0.227230 0.458680 0.749340 1.030867
Cr6   Cr    Cr6+3 0.231450 0.772770 0.749340 1.023241
H1    H     H_    0.549539 0.760409 0.576355 0.159045
H2    H     H_    0.210541 0.840079 0.593334 0.176789
H3    H     H_    0.215739 0.236483 0.600762 0.147607
H4    H     H_    0.922574 0.746319 0.389755 0.155205
H5    H     H_    0.823901 0.098828 0.398136 0.145068
H6    H     H_    0.262991 0.423215 0.359140 0.144799
H7    H     H_    0.776038 0.787561 0.537278 0.126054
H8    H     H_    0.216229 0.025197 0.526978 0.117154
H9    H     H_    0.020307 0.142881 0.522353 0.121794
H10   H     H_    0.096583 0.978218 0.414726 0.126009
H11   H     H_    0.891539 0.942000 0.438512 0.104450
H12   H     H_    0.042664 0.239140 0.400299 0.121593
O1    O     O_R   0.910960 0.572410 0.171010 -0.490922
O2    O     O_R   0.427590 0.338550 0.171010 -0.496581
O3    O     O_R   0.661450 0.089040 0.171010 -0.492795
O4    O     O_R   0.572410 0.910960 0.828990 -0.515044
O5    O     O_R   0.338550 0.427590 0.828990 -0.516984
O6    O     O_R   0.089040 0.661450 0.828990 -0.514379
O7    O     O_R   0.639750 0.528530 0.175600 -0.490593
O8    O     O_R   0.471470 0.111220 0.175600 -0.486150
O9    O     O_R   0.888780 0.360250 0.175600 -0.486987
O10   O     O_R   0.528530 0.639750 0.824400 -0.498538
O11   O     O_R   0.111220 0.471470 0.824400 -0.496897
O12   O     O_R   0.360250 0.888780 0.824400 -0.499320
O13   O     O_R   0.909330 0.572400 0.331540 -0.521362
O14   O     O_R   0.427600 0.336930 0.331540 -0.524774
O15   O     O_R   0.663070 0.090670 0.331540 -0.526171
O16   O     O_R   0.572400 0.909330 0.668460 -0.508538
O17   O     O_R   0.336930 0.427600 0.668460 -0.531862
O18   O     O_R   0.090670 0.663070 0.668460 -0.515404
O19   O     O_R   0.638240 0.528520 0.324410 -0.519439
O20   O     O_R   0.471480 0.109720 0.324410 -0.470201
O21   O     O_R   0.890280 0.361760 0.324410 -0.512958
O22   O     O_R   0.528520 0.638240 0.675590 -0.510549
O23   O     O_R   0.109720 0.471480 0.675590 -0.487038
O24   O     O_R   0.361760 0.890280 0.675590 -0.540211
O25   O     O_3   0.666667 0.333333 0.250630 -0.305090
O26   O     O_3   0.333333 0.666667 0.749370 -0.284416
H13   H     H_    0.629672 0.908923 0.075480 0.146822
H14   H     H_    0.092120 0.718037 0.077808 0.146765
H15   H     H_    0.283341 0.376465 0.076600 0.147886
H16   H     H_    0.135815 0.744041 0.952426 0.141528
H17   H     H_    0.610709 0.865554 0.950063 0.143687
H18   H     H_    0.257954 0.394603 0.951190 0.142733
C73   C     C_1   0.403194 0.156257 0.852473 0.219813
N1    N     N_1   0.442302 0.204139 0.797074 -0.258413
C74   C     C_1   0.843714 0.253262 0.848799 0.221506
N2    N     N_1   0.797334 0.247702 0.793120 -0.241058
C75   C     C_1   0.743638 0.583881 0.850341 0.221007
N3    N     N_1   0.749613 0.541870 0.794724 -0.245018
C76   C     C_1   0.024493 0.238472 0.128005 0.206651
N4    N     N_1   0.072392 0.230780 0.181196 -0.286546
C77   C     C_1   0.217483 0.970656 0.131574 0.209193
N5    N     N_1   0.164962 0.923136 0.185125 -0.270381
C78   C     C_1   0.757406 0.783209 0.129801 0.208187
N6    N     N_1   0.765281 0.839645 0.183138 -0.275793
H19   H     H_    0.199670 0.162161 0.921890 0.128873
H20   H     H_    0.832882 0.038493 0.916149 0.130636
H21   H     H_    0.954421 0.786198 0.918518 0.131705
H22   H     H_    0.894412 0.030020 0.039216 0.112804
H23   H     H_    0.132867 0.097381 0.044696 0.114881
H24   H     H_    0.962893 0.856903 0.041836 0.112580
H25   H     H_    0.451002 0.200813 0.462408 0.141217
H26   H     H_    0.860774 0.283256 0.460959 0.109817
H27   H     H_    0.724264 0.572628 0.450784 0.126484
H28   H     H_    0.965003 0.327952 0.576546 0.154739
H29   H     H_    0.419224 0.127202 0.588188 0.126918
H30   H     H_    0.697371 0.573538 0.580017 0.139734

loop_
_geom_bond_atom_site_label_1
_geom_bond_atom_site_label_2
_ccdc_geom_bond_type
C2    C35   S    
C39   C51   A    
C21   H9    S    
C55   C59   A    
Cr6   O12   S    
C36   C42   A    
C13   H1    S    
C53   C59   A    
C73   N1    T    
C15   H3    S    
C54   C60   A    
C28   O22   A    
Cr1   O7    S    
C17   C23   A    
C34   C40   A    
C52   C76   S    
Cr6   O18   S    
C32   C38   A    
C48   H18   S    
C47   H17   S    
C28   O17   A    
Cr2   O2    S    
C49   C73   S    
C3    O1    A    
C12   H30   S    
C9    C66   A    
Cr4   O4    S    
C4    C33   S    
Cr5   O11   S    
C33   C39   A    
C66   C72   A    
C63   C69   A    
Cr6   O6    S    
C6    O4    A    
C20   H8    S    
Cr1   O13   S    
C18   H6    S    
C23   H11   S    
C29   O18   A    
C51   C57   A    
C64   C70   A    
Cr5   O26   S    
C35   C43   A    
C26   O20   A    
C25   O19   A    
C5    C32   S    
C45   H15   S    
C6    C31   S    
C27   O21   A    
C31   C47   A    
C30   O16   A    
C18   C72   A    
C10   C62   A    
Cr5   O23   S    
C26   O15   A    
Cr3   O9    S    
C56   H20   S    
C44   C46   A    
C7    C11   A    
C39   C42   A    
C9    H27   S    
C15   C69   A    
C5    O11   A    
C13   C19   A    
C57   H21   S    
C14   C20   A    
Cr5   O17   S    
C16   C70   A    
Cr1   O1    S    
Cr2   O8    S    
C1    O7    A    
C12   C63   A    
C11   H29   S    
C57   C60   A    
C3    C34   S    
C11   C61   A    
C40   C52   A    
C54   C78   S    
Cr5   O5    S    
C50   C56   A    
C31   C37   A    
C16   C22   A    
C17   H5    S    
C69   C72   A    
C19   C23   A    
C7    C65   A    
C4    O5    A    
C37   C49   A    
C61   C67   A    
C59   H23   S    
Cr4   O22   S    
C49   C55   A    
C16   H4    S    
C46   H16   S    
C36   C45   A    
C50   C74   S    
C10   H28   S    
C41   C53   A    
C52   C58   A    
C60   H24   S    
C53   C77   S    
C68   C70   A    
C8    C64   A    
C17   C71   A    
C1    O2    A    
C22   H10   S    
C14   H2    S    
C4    O10   A    
C78   N6    T    
C18   C24   A    
C21   C24   A    
Cr3   O25   S    
C44   H14   S    
C77   N5    T    
C7    H25   S    
C5    O6    A    
Cr3   O3    S    
Cr2   O14   S    
C76   N4    T    
C30   O24   A    
C45   C48   A    
C34   C44   A    
C29   O23   A    
C29   C62   S    
Cr6   O24   S    
Cr4   O16   S    
C26   C65   S    
C32   C46   A    
C2    O3    A    
C13   C67   A    
C25   C66   S    
C20   C22   A    
C19   H7    S    
C24   H12   S    
Cr2   O20   S    
C25   O14   A    
Cr1   O19   S    
C38   C50   A    
Cr4   O10   S    
Cr3   O21   S    
Cr1   O25   S    
C62   C68   A    
C51   C75   S    
Cr6   O26   S    
C65   C71   A    
C42   C54   A    
C38   C40   A    
C58   H22   S    
C74   N2    T    
C55   H19   S    
Cr2   O25   S    
C27   O13   A    
Cr4   O26   S    
C56   C58   A    
C67   C71   A    
C6    O12   A    
C37   C41   A    
C35   C41   A    
C9    C12   A    
C27   C64   S    
C28   C63   S    
C3    O9    A    
C15   C21   A    
C2    O8    A    
C8    C10   A    
C30   C61   S    
C43   H13   S    
C33   C48   A    
C14   C68   A    
C8    H26   S    
Cr3   O15   S    
C43   C47   A    
C75   N3    T    
C1    C36   S    
