data_mof_unit_27804.cif
_audit_creation_date              2012-10-26T21:05:19-0400
_audit_creation_method            fapswitch 2.2
_symmetry_space_group_name_H-M    P1
_symmetry_Int_Tables_number       1
_space_group_crystal_system       triclinic
_cell_length_a                    9.649224
_cell_length_b                    10.820452
_cell_length_c                    13.866424
_cell_angle_alpha                 94.129389
_cell_angle_beta                  85.360857
_cell_angle_gamma                 91.410949
_cell_volume                      1439.0323351

loop_
_atom_site_label
_atom_site_type_symbol
_atom_type_description
_atom_site_fract_x
_atom_site_fract_y
_atom_site_fract_z
_atom_type_partial_charge
C1    C     C_R   0.500981 0.737627 0.505739 0.530459
C2    C     C_R   0.545974 0.926609 0.420750 -0.006372
C3    C     C_R   0.538048 0.055767 0.416068 -0.003288
C4    C     C_R   0.477857 0.494036 0.682163 0.521902
C5    C     C_R   0.492063 0.128912 0.500170 0.014233
C6    C     C_R   0.868379 0.334875 0.368350 -0.078463
C7    C     C_R   0.946520 0.254846 0.303764 -0.166038
C8    C     C_R   0.089201 0.253750 0.305204 -0.166095
C9    C     C_R   0.155037 0.333663 0.370461 -0.078198
C10   C     C_R   0.080036 0.418169 0.436298 0.149866
C11   C     C_R   0.930897 0.418440 0.435864 0.149747
C12   C     C_1   0.465563 0.485720 0.784720 -0.036247
C13   C     C_R   0.923865 0.579414 0.561185 0.104216
C14   C     C_R   0.071197 0.577875 0.560380 0.023713
C15   C     C_R   0.498148 0.262959 0.499079 0.526965
C16   C     C_R   0.522094 0.499759 0.317303 0.524978
C17   C     C_1   0.534507 0.502307 0.214299 -0.031088
C18   C     C_2   0.554394 0.509536 0.024218 -0.125042
C19   C     C_2   0.446501 0.472965 0.974263 -0.124337
C20   C     C_1   0.455865 0.479283 0.871078 -0.058385
C21   C     C_1   0.544469 0.505409 0.127625 -0.056390
C22   C     C_3   0.593680 0.843344 0.331313 -0.370026
C23   C     C_R   0.426887 0.901395 0.689562 0.027339
C24   C     C_3   0.487042 0.787023 0.725395 -0.274186
C25   C     C_3   0.573984 0.817553 0.812063 -0.453671
C26   C     C_3   0.569017 0.113643 0.319810 -0.398444
C27   C     C_3   0.852052 0.673953 0.631966 -0.350706
C28   C     C_R   0.345037 0.973117 0.759919 -0.094378
C29   C     C_R   0.318329 0.095249 0.746980 -0.139291
C30   C     C_R   0.372299 0.147714 0.663672 -0.105063
C31   C     C_R   0.441341 0.074997 0.586086 0.001028
C32   C     C_R   0.459325 0.946838 0.595013 0.006395
C33   C     C_R   0.506536 0.872688 0.509447 -0.004330
Cu1   Cu    Cu3+1 0.359340 0.500010 0.500010 0.910651
Cu2   Cu    Cu3+1 0.640660 0.499990 0.499990 0.906602
H1    H     H_    0.350512 0.439028 0.010596 0.132066
H2    H     H_    0.354482 0.245198 0.660297 0.151133
H3    H     H_    0.623753 0.892300 0.265366 0.114146
H4    H     H_    0.686540 0.791412 0.346031 0.160296
H5    H     H_    0.508837 0.776732 0.313013 0.141652
H6    H     H_    0.508378 0.852595 0.877213 0.149401
H7    H     H_    0.625013 0.732407 0.830531 0.136517
H8    H     H_    0.656076 0.887758 0.793754 0.158270
H9    H     H_    0.399814 0.723585 0.746884 0.148657
H10   H     H_    0.558686 0.739317 0.671020 0.167369
H11   H     H_    0.550042 0.214341 0.322672 0.116534
H12   H     H_    0.759641 0.327829 0.362046 0.180058
H13   H     H_    0.679260 0.098983 0.293527 0.122267
H14   H     H_    0.500277 0.070589 0.265789 0.125667
H15   H     H_    0.781466 0.629287 0.686026 0.158414
H16   H     H_    0.927443 0.728513 0.675120 0.066991
H17   H     H_    0.799556 0.743090 0.593816 0.161255
H18   H     H_    0.896094 0.193138 0.251960 0.111808
H19   H     H_    0.149653 0.190718 0.255154 0.116343
H20   H     H_    0.264941 0.325917 0.366011 0.181801
H21   H     H_    0.125448 0.641088 0.609156 0.124356
H22   H     H_    0.650184 0.543839 0.987841 0.129446
H23   H     H_    0.309187 0.936687 0.828498 0.109082
H24   H     H_    0.260991 0.151279 0.803851 0.112716
N1    N     N_R   0.852210 0.498790 0.499090 -0.229184
N2    N     N_R   0.148080 0.498710 0.499060 -0.254748
O1    O     O_R   0.381190 0.680360 0.500010 -0.487232
O2    O     O_R   0.618760 0.680340 0.500000 -0.518026
O3    O     O_R   0.364420 0.499990 0.637850 -0.506864
O4    O     O_R   0.601990 0.499960 0.637840 -0.501648
O5    O     O_R   0.381240 0.319660 0.500000 -0.528685
O6    O     O_R   0.618810 0.319640 0.499990 -0.505566
O7    O     O_R   0.398010 0.500040 0.362160 -0.508117
O8    O     O_R   0.635580 0.500010 0.362150 -0.514234

loop_
_geom_bond_atom_site_label_1
_geom_bond_atom_site_label_2
_ccdc_geom_bond_type
C25   H7    S    
C2    C22   S    
C14   H21   S    
C23   C24   S    
C6    C7    A    
C16   O7    A    
C30   H2    S    
Cu2   O6    S    
C4    C12   S    
C18   C21   S    
C9    C10   A    
C4    O3    A    
C18   H22   S    
C19   C20   S    
C27   H15   S    
C26   H13   S    
C15   O6    A    
C23   C32   A    
C25   H8    S    
Cu1   O3    S    
C2    C3    A    
C8    C9    A    
C22   H5    S    
C7    C8    A    
C13   N1    A    
C31   C32   A    
C23   C28   A    
C24   C25   S    
C15   O5    A    
Cu1   O5    S    
C29   C30   A    
C12   C20   T    
C9    H20   S    
C24   H10   S    
C1    O2    A    
C2    C33   A    
C8    H19   S    
C28   C29   A    
C27   H16   S    
Cu1   Cu2   S    
C28   H23   S    
C19   H1    S    
C3    C26   S    
C30   C31   A    
C24   H9    S    
C5    C15   S    
C10   N2    A    
C16   C17   S    
C6    H12   S    
C26   H11   S    
C25   H6    S    
C11   N1    A    
C22   H3    S    
C29   H24   S    
Cu1   O1    S    
C27   H17   S    
Cu2   O8    S    
C1    O1    A    
C18   C19   D    
C10   C11   A    
C26   H14   S    
Cu1   O7    S    
C6    C11   A    
Cu2   O4    S    
C4    O4    A    
C13   C27   S    
Cu2   O2    S    
C7    H18   S    
C3    C5    A    
C13   C14   A    
C14   N2    A    
C22   H4    S    
Cu1   N2    S    
C17   C21   T    
C16   O8    A    
C1    C33   S    
C32   C33   A    
Cu2   N1    S    
C5    C31   A    
