data_mof_unit_26405.cif
_audit_creation_date              2012-12-11T15:29:36-0500
_audit_creation_method            fapswitch 2.2
_symmetry_space_group_name_H-M    P1
_symmetry_Int_Tables_number       1
_space_group_crystal_system       triclinic
_cell_length_a                    21.417846
_cell_length_b                    7.246593
_cell_length_c                    14.770257
_cell_angle_alpha                 90.4947
_cell_angle_beta                  74.403432
_cell_angle_gamma                 89.859069
_cell_volume                      2207.91846979

loop_
_atom_site_label
_atom_site_type_symbol
_atom_type_description
_atom_site_fract_x
_atom_site_fract_y
_atom_site_fract_z
_atom_type_partial_charge
O1    O     O_R   0.464160 0.506670 0.130070 -0.535419
O2    O     O_R   0.535840 0.006670 0.869930 -0.535451
O3    O     O_R   0.589710 0.179080 0.006710 -0.545543
O4    O     O_R   0.410290 0.679080 0.993290 -0.545320
C1    C     C_R   0.616330 0.343941 0.001937 0.675518
C2    C     C_R   0.383648 0.844220 0.998110 0.676369
O5    O     O_R   0.467940 0.177220 0.138010 -0.538836
O6    O     O_R   0.532060 0.677220 0.861990 -0.538941
O7    O     O_R   0.413200 0.002810 0.002170 -0.540520
O8    O     O_R   0.586800 0.502810 0.997830 -0.540265
C3    C     C_R   0.456243 0.346483 0.174332 0.684471
C4    C     C_R   0.543791 0.844515 0.825571 0.684566
O9    O     O_3   0.482180 0.337850 0.955280 -0.376760
O10   O     O_3   0.517820 0.837850 0.044720 -0.377001
V1    V     V_3+5 0.503310 0.064600 0.008300 1.397791
V2    V     V_3+5 0.496690 0.564600 0.991700 1.398887
C5    C     C_R   0.571538 0.847659 0.723858 -0.026457
C6    C     C_R   0.428358 0.359031 0.275836 -0.026399
C7    C     C_R   0.928428 0.870093 0.276289 -0.032939
C8    C     C_R   0.071719 0.358686 0.723999 -0.033047
C9    C     C_R   0.560384 0.796757 0.567419 -0.162862
C10   C     C_R   0.439056 0.434554 0.430216 -0.161495
C11   C     C_R   0.532652 0.810281 0.663892 -0.171534
C12   C     C_R   0.466913 0.410313 0.334281 -0.173188
C13   C     C_R   0.638360 0.870895 0.687514 -0.216226
C14   C     C_R   0.361795 0.332442 0.313047 -0.215278
C15   C     C_R   0.668215 0.853391 0.589824 0.083372
C16   C     C_R   0.331837 0.359653 0.410106 0.082802
C17   C     C_R   0.627601 0.816179 0.530082 0.140743
C18   C     C_R   0.372076 0.411197 0.468378 0.139647
C19   C     C_R   0.736755 0.868351 0.549827 0.062750
C20   C     C_R   0.263528 0.340377 0.450791 0.060240
C21   C     C_R   0.763341 0.846114 0.450435 0.055853
C22   C     C_R   0.236738 0.373792 0.549334 0.056700
C23   C     C_R   0.720531 0.809657 0.394429 -0.194426
C24   C     C_R   0.279192 0.423809 0.603967 -0.181619
C25   C     C_R   0.654220 0.795635 0.433630 -0.203706
C26   C     C_R   0.345310 0.441514 0.564138 -0.203211
C27   C     C_R   0.779597 0.903943 0.605882 -0.192890
C28   C     C_R   0.221116 0.289494 0.396235 -0.192397
C29   C     C_R   0.845893 0.918288 0.566672 -0.206165
C30   C     C_R   0.154979 0.272185 0.436030 -0.204701
C31   C     C_R   0.872467 0.898972 0.470159 0.146149
C32   C     C_R   0.128151 0.303783 0.531675 0.142677
C33   C     C_R   0.831851 0.861917 0.410399 0.077121
C34   C     C_R   0.168386 0.355415 0.589938 0.076725
C35   C     C_R   0.939637 0.919462 0.432793 -0.160615
C36   C     C_R   0.061108 0.281624 0.569738 -0.159920
C37   C     C_R   0.967316 0.907249 0.336274 -0.178316
C38   C     C_R   0.033174 0.307258 0.665564 -0.181794
C39   C     C_R   0.861658 0.845755 0.312644 -0.217178
C40   C     C_R   0.138356 0.383993 0.686882 -0.197038
H1    H     H_    0.623418 0.766790 0.387767 0.124497
H2    H     H_    0.375830 0.480911 0.608917 0.122054
H3    H     H_    0.834555 0.820289 0.262103 0.134664
H4    H     H_    0.165145 0.421408 0.736353 0.115733
H5    H     H_    0.018964 0.928407 0.308214 0.097842
H6    H     H_    0.981620 0.285532 0.694333 0.098752
H7    H     H_    0.876711 0.946610 0.612572 0.119137
H8    H     H_    0.124482 0.232303 0.391296 0.118878
H9    H     H_    0.529360 0.767661 0.521959 0.112263
H10   H     H_    0.469793 0.474370 0.474552 0.112613
H11   H     H_    0.480967 0.789813 0.691944 0.101690
H12   H     H_    0.518416 0.432838 0.305454 0.102346
H13   H     H_    0.665445 0.896753 0.738035 0.089511
H14   H     H_    0.334985 0.295295 0.263561 0.089136
H15   H     H_    0.736482 0.790101 0.319439 0.148037
H16   H     H_    0.263117 0.451214 0.678333 0.132469
H17   H     H_    0.763694 0.922374 0.680937 0.117702
H18   H     H_    0.237248 0.260940 0.321976 0.118667
H19   H     H_    0.970659 0.948384 0.478277 0.111237
H20   H     H_    0.030374 0.241686 0.525418 0.112052
C41   C     C_3   0.212175 0.659732 0.997567 -0.397100
C42   C     C_3   0.788100 0.160075 0.002746 -0.394593
H21   H     H_    0.183149 0.583281 0.059711 0.178032
H22   H     H_    0.817256 0.081049 0.940681 0.175967
H23   H     H_    0.205967 0.587860 0.933639 0.177093
H24   H     H_    0.794444 0.090930 0.066738 0.179664
C43   C     C_3   0.284384 0.653048 0.996712 -0.321766
C44   C     C_3   0.715897 0.152972 0.003623 -0.322271
H25   H     H_    0.289458 0.573804 0.058617 0.156204
H26   H     H_    0.710971 0.071063 0.941805 0.153282
H27   H     H_    0.169233 0.884407 0.154019 0.115046
H28   H     H_    0.830738 0.378189 0.846077 0.114156
H29   H     H_    0.276793 0.877938 0.152363 0.133213
H30   H     H_    0.723205 0.370895 0.847707 0.132279
C45   C     C_3   0.198411 0.955874 0.090289 -0.308818
C46   C     C_3   0.801383 0.452263 0.909705 -0.306625
C47   C     C_3   0.230427 0.962381 0.912855 0.526815
C48   C     C_3   0.769352 0.466375 0.087091 0.518897
C49   C     C_3   0.187450 0.862356 0.000701 0.011103
C50   C     C_3   0.812511 0.362747 0.999380 0.013614
H31   H     H_    0.224494 0.893690 0.848019 0.029568
H32   H     H_    0.775446 0.400636 0.152016 0.030586
C51   C     C_3   0.312382 0.850864 0.998860 0.038869
C52   C     C_3   0.687581 0.350486 0.001240 0.038895
C53   C     C_3   0.271241 0.950381 0.088836 -0.325499
C54   C     C_3   0.728569 0.446256 0.911136 -0.321322
C55   C     C_3   0.303209 0.955474 0.912092 -0.354154
C56   C     C_3   0.696575 0.458993 0.087884 -0.356075
H33   H     H_    0.331721 0.885784 0.846490 0.080297
H34   H     H_    0.668217 0.392064 0.153590 0.080836
H35   H     H_    0.322345 0.098226 0.911578 0.181417
H36   H     H_    0.677141 0.601659 0.088245 0.180205
H37   H     H_    0.181541 0.101892 0.095480 0.181297
H38   H     H_    0.817934 0.598159 0.904379 0.182535
H39   H     H_    0.288932 0.093914 0.092137 0.146784
H40   H     H_    0.710576 0.589518 0.907607 0.149327
O11   O     O_R   0.913210 0.208550 0.002110 -0.548444
O12   O     O_R   0.086790 0.708550 0.997890 -0.548519
O13   O     O_R   0.032060 0.539960 0.861980 -0.546849
O14   O     O_R   0.967940 0.039960 0.138020 -0.545560
C57   C     C_R   0.043788 0.371560 0.825489 0.699251
C58   C     C_R   0.956164 0.873547 0.174593 0.697861
O15   O     O_R   0.910290 0.538020 0.993280 -0.507699
O16   O     O_R   0.089710 0.038020 0.006720 -0.507121
O17   O     O_R   0.964160 0.712340 0.130090 -0.530711
O18   O     O_R   0.035840 0.212340 0.869910 -0.528960
C59   C     C_R   0.883935 0.370036 0.998211 0.666013
C60   C     C_R   0.116054 0.869750 0.001835 0.667351
O19   O     O_3   0.017820 0.379210 0.044690 -0.377913
O20   O     O_3   0.982180 0.879210 0.955310 -0.378260
V3    V     V_3+5 0.996690 0.652500 0.991710 1.464444
V4    V     V_3+5 0.003310 0.152500 0.008290 1.468364
H41   H     H_    0.312170 0.577380 0.932526 0.159567
H42   H     H_    0.688239 0.079992 0.067892 0.161743
F1    F     F_    0.211159 0.144954 0.911249 -0.704662
F2    F     F_    0.788252 0.649116 0.088419 -0.711860

loop_
_geom_bond_atom_site_label_1
_geom_bond_atom_site_label_2
_ccdc_geom_bond_type
H27   C45   S    
C3    C6    S    
C45   C49   S    
C15   C17   A    
C21   C33   A    
C55   H35   S    
C6    C14   A    
O2    C4    A    
C2    O7    A    
O14   C58   A    
C54   H40   S    
C27   C29   A    
C24   H16   S    
O5    C3    A    
C5    C11   A    
C28   H18   S    
C47   C55   S    
C6    C12   A    
C23   C25   A    
C50   C59   S    
O14   V4    S    
C8    C57   S    
C51   C55   S    
C33   C39   A    
C34   C40   A    
C56   H36   S    
C37   H5    S    
C18   C26   A    
C42   C50   S    
O19   V4    S    
C8    C38   A    
C46   C50   S    
C26   H2    S    
C4    C5    S    
C19   C21   A    
C22   C34   A    
C44   C52   S    
C10   C18   A    
C9    H9    S    
C25   H1    S    
C36   C38   A    
C43   H41   S    
C41   C49   S    
O6    V2    S    
C42   C44   S    
C29   C31   A    
C30   C32   A    
C36   H20   S    
C48   C56   S    
C32   C34   A    
C48   H32   S    
C41   C43   S    
O15   V3    S    
C15   C19   A    
C14   H14   S    
C16   C20   A    
C13   H13   S    
C29   H7    S    
C44   H26   S    
O12   C60   A    
C43   H25   S    
O5    V1    S    
C7    C58   S    
C9    C17   A    
O16   C60   A    
C52   C54   S    
C38   H6    S    
O4    V2    S    
C43   C51   S    
O12   V3    S    
C10   H10   S    
C46   H38   S    
C7    C37   A    
C48   C50   S    
C45   H37   S    
C23   H15   S    
O6    C4    A    
C56   H34   S    
C27   H17   S    
O13   C57   A    
O1    V2    S    
O18   V4    S    
O2    V1    S    
C31   C33   A    
C35   H19   S    
C42   H22   S    
O4    C2    A    
C55   H33   S    
O15   C59   A    
C9    C11   A    
C13   C15   A    
C10   C12   A    
C47   C49   S    
C41   H21   S    
C30   H8    S    
C1    C52   S    
O3    V1    S    
O11   C59   A    
C47   F1    S    
O13   V3    S    
C41   H23   S    
O16   V4    S    
O10   V1    S    
H28   C46   S    
C28   C30   A    
O3    C1    A    
C51   C53   S    
O11   V4    S    
C35   C37   A    
C14   C16   A    
C5    C13   A    
C24   C26   A    
O17   V3    S    
C16   C18   A    
C8    C40   A    
C32   C36   A    
O8    V2    S    
C44   H42   S    
C52   C56   S    
C11   H11   S    
C21   C23   A    
C22   C24   A    
C19   C27   A    
C39   H3    S    
C20   C28   A    
C47   H31   S    
H30   C54   S    
C58   O17   A    
H29   C53   S    
C57   O18   A    
C53   H39   S    
C7    C39   A    
C1    O8    A    
C12   H12   S    
C2    C51   S    
C42   H24   S    
O9    V2    S    
C17   C25   A    
C48   F2    S    
C49   C60   S    
O1    C3    A    
O20   V3    S    
C31   C35   A    
C46   C54   S    
C40   H4    S    
O7    V1    S    
C20   C22   A    
C45   C53   S    
