data_mof_unit_6049.cif
_audit_creation_date              2012-12-10T17:36:18-0500
_audit_creation_method            fapswitch 2.2
_symmetry_space_group_name_H-M    P1
_symmetry_Int_Tables_number       1
_space_group_crystal_system       triclinic
_cell_length_a                    12.34521
_cell_length_b                    13.150081
_cell_length_c                    15.888015
_cell_angle_alpha                 77.573394
_cell_angle_beta                  101.518976
_cell_angle_gamma                 116.871914
_cell_volume                      2231.27005634

loop_
_atom_site_label
_atom_site_type_symbol
_atom_type_description
_atom_site_fract_x
_atom_site_fract_y
_atom_site_fract_z
_atom_type_partial_charge
C1    C     C_R   0.854989 0.286550 0.506498 0.815942
C2    C     C_3   0.006404 0.383985 0.073245 -0.509675
C3    C     C_3   0.997418 0.496470 0.082858 0.228173
C4    C     C_3   0.109185 0.607366 0.043552 0.202684
C5    C     C_3   0.109107 0.591136 0.948123 -0.414981
C6    C     C_1   0.994723 0.495350 0.175170 -0.130919
C7    C     C_1   0.996133 0.489000 0.825224 -0.102663
C8    C     C_1   0.997267 0.494354 0.749193 -0.179581
C9    C     C_R   0.274558 0.021533 0.377948 0.179964
C10   C     C_R   0.227940 0.835549 0.467443 -0.082384
C11   C     C_R   0.814472 0.084581 0.561731 -0.195590
C12   C     C_R   0.999443 0.498950 0.659493 0.822559
C13   C     C_R   0.734769 0.969464 0.578450 -0.134428
C14   C     C_R   0.611762 0.932493 0.547038 -0.179404
C15   C     C_R   0.566630 0.009848 0.493805 0.044449
C16   C     C_R   0.651917 0.123227 0.465715 0.064757
C17   C     C_R   0.440015 0.977271 0.466355 0.024279
C18   C     C_R   0.400861 0.053408 0.404837 0.110411
C19   C     C_R   0.488512 0.157469 0.368080 -0.270594
C20   C     C_R   0.613256 0.190988 0.395015 0.130200
C21   C     C_R   0.350963 0.870904 0.499160 -0.251513
C22   C     C_R   0.189093 0.911633 0.408864 -0.229201
C23   C     C_R   0.145192 0.713736 0.487043 0.803452
C24   C     C_R   0.773686 0.163187 0.508112 -0.086945
C25   C     C_R   0.338921 0.318712 0.631727 -0.313590
C26   C     C_R   0.771332 0.660753 0.396879 0.038701
C27   C     C_R   0.683945 0.705799 0.380429 -0.042260
C28   C     C_R   0.572180 0.638167 0.415453 -0.248454
C29   C     C_R   0.554209 0.537013 0.475014 -0.030852
C30   C     C_R   0.651570 0.502610 0.494651 0.233836
C31   C     C_R   0.446857 0.473400 0.519877 -0.059134
C32   C     C_R   0.442010 0.379834 0.586097 0.123553
C33   C     C_R   0.541389 0.350474 0.606847 0.077503
C34   C     C_R   0.999004 0.498816 0.340462 0.839565
C35   C     C_R   0.643231 0.411846 0.562329 -0.152465
C36   C     C_R   0.343934 0.499454 0.503003 0.030140
C37   C     C_R   0.242242 0.349569 0.612319 0.080275
C38   C     C_3   0.001241 0.370197 0.975041 0.063065
C39   C     C_3   0.882357 0.498489 0.931320 -0.417504
C40   C     C_3   0.870717 0.486057 0.028810 -0.111387
C41   C     C_1   0.996158 0.496066 0.250883 -0.199238
C42   C     C_3   0.995469 0.483761 0.918227 0.196794
Cu1   Cu    Cu3+1 0.098280 0.475420 0.519630 0.932185
Cu2   Cu    Cu3+1 0.901720 0.524580 0.480370 0.936896
H1    H     H_    0.928287 0.310854 0.103895 0.160622
H2    H     H_    0.083168 0.372734 0.115662 0.153504
H3    H     H_    0.093043 0.884029 0.384690 0.141156
H4    H     H_    0.460579 0.211965 0.315927 0.172038
H5    H     H_    0.374586 0.812102 0.549036 0.153172
H6    H     H_    0.907698 0.112647 0.592963 0.147926
H7    H     H_    0.555382 0.841977 0.563582 0.128470
H8    H     H_    0.767497 0.909197 0.619026 0.141880
H9    H     H_    0.162627 0.301900 0.646804 0.113827
H10   H     H_    0.331829 0.247210 0.682499 0.130766
H11   H     H_    0.338213 0.566825 0.452686 0.124192
H12   H     H_    0.857865 0.707688 0.371369 0.124346
H13   H     H_    0.501115 0.667007 0.397601 0.130827
H14   H     H_    0.716596 0.388036 0.586158 0.215474
H15   H     H_    0.891487 0.585369 0.898126 0.196819
H16   H     H_    0.796042 0.437182 0.899785 0.142737
H17   H     H_    0.802295 0.396130 0.047064 0.127555
H18   H     H_    0.193422 0.584932 0.940728 0.163965
H19   H     H_    0.112597 0.669033 0.901815 0.160193
N1    N     N_R   0.246300 0.438200 0.549400 -0.178357
N2    N     N_R   0.754300 0.561180 0.451130 -0.202371
O1    O     O_R   0.972520 0.318130 0.524690 -0.595339
O2    O     O_R   0.806530 0.359650 0.491530 -0.565010
O3    O     O_R   0.083030 0.479240 0.637150 -0.574649
O4    O     O_R   0.917040 0.520750 0.603990 -0.595511
O5    O     O_R   0.193470 0.640350 0.508470 -0.586587
O6    O     O_R   0.027480 0.681870 0.475310 -0.594171
O7    O     O_R   0.082960 0.479250 0.396010 -0.580611
O8    O     O_R   0.916970 0.520760 0.362850 -0.567407
C43   C     C_R   0.114731 0.358651 0.956129 0.098019
C44   C     C_R   0.229142 0.395680 0.008504 -0.169870
C45   C     C_R   0.326781 0.381576 0.989361 -0.140252
C46   C     C_R   0.314369 0.332326 0.916716 -0.116607
C47   C     C_R   0.204151 0.297324 0.862755 -0.125191
C48   C     C_R   0.106000 0.310787 0.881654 -0.115938
H20   H     H_    0.247234 0.438392 0.063270 0.145884
H21   H     H_    0.412759 0.409667 0.031014 0.140966
H22   H     H_    0.390379 0.321894 0.901988 0.116125
H23   H     H_    0.194423 0.259172 0.806214 0.111080
H24   H     H_    0.022409 0.282684 0.837605 0.132179
N3    N     N_3   0.086158 0.709043 0.040138 -0.597019
H25   H     H_    0.136650 0.778568 0.996396 0.205610
H26   H     H_    0.115382 0.737770 0.100777 0.209584
N4    N     N_3   0.233981 0.099174 0.317171 -0.613792
H27   H     H_    0.250430 0.167404 0.349086 0.216846
H28   H     H_    0.139471 0.059260 0.299630 0.213634
C49   C     C_R   0.889122 0.254051 0.957978 0.101343
C50   C     C_R   0.796885 0.240399 0.886332 -0.180750
C51   C     C_R   0.701816 0.132073 0.874628 -0.134873
C52   C     C_R   0.697901 0.034511 0.932142 -0.115272
C53   C     C_R   0.790345 0.044625 0.000767 -0.129473
C54   C     C_R   0.885392 0.152561 0.012879 -0.153626
H29   H     H_    0.797665 0.310272 0.836562 0.139263
H30   H     H_    0.631924 0.123525 0.819747 0.144285
H31   H     H_    0.624579 0.950784 0.922450 0.113301
H32   H     H_    0.789207 0.968611 0.044217 0.124399
H33   H     H_    0.958044 0.157421 0.065078 0.122547
N5    N     N_3   0.700532 0.286534 0.344475 -0.545736
H34   H     H_    0.742714 0.253735 0.313657 0.188064
H35   H     H_    0.657456 0.327670 0.295558 0.216940
N6    N     N_3   0.543152 0.259051 0.674508 -0.622969
H36   H     H_    0.534155 0.276950 0.733091 0.210764
H37   H     H_    0.469622 0.181947 0.659671 0.225737
C55   C     C_R   0.711586 0.824711 0.330933 0.102376
C56   C     C_R   0.807344 0.880909 0.277652 -0.189383
C57   C     C_R   0.834523 0.992072 0.233712 -0.140390
C58   C     C_R   0.764920 0.048691 0.239386 -0.109971
C59   C     C_R   0.669377 0.994921 0.290747 -0.128253
C60   C     C_R   0.644196 0.885257 0.337412 -0.102399
H38   H     H_    0.862097 0.840430 0.268461 0.096782
H39   H     H_    0.909794 0.033893 0.194927 0.117832
H40   H     H_    0.785240 0.134277 0.204245 0.116363
H41   H     H_    0.614976 0.038549 0.294989 0.134163
H42   H     H_    0.572678 0.850137 0.379058 0.123509
C61   C     C_R   0.806465 0.558923 0.039415 0.149362
C62   C     C_R   0.850996 0.642064 0.096302 -0.074372
C63   C     C_R   0.793448 0.713318 0.093097 -0.166709
C64   C     C_R   0.688328 0.700507 0.035846 -0.105055
C65   C     C_R   0.637100 0.613254 0.984178 -0.134426
C66   C     C_R   0.694280 0.542002 0.986878 -0.192477
H43   H     H_    0.930428 0.655660 0.142750 0.137178
H44   H     H_    0.831696 0.779953 0.134192 0.117577
H45   H     H_    0.646511 0.758031 0.031544 0.116709
H46   H     H_    0.553923 0.601822 0.940963 0.136705
H47   H     H_    0.652273 0.475414 0.945402 0.118429
C67   C     C_R   0.239716 0.634336 0.092334 0.093784
C68   C     C_R   0.338694 0.732313 0.057169 -0.163478
C69   C     C_R   0.458518 0.762560 0.096413 -0.135662
C70   C     C_R   0.483617 0.693700 0.169900 -0.088596
C71   C     C_R   0.388254 0.598423 0.207386 -0.150641
C72   C     C_R   0.267400 0.570126 0.170451 -0.180582
H48   H     H_    0.323743 0.785665 0.998156 0.115128
H49   H     H_    0.532191 0.838705 0.068751 0.122157
H50   H     H_    0.577042 0.713727 0.197264 0.141471
H51   H     H_    0.407842 0.545501 0.265038 0.140103
H52   H     H_    0.199323 0.495675 0.203316 0.141486

loop_
_geom_bond_atom_site_label_1
_geom_bond_atom_site_label_2
_ccdc_geom_bond_type
C12   O4    A    
C51   C52   A    
C11   C13   A    
C53   C54   A    
Cu1   Cu2   S    
C3    C6    S    
C21   H5    S    
C65   C66   A    
C28   H13   S    
C2    H2    S    
N6    H37   S    
C26   C27   A    
Cu1   O7    S    
C30   C35   A    
C35   H14   S    
C52   H31   S    
C28   C29   A    
C38   C42   S    
C31   C36   A    
C9    N4    S    
N3    H25   S    
C59   H41   S    
C9    C22   A    
C20   N5    S    
C15   C16   A    
C11   C24   A    
C55   C56   A    
C5    H19   S    
Cu2   O6    S    
C18   C19   A    
C7    C42   S    
C64   H45   S    
C57   C58   A    
C46   H22   S    
C25   C37   A    
C49   C54   A    
C47   H23   S    
C19   C20   A    
Cu1   O3    S    
C6    C41   T    
Cu1   N1    S    
C58   H40   S    
C8    C12   S    
C44   H20   S    
C46   C47   A    
C37   H9    S    
C25   C32   A    
C22   H3    S    
C70   H50   S    
C2    H1    S    
C13   C14   A    
C23   O5    A    
Cu2   N2    S    
C52   C53   A    
C34   C41   S    
C59   C60   A    
C50   H29   S    
C17   C18   A    
C39   C42   S    
N3    H26   S    
C10   C21   A    
C72   H52   S    
C43   C44   A    
C23   O6    A    
C7    C8    T    
C33   N6    S    
C45   C46   A    
C68   H48   S    
C66   H47   S    
C49   C50   A    
C53   H32   S    
C69   C70   A    
C4    C67   S    
C4    N3    S    
C69   H49   S    
C61   C66   A    
C38   C49   S    
C10   C22   A    
C40   H17   S    
C55   C60   A    
C44   C45   A    
C29   C30   A    
C13   H8    S    
C12   O3    A    
C2    C38   S    
C14   H7    S    
C16   C20   A    
C39   H15   S    
C1    O1    A    
Cu2   O4    S    
C25   H10   S    
N5    H35   S    
C63   C64   A    
C56   H38   S    
C67   C72   A    
N4    H28   S    
C3    C40   S    
Cu1   O5    S    
C43   C48   A    
C70   C71   A    
C3    C4    S    
C34   O7    A    
C71   H51   S    
C37   N1    A    
C62   C63   A    
C5    C42   S    
C38   C43   S    
Cu2   O8    S    
C15   C17   A    
C58   C59   A    
C19   H4    S    
C26   N2    A    
C31   C32   A    
C4    C5    S    
C26   H12   S    
C45   H21   S    
C61   C62   A    
C71   C72   A    
C1    O2    A    
C10   C23   S    
N6    H36   S    
C32   C33   A    
C2    C3    S    
C63   H44   S    
C29   C31   A    
C11   H6    S    
C36   N1    A    
C56   C57   A    
C47   C48   A    
C65   H46   S    
C48   H24   S    
C27   C55   S    
Cu1   O1    S    
C39   H16   S    
C51   H30   S    
C50   C51   A    
C33   C35   A    
C5    H18   S    
C67   C68   A    
C62   H43   S    
N5    H34   S    
C17   C21   A    
C30   N2    A    
C34   O8    A    
C60   H42   S    
C39   C40   S    
C9    C18   A    
C40   C61   S    
N4    H27   S    
C1    C24   S    
C16   C24   A    
C27   C28   A    
C36   H11   S    
C14   C15   A    
Cu2   O2    S    
C64   C65   A    
C54   H33   S    
C57   H39   S    
C68   C69   A    
