data_mof_unit_5746.cif
_audit_creation_date              2012-12-11T16:13:50-0500
_audit_creation_method            fapswitch 2.2
_symmetry_space_group_name_H-M    P1
_symmetry_Int_Tables_number       1
_space_group_crystal_system       triclinic
_cell_length_a                    26.181709
_cell_length_b                    7.268314
_cell_length_c                    23.743268
_cell_angle_alpha                 90.000023
_cell_angle_beta                  101.382389
_cell_angle_gamma                 90.0
_cell_volume                      4429.40400663

loop_
_atom_site_label
_atom_site_type_symbol
_atom_type_description
_atom_site_fract_x
_atom_site_fract_y
_atom_site_fract_z
_atom_type_partial_charge
O1    O     O_R   0.192370 0.384760 0.193350 -0.531741
O2    O     O_R   0.807630 0.615240 0.806650 -0.532337
O3    O     O_R   0.307630 0.884760 0.306650 -0.531740
O4    O     O_R   0.692370 0.115240 0.693350 -0.532338
O5    O     O_R   0.296630 0.711620 0.196480 -0.544117
O6    O     O_R   0.703370 0.288380 0.803520 -0.543714
O7    O     O_R   0.203370 0.211620 0.303520 -0.544117
O8    O     O_R   0.796630 0.788380 0.696480 -0.543714
C1    C     C_R   0.312687 0.546102 0.184487 0.698016
C2    C     C_R   0.687312 0.453898 0.815512 0.698112
C3    C     C_R   0.187313 0.046102 0.315513 0.698016
C4    C     C_R   0.812687 0.953898 0.684488 0.698111
O9    O     O_R   0.192080 0.714290 0.186600 -0.526332
O10   O     O_R   0.807920 0.285710 0.813400 -0.526553
O11   O     O_R   0.307920 0.214290 0.313400 -0.526332
O12   O     O_R   0.692080 0.785710 0.686600 -0.526553
O13   O     O_R   0.202340 0.887460 0.296690 -0.536859
O14   O     O_R   0.797660 0.112540 0.703310 -0.536934
O15   O     O_R   0.297660 0.387460 0.203310 -0.536859
O16   O     O_R   0.702340 0.612540 0.796690 -0.536934
C5    C     C_R   0.173791 0.545805 0.171361 0.707980
C6    C     C_R   0.826209 0.454194 0.828638 0.708427
C7    C     C_R   0.326209 0.045805 0.328639 0.707979
C8    C     C_R   0.673791 0.954194 0.671362 0.708428
O17   O     O_3   0.253490 0.552180 0.286130 -0.377537
O18   O     O_3   0.746510 0.447820 0.713870 -0.377494
O19   O     O_3   0.246510 0.052180 0.213870 -0.377537
O20   O     O_3   0.753490 0.947820 0.786130 -0.377494
V1    V     V_3+5 0.249350 0.825920 0.243300 1.472408
V2    V     V_3+5 0.750650 0.174080 0.756700 1.468298
V3    V     V_3+5 0.250650 0.325920 0.256700 1.472408
V4    V     V_3+5 0.749350 0.674080 0.743300 1.468298
C9    C     C_3   0.540560 0.942129 0.477259 -0.235151
C10   C     C_3   0.459389 0.057582 0.522792 -0.216793
C11   C     C_3   0.959440 0.442131 0.022740 -0.235150
C12   C     C_3   0.040611 0.557580 0.977208 -0.216794
C13   C     C_3   0.508094 0.118246 0.460522 0.480363
C14   C     C_3   0.491878 0.881488 0.539511 0.531257
C15   C     C_3   0.991907 0.618247 0.039477 0.480363
C16   C     C_3   0.008122 0.381487 0.960489 0.531256
H1    H     H_    0.573930 0.896535 0.458261 0.194166
H2    H     H_    0.426017 0.103099 0.541802 0.179598
H3    H     H_    0.926069 0.396538 0.041739 0.194167
H4    H     H_    0.073983 0.603096 0.958198 0.179598
H5    H     H_    0.520045 0.304769 0.543605 0.207848
H6    H     H_    0.479712 0.695087 0.456545 0.214588
H7    H     H_    0.979955 0.804768 0.956395 0.207848
H8    H     H_    0.020287 0.195088 0.043455 0.214589
C17   C     C_1   0.371803 0.035726 0.374612 -0.118933
C18   C     C_1   0.628189 0.964258 0.625399 -0.121380
C19   C     C_1   0.128197 0.535726 0.125388 -0.118932
C20   C     C_1   0.871811 0.464258 0.874601 -0.121380
C21   C     C_3   0.489098 0.833019 0.475686 -0.247776
C22   C     C_3   0.510852 0.166831 0.524353 -0.276816
C23   C     C_3   0.010902 0.333019 0.024314 -0.247776
C24   C     C_3   0.989149 0.666831 0.975646 -0.276820
C25   C     C_3   0.457370 0.010928 0.458876 -0.017020
C26   C     C_3   0.542593 0.988866 0.541168 -0.035406
C27   C     C_3   0.042630 0.510928 0.041124 -0.017020
C28   C     C_3   0.957407 0.488866 0.958831 -0.035405
C29   C     C_1   0.410209 0.024816 0.412721 0.117952
C30   C     C_1   0.589772 0.975106 0.587303 0.111286
C31   C     C_1   0.089791 0.524816 0.087279 0.117953
C32   C     C_1   0.910228 0.475106 0.912697 0.111286
C33   C     C_R   0.859393 0.122657 0.616934 -0.144931
C34   C     C_R   0.140611 0.877343 0.383071 -0.145121
C35   C     C_R   0.640607 0.622657 0.883066 -0.144931
C36   C     C_R   0.359389 0.377343 0.116929 -0.145121
H9    H     H_    0.836716 0.244960 0.620843 0.127351
H10   H     H_    0.163287 0.755039 0.379159 0.126437
H11   H     H_    0.663284 0.744960 0.879156 0.127351
H12   H     H_    0.336712 0.255039 0.120841 0.126437
C37   C     C_R   0.896047 0.128071 0.581266 -0.099380
C38   C     C_R   0.103960 0.871929 0.418741 -0.101229
C39   C     C_R   0.603953 0.628071 0.918734 -0.099380
C40   C     C_R   0.396040 0.371929 0.081259 -0.101229
H13   H     H_    0.900094 0.254444 0.558419 0.153860
H14   H     H_    0.099913 0.745556 0.441589 0.151641
H15   H     H_    0.599906 0.754445 0.941581 0.153860
H16   H     H_    0.400087 0.245556 0.058411 0.151641
C41   C     C_R   0.926606 0.973036 0.574497 -0.018718
C42   C     C_R   0.073402 0.026966 0.425512 -0.017707
C43   C     C_R   0.573394 0.473036 0.925503 -0.018717
C44   C     C_R   0.426598 0.526966 0.074487 -0.017707
C45   C     C_R   0.919393 0.810473 0.605140 -0.039401
C46   C     C_R   0.080613 0.189529 0.394869 -0.040659
C47   C     C_R   0.580607 0.310473 0.894860 -0.039402
C48   C     C_R   0.419386 0.689529 0.105131 -0.040659
C49   C     C_R   0.881829 0.805431 0.639967 -0.167655
C50   C     C_R   0.118175 0.194570 0.360039 -0.165414
C51   C     C_R   0.618171 0.305432 0.860033 -0.167655
C52   C     C_R   0.381825 0.694570 0.139961 -0.165414
H17   H     H_    0.877123 0.680212 0.663262 0.127509
H18   H     H_    0.122881 0.319790 0.336744 0.128126
H19   H     H_    0.622877 0.180212 0.836737 0.127509
H20   H     H_    0.377119 0.819789 0.163256 0.128126
C53   C     C_R   0.851532 0.960913 0.646391 -0.048070
C54   C     C_R   0.148471 0.039086 0.353612 -0.047490
C55   C     C_R   0.648468 0.460914 0.853609 -0.048069
C56   C     C_R   0.351529 0.539086 0.146387 -0.047491
N1    N     N_R   0.982554 0.833936 0.512178 -0.251524
N2    N     N_R   0.017455 0.166065 0.487833 -0.253477
N3    N     N_R   0.517446 0.333936 0.987821 -0.251524
N4    N     N_R   0.482545 0.666065 0.012167 -0.253477
N5    N     N_R   0.016631 0.847153 0.477393 -0.241686
N6    N     N_R   0.983378 0.152848 0.522618 -0.242144
N7    N     N_R   0.483369 0.347153 0.022607 -0.241686
N8    N     N_R   0.516622 0.652848 0.977382 -0.242144
C57   C     C_R   0.034776 0.013671 0.464205 0.513060
C58   C     C_R   0.965233 0.986330 0.535806 0.513280
C59   C     C_R   0.465224 0.513671 0.035795 0.513061
C60   C     C_R   0.534767 0.486330 0.964194 0.513280
S1    S     S_3+6 0.519260 0.277386 0.407159 0.055946
O21   O     O_2   0.527835 0.173090 0.355193 -0.267865
O22   O     O_2   0.472751 0.400972 0.390302 -0.339027
O23   O     O_3   0.572357 0.404616 0.432929 -0.465813
H21   H     H_    0.563173 0.475882 0.465080 0.327270
S2    S     S_3+6 0.480820 0.720455 0.592365 0.009433
O24   O     O_2   0.528472 0.602806 0.610178 -0.355430
O25   O     O_2   0.469747 0.822184 0.643725 -0.298224
O26   O     O_3   0.429567 0.587280 0.564412 -0.502026
H22   H     H_    0.430241 0.485422 0.592268 0.372237
S3    S     S_3+6 0.980740 0.777388 0.092841 0.055946
O27   O     O_2   0.972165 0.673093 0.144806 -0.267865
O28   O     O_2   0.027250 0.900973 0.109698 -0.339026
O29   O     O_3   0.927644 0.904620 0.067070 -0.465813
H23   H     H_    0.936828 0.975881 0.034918 0.327269
S4    S     S_3+6 0.019179 0.220452 0.907636 0.009433
O30   O     O_2   0.971527 0.102807 0.889822 -0.355432
O31   O     O_2   0.030254 0.322180 0.856275 -0.298223
O32   O     O_3   0.070432 0.087274 0.935589 -0.502027
H24   H     H_    0.069757 0.985412 0.907734 0.372236
C61   C     C_1   0.951421 0.649155 0.604282 0.348246
N9    N     N_1   0.977198 0.520007 0.603861 -0.274443
C62   C     C_1   0.048587 0.350848 0.395729 0.353083
N10   N     N_1   0.022810 0.479997 0.396153 -0.267451
C63   C     C_1   0.548579 0.149155 0.895718 0.348246
N11   N     N_1   0.522802 0.020007 0.896139 -0.274443
C64   C     C_1   0.451413 0.850848 0.104271 0.353083
N12   N     N_1   0.477190 0.979997 0.103847 -0.267451

loop_
_geom_bond_atom_site_label_1
_geom_bond_atom_site_label_2
_ccdc_geom_bond_type
O17   V3    S    
H8    C23   S    
C43   C47   A    
C26   C30   S    
O29   H23   S    
C16   C28   S    
C23   C27   S    
O19   V1    S    
O13   V1    S    
O3    C7    A    
C10   H2    S    
C52   H20   S    
C12   C27   S    
O15   V3    S    
S4    O30   D    
C40   C44   A    
S2    O25   D    
C33   C37   A    
C62   N10   T    
O1    C5    A    
C9    C26   S    
C3    C54   S    
O9    V1    S    
O7    V3    S    
C38   C42   A    
C47   C51   A    
O16   V4    S    
C11   C15   S    
O4    C8    A    
C7    C17   S    
C13   S1    S    
C16   S4    S    
O1    V3    S    
C15   S3    S    
O23   H21   S    
O2    V4    S    
O3    V1    S    
S2    O24   D    
C14   C26   S    
C1    O15   A    
C48   C52   A    
C2    O16   A    
O2    C6    A    
C10   C25   S    
O14   V2    S    
C11   H3    S    
C35   C55   A    
S1    O23   S    
N4    N8    A    
O11   C7    A    
O12   C8    A    
C9    C21   S    
O10   V2    S    
C37   C41   A    
C50   H18   S    
O5    V1    S    
C8    C18   S    
N1    N5    A    
C17   C29   T    
C11   C23   S    
C44   C59   S    
C42   C57   S    
C44   C48   A    
S3    O27   D    
C19   C31   T    
C36   H12   S    
C20   C32   T    
C45   C49   A    
O18   V4    S    
S3    O29   S    
N1    C58   A    
C42   C46   A    
C9    C13   S    
N8    C60   A    
C49   C53   A    
N3    C60   A    
S2    O26   S    
O8    V4    S    
O7    C3    A    
C36   C56   A    
C48   C64   S    
O5    C1    A    
C12   C24   S    
C15   C24   S    
C12   C16   S    
O8    C4    A    
C16   C23   S    
C15   C27   S    
O26   H22   S    
O9    C5    A    
O11   V3    S    
C4    C53   S    
C13   C22   S    
O4    V2    S    
O6    V2    S    
H5    C22   S    
C10   C22   S    
C1    C56   S    
C46   C50   A    
C61   N9    T    
C18   C30   T    
C12   H4    S    
O12   V4    S    
O32   H24   S    
S4    O32   S    
C5    C19   S    
C52   C56   A    
C6    C20   S    
S1    O21   D    
C22   C26   S    
N5    C57   A    
C3    O13   A    
C21   C25   S    
C10   C14   S    
N7    C59   A    
C40   H16   S    
S4    O31   D    
O6    C2    A    
N4    C59   A    
C64   N12   T    
C34   C54   A    
C25   C29   S    
C36   C40   A    
C63   N11   T    
C27   C31   S    
C28   C32   S    
C9    H1    S    
O10   C6    A    
O20   V2    S    
C33   C53   A    
C39   C43   A    
C34   H10   S    
C14   C21   S    
C33   H9    S    
H6    C21   S    
N2    N6    A    
C35   H11   S    
C49   H17   S    
C2    C55   S    
C41   C45   A    
S3    O28   D    
C51   H19   S    
C14   S2    S    
C24   C28   S    
C46   C62   S    
C35   C39   A    
C41   C58   S    
N6    C58   A    
C38   H14   S    
C4    O14   A    
C37   H13   S    
C43   C60   S    
C11   C28   S    
N2    C57   A    
N3    N7    A    
C51   C55   A    
C47   C63   S    
C39   H15   S    
C50   C54   A    
C13   C25   S    
C45   C61   S    
H7    C24   S    
S1    O22   D    
C34   C38   A    
