data_mof_unit_9269.cif
_audit_creation_date              2012-12-10T20:42:38-0500
_audit_creation_method            fapswitch 2.2
_symmetry_space_group_name_H-M    P1
_symmetry_Int_Tables_number       1
_space_group_crystal_system       triclinic
_cell_length_a                    8.883717
_cell_length_b                    10.741856
_cell_length_c                    9.908854
_cell_angle_alpha                 90.260646
_cell_angle_beta                  90.592605
_cell_angle_gamma                 91.43852
_cell_volume                      945.218734965

loop_
_atom_site_label
_atom_site_type_symbol
_atom_type_description
_atom_site_fract_x
_atom_site_fract_y
_atom_site_fract_z
_atom_type_partial_charge
C1    C     C_R   0.497651 0.260561 0.499543 0.883301
C2    C     C_R   0.534238 0.938941 0.375505 0.429061
C3    C     C_R   0.518091 0.872539 0.498350 -0.211618
C4    C     C_R   0.486249 0.936121 0.616993 -0.009556
C5    C     C_3   0.561381 0.932930 0.753381 -0.445964
C6    C     C_3   0.554844 0.074512 0.753655 0.343253
C7    C     C_R   0.435778 0.402940 0.068999 0.091737
C8    C     C_R   0.579138 0.587378 0.074387 -0.068683
C9    C     C_R   0.581499 0.587388 0.931444 0.456458
C10   C     C_R   0.437660 0.402174 0.927405 0.101053
C11   C     C_3   0.280808 0.351337 0.916629 -0.539548
C12   C     C_R   0.218879 0.499671 0.499657 0.940749
C13   C     C_3   0.277137 0.352289 0.070637 0.332709
C14   C     C_R   0.509902 0.739775 0.499875 0.879818
C15   C     C_R   0.781116 0.499924 0.500560 0.912079
C16   C     C_1   0.065479 0.499849 0.500011 -0.215029
C17   C     C_1   0.934517 0.499892 0.501276 -0.218398
C18   C     C_R   0.480719 0.062908 0.616739 -0.023559
C19   C     C_R   0.494758 0.128922 0.497454 -0.199718
C20   C     C_R   0.513365 0.065757 0.375283 -0.236460
H1    H     H_    0.526034 0.115397 0.280893 0.192195
H2    H     H_    0.275766 0.255880 0.873084 0.149799
H3    H     H_    0.271396 0.257762 0.116928 0.055107
H4    H     H_    0.486858 0.889154 0.830140 0.215312
H5    H     H_    0.676409 0.895064 0.751021 0.225579
H6    H     H_    0.474888 0.108731 0.830010 0.101606
H7    H     H_    0.642458 0.657997 0.130168 0.176901
H8    H     H_    0.202875 0.417607 0.868234 0.241053
N1    N     N_R   0.499010 0.499140 0.142800 -0.132133
N2    N     N_R   0.499010 0.499180 0.857150 -0.146630
O1    O     O_R   0.500020 0.316790 0.614690 -0.594952
O2    O     O_R   0.500000 0.316760 0.385350 -0.643450
O3    O     O_R   0.285350 0.500020 0.614650 -0.614632
O4    O     O_R   0.285340 0.499980 0.385310 -0.571996
O5    O     O_R   0.500000 0.683240 0.614650 -0.618671
O6    O     O_R   0.499980 0.683210 0.385310 -0.592430
O7    O     O_R   0.714660 0.500020 0.614690 -0.634886
O8    O     O_R   0.714650 0.499980 0.385350 -0.645759
Zn1   Zn    Zn3+2 0.500010 0.500020 0.653130 0.961067
Zn2   Zn    Zn3+2 0.499990 0.499980 0.346870 0.961342
O9    O     O_3   0.174806 0.440591 0.118904 -0.589320
C21   C     C_3   0.044488 0.380288 0.171187 0.131221
H9    H     H_    0.979606 0.452120 0.224295 0.186520
H10   H     H_    0.073923 0.309158 0.247986 0.116388
C22   C     C_3   0.942207 0.323568 0.059680 -0.407435
H11   H     H_    0.911115 0.397311 0.986900 0.240373
H12   H     H_    0.002144 0.249861 0.004587 0.218559
C23   C     C_3   0.799242 0.265155 0.118857 -0.900916
H13   H     H_    0.827784 0.187502 0.187451 0.261190
H14   H     H_    0.725489 0.227972 0.036192 0.290451
H15   H     H_    0.736683 0.335689 0.176147 0.275653
O10   O     O_3   0.579427 0.885285 0.256719 -0.747312
H16   H     H_    0.663770 0.830279 0.279771 0.326647
O11   O     O_3   0.697421 0.138615 0.766591 -0.622104
C24   C     C_3   0.798065 0.123908 0.657785 0.162900
H17   H     H_    0.770567 0.190071 0.576295 0.139140
H18   H     H_    0.796457 0.027851 0.615843 0.121938
C25   C     C_3   0.957680 0.157261 0.707113 -0.350598
H19   H     H_    0.960564 0.253896 0.747953 0.231219
H20   H     H_    0.990107 0.092920 0.789390 0.226226
C26   C     C_3   0.071543 0.149225 0.593254 -0.972659
H21   H     H_    0.076530 0.052137 0.554803 0.271469
H22   H     H_    0.184738 0.178471 0.631853 0.267149
H23   H     H_    0.040456 0.211885 0.509119 0.254484
O12   O     O_3   0.669552 0.677910 0.871914 -0.794307
H24   H     H_    0.687265 0.652683 0.778347 0.377015

loop_
_geom_bond_atom_site_label_1
_geom_bond_atom_site_label_2
_ccdc_geom_bond_type
C5    H5    S    
C26   H23   S    
O5    Zn1   S    
C24   H17   S    
C15   O8    A    
C15   C17   S    
C7    N1    A    
C7    C10   A    
O9    C21   S    
C10   N2    A    
C11   H2    S    
C19   C20   A    
C2    O10   S    
O6    Zn2   S    
C4    C18   A    
C25   C26   S    
C13   O9    S    
C2    C3    A    
C12   O3    A    
O7    Zn1   S    
O3    Zn1   S    
C22   H11   S    
O10   H16   S    
O8    Zn2   S    
C5    C6    S    
C11   C13   S    
C23   H15   S    
C6    H6    S    
C3    C14   S    
C21   H10   S    
C11   H8    S    
C6    O11   S    
O4    Zn2   S    
C8    N1    A    
C9    N2    A    
N1    Zn2   S    
C23   H14   S    
C23   H13   S    
O1    Zn1   S    
N2    Zn1   S    
C18   C19   A    
C25   H20   S    
C24   H18   S    
C14   O6    A    
C26   H21   S    
C6    C18   S    
C9    O12   S    
C22   C23   S    
C1    C19   S    
C21   H9    S    
C2    C20   A    
C3    C4    A    
C1    O1    A    
O2    Zn2   S    
C20   H1    S    
C13   H3    S    
C24   C25   S    
O12   H24   S    
C10   C11   S    
C22   H12   S    
C14   O5    A    
C26   H22   S    
C8    H7    S    
O11   C24   S    
C5    H4    S    
C7    C13   S    
C25   H19   S    
C4    C5    S    
C12   O4    A    
C1    O2    A    
C15   O7    A    
C12   C16   S    
C16   C17   T    
C8    C9    A    
C21   C22   S    
