data_mof_unit_54469.cif
_audit_creation_date              2012-12-10T17:35:02-0500
_audit_creation_method            fapswitch 2.2
_symmetry_space_group_name_H-M    P1
_symmetry_Int_Tables_number       1
_space_group_crystal_system       triclinic
_cell_length_a                    12.328265
_cell_length_b                    13.153617
_cell_length_c                    13.852672
_cell_angle_alpha                 105.124849
_cell_angle_beta                  73.992417
_cell_angle_gamma                 116.763813
_cell_volume                      1903.31549713

loop_
_atom_site_label
_atom_site_type_symbol
_atom_type_description
_atom_site_fract_x
_atom_site_fract_y
_atom_site_fract_z
_atom_type_partial_charge
C1    C     C_R   0.144303 0.713860 0.511289 0.760354
C2    C     C_1   0.972549 0.501688 0.791003 -0.172284
C3    C     C_R   0.731628 0.981839 0.349954 -0.180608
C4    C     C_R   0.775175 0.164773 0.461545 -0.038879
C5    C     C_R   0.181425 0.913231 0.595235 -0.208549
C6    C     C_R   0.259617 0.028000 0.618650 -0.152732
C7    C     C_R   0.384569 0.066862 0.575695 -0.174577
C8    C     C_R   0.433565 0.991294 0.505363 0.078553
C9    C     C_R   0.350521 0.878122 0.472538 0.024649
C10   C     C_R   0.562039 0.024348 0.466414 0.018408
C11   C     C_R   0.604205 0.949338 0.387442 0.051325
C12   C     C_R   0.984002 0.503556 0.686292 0.810396
C13   C     C_R   0.518226 0.844389 0.345737 0.417957
C14   C     C_R   0.393671 0.809102 0.389288 -0.277052
C15   C     C_R   0.650249 0.129754 0.504579 -0.220392
C16   C     C_R   0.816519 0.089645 0.385945 -0.238671
C17   C     C_R   0.225686 0.837178 0.523239 -0.071850
C18   C     C_R   0.660746 0.698653 0.640396 0.368132
C19   C     C_R   0.247926 0.346948 0.367898 -0.033838
C20   C     C_R   0.341966 0.306932 0.343639 0.410512
C21   C     C_R   0.443091 0.367330 0.393304 -0.233868
C22   C     C_R   0.449319 0.463399 0.470217 -0.052136
C23   C     C_R   0.856189 0.286216 0.484810 0.793578
C24   C     C_R   0.348030 0.495790 0.495177 0.220262
C25   C     C_R   0.552152 0.528597 0.522666 -0.116884
C26   C     C_R   0.555449 0.629699 0.594041 -0.044446
C27   C     C_R   0.452770 0.658007 0.619256 0.389524
C28   C     C_R   0.350439 0.588990 0.573036 -0.249219
C29   C     C_R   0.653495 0.498519 0.506175 0.028732
C30   C     C_R   0.753449 0.660043 0.623693 -0.029863
C31   C     C_R   0.016418 0.496978 0.313729 0.811350
C32   C     C_1   0.028710 0.499564 0.208999 -0.178171
C33   C     C_2   0.049815 0.506249 0.016279 -0.178908
C34   C     C_2   0.952691 0.495892 0.983690 -0.156886
C35   C     C_1   0.962652 0.499077 0.879021 -0.007884
C36   C     C_1   0.039337 0.502582 0.120936 0.013907
Cu1   Cu    Cu3+1 0.899780 0.525060 0.522890 0.933164
Cu2   Cu    Cu3+1 0.100220 0.474940 0.477110 0.925780
H1    H     H_    0.865289 0.484721 0.035301 0.166489
H2    H     H_    0.331100 0.727744 0.354500 0.182935
H3    H     H_    0.831960 0.709673 0.661543 0.139582
H4    H     H_    0.659065 0.424358 0.452917 0.137608
H5    H     H_    0.172311 0.307016 0.326815 0.130124
H6    H     H_    0.515842 0.337084 0.369198 0.156314
H7    H     H_    0.274765 0.613234 0.600460 0.210734
H8    H     H_    0.137295 0.517547 0.964726 0.148422
H9    H     H_    0.913491 0.116080 0.351755 0.142132
H10   H     H_    0.765763 0.925750 0.290373 0.168193
H11   H     H_    0.624531 0.188177 0.566982 0.140736
H12   H     H_    0.086497 0.883305 0.635106 0.142579
H13   H     H_    0.439563 0.157003 0.597743 0.126944
H14   H     H_    0.223931 0.086557 0.672894 0.141697
N1    N     N_R   0.748810 0.563010 0.557590 -0.206387
N2    N     N_R   0.250540 0.437620 0.443020 -0.211262
O1    O     O_R   0.025040 0.682470 0.528790 -0.588287
O2    O     O_R   0.194310 0.640150 0.490130 -0.590743
O3    O     O_R   0.903380 0.524130 0.659910 -0.566061
O4    O     O_R   0.072660 0.481800 0.621240 -0.592876
O5    O     O_R   0.805690 0.359850 0.509870 -0.585032
O6    O     O_R   0.974960 0.317530 0.471210 -0.584570
O7    O     O_R   0.927340 0.518200 0.378760 -0.565687
O8    O     O_R   0.096620 0.475870 0.340090 -0.579501
O9    O     O_3   0.456703 0.760536 0.681246 -0.589584
C37   C     C_3   0.371839 0.740508 0.774004 0.066800
H15   H     H_    0.426266 0.772620 0.835682 0.194354
H16   H     H_    0.309354 0.647922 0.778653 0.108980
C38   C     C_3   0.293592 0.809044 0.791911 -0.335309
H17   H     H_    0.354832 0.899516 0.780199 0.241243
H18   H     H_    0.230266 0.770285 0.736104 0.204703
C39   C     C_3   0.217855 0.809895 0.899526 -0.928111
H19   H     H_    0.157284 0.720533 0.913913 0.267819
H20   H     H_    0.159204 0.856976 0.908893 0.258786
H21   H     H_    0.279930 0.853759 0.956287 0.257993
O10   O     O_3   0.671774 0.800438 0.706587 -0.601693
C40   C     C_3   0.728798 0.893975 0.651211 0.140696
H22   H     H_    0.692172 0.959674 0.693423 0.185032
H23   H     H_    0.705680 0.870170 0.573562 0.145812
C41   C     C_3   0.869323 0.948461 0.644502 -0.435720
H24   H     H_    0.890990 0.964738 0.721301 0.232302
H25   H     H_    0.908918 0.888336 0.593290 0.210034
C42   C     C_3   0.929967 0.061894 0.602722 -0.874755
H26   H     H_    0.913359 0.046648 0.524478 0.266345
H27   H     H_    0.031208 0.099377 0.600195 0.254278
H28   H     H_    0.892573 0.124604 0.651995 0.254497
O11   O     O_3   0.345687 0.216931 0.265230 -0.611201
C43   C     C_3   0.234293 0.115984 0.272710 0.044760
H29   H     H_    0.242418 0.053725 0.202329 0.177751
H30   H     H_    0.152343 0.130763 0.273245 0.111708
C44   C     C_3   0.213855 0.059474 0.364029 -0.360261
H31   H     H_    0.296916 0.045167 0.361550 0.235451
H32   H     H_    0.198892 0.117011 0.436136 0.210960
C45   C     C_3   0.101316 0.944066 0.362790 -0.892338
H33   H     H_    0.017745 0.955874 0.362319 0.251428
H34   H     H_    0.084481 0.907124 0.431533 0.269974
H35   H     H_    0.117138 0.882219 0.294520 0.251967
O12   O     O_3   0.555609 0.771194 0.266339 -0.611752
C46   C     C_3   0.560968 0.798566 0.172283 0.042663
H36   H     H_    0.634447 0.776891 0.116198 0.173797
H37   H     H_    0.588044 0.892364 0.174699 0.126824
C47   C     C_3   0.437898 0.726347 0.134697 -0.337708
H38   H     H_    0.409112 0.633801 0.137286 0.238310
H39   H     H_    0.365278 0.753973 0.184611 0.202877
C48   C     C_3   0.448319 0.740368 0.026211 -0.924965
H40   H     H_    0.475665 0.832202 0.022155 0.258083
H41   H     H_    0.357412 0.688084 0.002067 0.247729
H42   H     H_    0.517726 0.710342 0.973186 0.266474

loop_
_geom_bond_atom_site_label_1
_geom_bond_atom_site_label_2
_ccdc_geom_bond_type
C2    C35   T    
C29   H4    S    
C31   O7    A    
C19   C20   A    
C18   C26   A    
C9    C14   A    
C2    C12   S    
C42   H28   S    
C42   H26   S    
C7    C8    A    
O11   C43   S    
C23   O5    A    
C26   C27   A    
C32   C36   T    
C1    O2    A    
C10   C15   A    
C5    C6    A    
C41   H25   S    
C5    C17   A    
C24   N2    A    
C3    H10   S    
C33   C36   S    
C34   C35   S    
C45   H33   S    
C46   H37   S    
Cu2   O4    S    
C8    C9    A    
C22   C25   A    
C30   H3    S    
C39   H19   S    
C18   C30   A    
C44   H32   S    
C12   O4    A    
C18   O10   S    
C21   C22   A    
O12   C46   S    
C33   H8    S    
C31   O8    A    
C16   H9    S    
C47   H39   S    
C42   H27   S    
C19   H5    S    
C46   H36   S    
C25   C29   A    
C23   O6    A    
C30   N1    A    
C28   H7    S    
O10   C40   S    
C13   O12   S    
C34   H1    S    
C37   C38   S    
C4    C23   S    
C43   H29   S    
C25   C26   A    
C14   H2    S    
C45   H35   S    
C38   H17   S    
C38   H18   S    
C37   H16   S    
C4    C16   A    
C40   H22   S    
Cu1   Cu2   S    
C21   H6    S    
C31   C32   S    
Cu2   N2    S    
C20   O11   S    
C39   H21   S    
C45   H34   S    
C33   C34   D    
C48   H41   S    
C44   C45   S    
C40   H23   S    
Cu1   O5    S    
C27   O9    S    
Cu2   O6    S    
C12   O3    A    
C19   N2    A    
C9    C17   A    
C22   C24   A    
C5    H12   S    
C48   H40   S    
C46   C47   S    
C41   H24   S    
C24   C28   A    
C43   C44   S    
Cu1   O7    S    
C6    C7    A    
C1    C17   S    
C38   C39   S    
C37   H15   S    
C4    C15   A    
C1    O1    A    
Cu1   N1    S    
C11   C13   A    
C41   C42   S    
C29   N1    A    
C47   H38   S    
C48   H42   S    
C43   H30   S    
C15   H11   S    
C47   C48   S    
C40   C41   S    
C3    C11   A    
C10   C11   A    
C7    H13   S    
O9    C37   S    
Cu1   O1    S    
Cu2   O2    S    
C20   C21   A    
C8    C10   A    
C27   C28   A    
C39   H20   S    
C6    H14   S    
C44   H31   S    
C13   C14   A    
Cu1   O3    S    
C3    C16   A    
Cu2   O8    S    
