data_mof_unit_40416.cif
_audit_creation_date              2012-12-10T19:03:42-0500
_audit_creation_method            fapswitch 2.2
_symmetry_space_group_name_H-M    P1
_symmetry_Int_Tables_number       1
_space_group_crystal_system       triclinic
_cell_length_a                    15.870743
_cell_length_b                    10.815908
_cell_length_c                    9.551003
_cell_angle_alpha                 89.875237
_cell_angle_beta                  90.178447
_cell_angle_gamma                 90.150221
_cell_volume                      1639.47426559

loop_
_atom_site_label
_atom_site_type_symbol
_atom_type_description
_atom_site_fract_x
_atom_site_fract_y
_atom_site_fract_z
_atom_type_partial_charge
C1    C     C_R   0.498017 0.262514 0.500184 0.814392
C2    C     C_R   0.488397 0.129860 0.501055 -0.140200
C3    C     C_R   0.461665 0.066942 0.380511 -0.277639
C4    C     C_R   0.340251 0.500175 0.499846 0.816055
C5    C     C_R   0.461316 0.937274 0.377881 0.222750
C6    C     C_R   0.487149 0.871178 0.499107 -0.160130
C7    C     C_R   0.499264 0.936460 0.623536 0.086496
C8    C     C_3   0.568032 0.928921 0.730381 -0.476591
C9    C     C_3   0.569774 0.069268 0.729627 -0.451044
C10   C     C_R   0.573784 0.508988 0.074271 0.215595
C11   C     C_R   0.427976 0.479528 0.073860 -0.076401
C12   C     C_3   0.951669 0.440012 0.641620 -0.029130
C13   C     C_R   0.427976 0.479464 0.925511 -0.090041
C14   C     C_R   0.573915 0.509323 0.926700 0.199111
C15   C     C_3   0.634934 0.615079 0.923952 0.040122
C16   C     C_R   0.497159 0.737762 0.499574 0.820633
C17   C     C_3   0.635965 0.611861 0.083278 -0.546437
C18   C     C_R   0.659689 0.499621 0.500077 0.826318
C19   C     C_3   0.049887 0.433939 0.632763 -0.374793
C20   C     C_3   0.049643 0.434480 0.366895 -0.538607
C21   C     C_3   0.953304 0.415097 0.379160 0.144419
C22   C     C_1   0.749157 0.498363 0.500148 -0.182404
C23   C     C_3   0.916874 0.497334 0.500931 0.109852
C24   C     C_3   0.082920 0.501689 0.499675 0.132231
C25   C     C_3   0.928155 0.273545 0.813832 -0.725882
C26   C     C_3   0.887874 0.818915 0.414797 0.027978
C27   C     C_3   0.792208 0.812909 0.434777 -0.336810
C28   C     C_3   0.754099 0.941748 0.448129 -0.943339
C29   C     C_3   0.484250 0.897405 0.131096 -0.677236
C30   C     C_3   0.775673 0.681005 0.854300 -0.715773
C31   C     C_3   0.898591 0.530348 0.165095 -0.572590
C32   C     C_3   0.105125 0.822504 0.586253 0.037737
C33   C     C_3   0.199244 0.826169 0.551170 -0.332314
C34   C     C_3   0.950656 0.634546 0.498736 0.244700
C35   C     C_3   0.230334 0.958768 0.532328 -0.938086
C36   C     C_3   0.049084 0.636375 0.497682 0.263397
C37   C     C_1   0.824620 0.497732 0.500103 -0.021665
C38   C     C_1   0.175129 0.501317 0.499250 -0.019268
C39   C     C_1   0.250655 0.500706 0.499379 -0.206757
C40   C     C_R   0.500304 0.063319 0.624225 0.129593
Cu1   Cu    Cu3+1 0.500000 0.499980 0.640670 0.943944
Cu2   Cu    Cu3+1 0.500000 0.500020 0.359330 0.949064
H1    H     H_    0.077653 0.475850 0.728768 0.186425
H2    H     H_    0.369228 0.463927 0.871001 0.150248
H3    H     H_    0.607251 0.700011 0.877724 0.156554
H4    H     H_    0.696522 0.580711 0.129978 0.200561
H5    H     H_    0.609298 0.695947 0.132016 0.200781
H6    H     H_    0.065980 0.488613 0.271791 0.184273
H7    H     H_    0.080867 0.342912 0.355807 0.167738
H8    H     H_    0.945796 0.317602 0.414865 0.140690
H9    H     H_    0.071461 0.679301 0.397716 0.099146
H10   H     H_    0.928928 0.677248 0.598765 0.082644
H11   H     H_    0.857000 0.300707 0.635371 0.261392
H12   H     H_    0.934322 0.502269 0.729633 0.146126
H13   H     H_    0.908439 0.175150 0.820712 0.225388
H14   H     H_    0.888579 0.328702 0.886144 0.219911
H15   H     H_    0.995167 0.280095 0.846761 0.234959
H16   H     H_    0.901763 0.880838 0.324809 0.164897
H17   H     H_    0.918749 0.861738 0.507743 0.121395
H18   H     H_    0.762886 0.765321 0.343710 0.224419
H19   H     H_    0.777532 0.759278 0.530884 0.210623
H20   H     H_    0.778924 0.988637 0.543094 0.254107
H21   H     H_    0.684535 0.934103 0.456685 0.260286
H22   H     H_    0.769029 0.998418 0.354285 0.258158
H23   H     H_    0.443981 0.117876 0.287232 0.174650
H24   H     H_    0.370560 0.883343 0.236508 0.244267
H25   H     H_    0.468670 0.989136 0.085441 0.206597
H26   H     H_    0.470303 0.825037 0.052013 0.223336
H27   H     H_    0.552573 0.894530 0.156524 0.229002
H28   H     H_    0.740548 0.499080 0.898686 0.253406
H29   H     H_    0.832212 0.649449 0.797080 0.209802
H30   H     H_    0.794921 0.710848 0.960964 0.229006
H31   H     H_    0.748373 0.760695 0.796535 0.228861
H32   H     H_    0.924856 0.343209 0.181585 0.235589
H33   H     H_    0.881350 0.507750 0.055303 0.177586
H34   H     H_    0.544992 0.890381 0.831019 0.193413
H35   H     H_    0.957504 0.585552 0.162347 0.241091
H36   H     H_    0.845284 0.583875 0.208148 0.263296
H37   H     H_    0.094198 0.879441 0.681113 0.167673
H38   H     H_    0.067528 0.865638 0.500513 0.117943
H39   H     H_    0.235669 0.781569 0.637036 0.232509
H40   H     H_    0.210859 0.774171 0.452947 0.203255
H41   H     H_    0.196231 0.004264 0.444584 0.251331
H42   H     H_    0.298627 0.958308 0.508196 0.260757
H43   H     H_    0.220602 0.012552 0.629882 0.256029
H44   H     H_    0.626520 0.886121 0.689371 0.195887
H45   H     H_    0.548785 0.110470 0.830149 0.198763
H46   H     H_    0.628960 0.108638 0.685928 0.193130
H47   H     H_    0.369247 0.464143 0.127981 0.143686
H48   H     H_    0.071390 0.336054 0.629533 0.190858
N1    N     N_R   0.500530 0.500930 0.147930 -0.172189
N2    N     N_R   0.500530 0.500890 0.852020 -0.199137
N3    N     N_2   0.917230 0.317157 0.671469 -0.420106
N4    N     N_2   0.434302 0.874372 0.254972 -0.393716
N5    N     N_2   0.715206 0.581114 0.862798 -0.383084
N6    N     N_2   0.909275 0.417322 0.244243 -0.432075
O1    O     O_R   0.500000 0.319640 0.618810 -0.577575
O2    O     O_3   0.079594 0.700092 0.617874 -0.633601
O3    O     O_R   0.500010 0.319680 0.381230 -0.583271
O4    O     O_R   0.379430 0.499990 0.618840 -0.586272
O5    O     O_R   0.379440 0.500030 0.381260 -0.587516
O6    O     O_R   0.499990 0.680320 0.618770 -0.584945
O7    O     O_R   0.500000 0.680360 0.381190 -0.540089
O8    O     O_R   0.620560 0.499970 0.618740 -0.554509
O9    O     O_R   0.620570 0.500010 0.381160 -0.579192
O10   O     O_3   0.919611 0.700378 0.380908 -0.636415

loop_
_geom_bond_atom_site_label_1
_geom_bond_atom_site_label_2
_ccdc_geom_bond_type
C25   N3    S    
C11   C13   A    
Cu1   Cu2   S    
C25   H14   S    
Cu2   O7    S    
C26   O10   S    
C30   H29   S    
C7    C8    S    
C12   C23   S    
C26   C27   S    
C30   N5    S    
Cu2   N1    S    
C2    C3    A    
C27   H18   S    
C9    H46   S    
C15   N5    S    
C29   N4    S    
C10   C17   S    
C31   N6    S    
C8    H34   S    
Cu1   O6    S    
C1    C2    S    
C27   H19   S    
C29   H25   S    
C20   C24   S    
C8    C9    S    
C24   C38   S    
C7    C40   A    
C33   H40   S    
C34   C36   S    
H24   N4    S    
C25   H13   S    
C1    O3    A    
C3    H23   S    
C25   H15   S    
C21   H8    S    
C19   H1    S    
C31   H35   S    
C29   H27   S    
C38   C39   T    
H11   N3    S    
C34   O10   S    
H32   N6    S    
C17   H4    S    
C10   C14   A    
C1    O1    A    
C30   H31   S    
C35   H41   S    
C23   C37   S    
C22   C37   T    
C9    C40   S    
C20   H7    S    
C11   N1    A    
C32   H38   S    
C29   H26   S    
C11   H47   S    
C16   O7    A    
C31   H33   S    
C4    C39   S    
C23   C34   S    
C4    O5    A    
Cu1   O4    S    
C18   O8    A    
C26   H16   S    
C14   N2    A    
C20   H6    S    
C36   H9    S    
C28   H22   S    
C16   O6    A    
C10   N1    A    
C21   C23   S    
C13   N2    A    
Cu1   O1    S    
C12   N3    S    
C15   H3    S    
Cu2   O5    S    
C31   H36   S    
C26   H17   S    
C15   C17   S    
C18   C22   S    
C17   H5    S    
C3    C5    A    
C30   H30   S    
C35   H42   S    
C6    C7    A    
C21   N6    S    
C5    N4    S    
C34   H10   S    
C24   C36   S    
Cu1   O8    S    
C32   C33   S    
C4    O4    A    
C19   C24   S    
C18   O9    A    
C19   H48   S    
Cu2   O3    S    
C9    H45   S    
C32   H37   S    
C35   H43   S    
C5    C6    A    
C12   C19   S    
C33   C35   S    
C32   O2    S    
H28   N5    S    
C8    H44   S    
Cu2   O9    S    
C6    C16   S    
C28   H21   S    
C2    C40   A    
Cu1   N2    S    
C20   C21   S    
C27   C28   S    
C14   C15   S    
C36   O2    S    
C33   H39   S    
C13   H2    S    
C12   H12   S    
C28   H20   S    
