data_mof_unit_59404.cif
_audit_creation_date              2012-12-10T18:52:17-0500
_audit_creation_method            fapswitch 2.2
_symmetry_space_group_name_H-M    P1
_symmetry_Int_Tables_number       1
_space_group_crystal_system       triclinic
_cell_length_a                    15.701036
_cell_length_b                    10.686563
_cell_length_c                    9.873557
_cell_angle_alpha                 90.812996
_cell_angle_beta                  91.786423
_cell_angle_gamma                 91.637495
_cell_volume                      1655.01527075

loop_
_atom_site_label
_atom_site_type_symbol
_atom_type_description
_atom_site_fract_x
_atom_site_fract_y
_atom_site_fract_z
_atom_type_partial_charge
C1    C     C_R   0.497910 0.260160 0.499081 0.888373
C2    C     C_R   0.466302 0.399575 0.069040 0.550223
C3    C     C_R   0.338040 0.494455 0.497774 0.884684
C4    C     C_R   0.662082 0.505173 0.502141 0.884572
C5    C     C_3   0.965458 0.420608 0.577606 0.365974
C6    C     C_3   0.035900 0.583420 0.409677 0.289514
C7    C     C_3   0.014823 0.384533 0.450853 0.307807
C8    C     C_3   0.986719 0.619661 0.538384 0.264423
C9    C     C_1   0.249350 0.481162 0.492040 -0.188753
C10   C     C_1   0.750952 0.518681 0.506723 -0.216519
C11   C     C_3   0.034573 0.519991 0.618787 0.359484
C12   C     C_R   0.502716 0.739796 0.500963 0.882614
C13   C     C_3   0.966474 0.483983 0.367717 0.253212
C14   C     C_3   0.083535 0.483162 0.492025 -0.200684
C15   C     C_3   0.916907 0.520050 0.496563 -0.256487
C16   C     C_1   0.174020 0.474990 0.489105 0.124285
C17   C     C_1   0.826323 0.525683 0.505482 0.068298
C18   C     C_R   0.564936 0.069329 0.438034 -0.276734
C19   C     C_R   0.435967 0.930543 0.561976 -0.224169
C20   C     C_3   0.975110 0.214514 0.313102 0.150170
C21   C     C_3   0.970992 0.072601 0.311786 -0.416792
C22   C     C_3   0.902290 0.023282 0.210576 -0.998686
C23   C     C_R   0.570012 0.940472 0.441195 0.204407
C24   C     C_3   0.032529 0.826567 0.573335 0.110716
C25   C     C_3   0.027553 0.931808 0.678771 -0.390677
C26   C     C_3   0.096796 0.032622 0.660347 -0.917042
C27   C     C_3   0.879626 0.246029 0.620113 0.109654
C28   C     C_3   0.820260 0.193099 0.726129 -0.337832
C29   C     C_3   0.763235 0.086984 0.666095 -0.969801
C30   C     C_3   0.026205 0.732338 0.239797 0.125838
C31   C     C_3   0.034432 0.695548 0.090757 -0.287041
C32   C     C_3   0.968392 0.760385 0.001460 -0.996596
C33   C     C_3   0.861862 0.501118 0.190622 0.090523
C34   C     C_R   0.431244 0.059417 0.559625 0.191553
C35   C     C_3   0.798315 0.389532 0.181842 -0.369375
C36   C     C_3   0.716216 0.423224 0.106267 -0.922825
C37   C     C_3   0.135480 0.609896 0.774507 0.078046
C38   C     C_3   0.201274 0.552961 0.871171 -0.317482
C39   C     C_3   0.275891 0.644406 0.903521 -0.923717
C40   C     C_3   0.646784 0.878358 0.385013 -0.920880
C41   C     C_3   0.355112 0.121593 0.617555 -0.897986
C42   C     C_3   0.648376 0.744412 0.910395 0.073981
C43   C     C_3   0.641737 0.877813 0.966435 -0.354896
C44   C     C_3   0.727829 0.928869 0.021150 -0.992616
C45   C     C_R   0.504061 0.872361 0.502456 -0.055130
C46   C     C_3   0.455291 0.183276 0.092638 0.066270
C47   C     C_3   0.379690 0.106770 0.029952 -0.360089
C48   C     C_3   0.407711 0.981868 0.971890 -0.923889
C49   C     C_R   0.496910 0.127544 0.497782 -0.064218
C50   C     C_R   0.533337 0.599512 0.075181 -0.327190
C51   C     C_R   0.464365 0.402281 0.924489 -0.305904
C52   C     C_R   0.536273 0.598472 0.930700 0.561545
H1    H     H_    0.614707 0.125084 0.391758 0.140438
H2    H     H_    0.896811 0.920041 0.215822 0.270784
H3    H     H_    0.918123 0.050431 0.105943 0.276837
H4    H     H_    0.024754 0.866932 0.471906 0.147021
H5    H     H_    0.096823 0.786346 0.581222 0.129645
H6    H     H_    0.963888 0.974107 0.671035 0.230461
H7    H     H_    0.036021 0.893000 0.781396 0.227788
H8    H     H_    0.093415 0.069842 0.556120 0.300349
H9    H     H_    0.160524 0.992918 0.679412 0.249125
H10   H     H_    0.088368 0.110869 0.733476 0.287299
H11   H     H_    0.921654 0.170982 0.586824 0.171380
H12   H     H_    0.385841 0.874794 0.607396 0.145515
H13   H     H_    0.839625 0.277125 0.532600 0.108986
H14   H     H_    0.858557 0.157389 0.813205 0.227591
H15   H     H_    0.779538 0.268765 0.763775 0.237171
H16   H     H_    0.725987 0.120424 0.577132 0.267799
H17   H     H_    0.717997 0.054190 0.742835 0.278889
H18   H     H_    0.802202 0.007212 0.634295 0.271575
H19   H     H_    0.047261 0.831606 0.249739 0.138576
H20   H     H_    0.958360 0.726549 0.269711 0.126689
H21   H     H_    0.099338 0.723292 0.058616 0.207455
H22   H     H_    0.026690 0.592840 0.076321 0.282116
H23   H     H_    0.558036 0.679476 0.133215 0.166100
H24   H     H_    0.903209 0.745715 0.039644 0.255131
H25   H     H_    0.968912 0.721582 0.896702 0.310209
H26   H     H_    0.983271 0.862441 0.999792 0.264641
H27   H     H_    0.866715 0.538768 0.086994 0.189147
H28   H     H_    0.838775 0.579176 0.253717 0.126281
H29   H     H_    0.826959 0.310340 0.126927 0.230868
H30   H     H_    0.783076 0.358186 0.285149 0.202565
H31   H     H_    0.690218 0.508779 0.151893 0.276751
H32   H     H_    0.668379 0.345099 0.112560 0.257501
H33   H     H_    0.728598 0.440477 0.997841 0.252380
H34   H     H_    0.434194 0.326444 0.866125 0.166887
H35   H     H_    0.112506 0.697636 0.819744 0.157553
H36   H     H_    0.168162 0.635438 0.680603 0.112812
H37   H     H_    0.170599 0.526666 0.967024 0.238053
H38   H     H_    0.225874 0.466695 0.823903 0.233842
H39   H     H_    0.308667 0.670311 0.809388 0.273748
H40   H     H_    0.322452 0.599993 0.973362 0.275033
H41   H     H_    0.252971 0.730409 0.953357 0.250956
H42   H     H_    0.678036 0.821843 0.464869 0.239087
H43   H     H_    0.627313 0.816650 0.297777 0.244776
H44   H     H_    0.694608 0.948174 0.349601 0.240983
H45   H     H_    0.995933 0.246025 0.212174 0.210775
H46   H     H_    0.375593 0.184486 0.703100 0.244509
H47   H     H_    0.322379 0.176713 0.538004 0.240981
H48   H     H_    0.308547 0.051898 0.656421 0.233631
H49   H     H_    0.691576 0.746680 0.823348 0.179012
H50   H     H_    0.678979 0.683249 0.987272 0.106993
H51   H     H_    0.617893 0.939416 0.884727 0.231130
H52   H     H_    0.595569 0.879384 0.049271 0.218608
H53   H     H_    0.750498 0.871073 0.106876 0.270953
H54   H     H_    0.721211 0.026720 0.057813 0.270341
H55   H     H_    0.775668 0.928029 0.940617 0.283065
H56   H     H_    0.909522 0.245529 0.331590 0.127703
H57   H     H_    0.479695 0.132777 0.182643 0.180919
H58   H     H_    0.509104 0.187496 0.021331 0.109994
H59   H     H_    0.331999 0.088798 0.108784 0.236685
H60   H     H_    0.348394 0.160443 0.947883 0.217929
H61   H     H_    0.454812 0.997611 0.891768 0.275101
H62   H     H_    0.351577 0.929624 0.926157 0.265049
H63   H     H_    0.436461 0.924429 0.053308 0.266937
H64   H     H_    0.034168 0.037539 0.284926 0.224363
H65   H     H_    0.954548 0.039455 0.413630 0.226111
H66   H     H_    0.839501 0.061342 0.235695 0.265955
N1    N     N_R   0.499980 0.499970 0.857200 -0.125130
N2    N     N_R   0.500020 0.500030 0.142800 -0.124694
O1    O     O_R   0.499990 0.316750 0.614620 -0.625773
O2    O     O_3   0.965812 0.737807 0.591900 -0.621634
O3    O     O_3   0.930208 0.344520 0.678893 -0.584673
O4    O     O_3   0.081805 0.662322 0.322213 -0.633753
O5    O     O_3   0.943678 0.460877 0.229368 -0.654317
O6    O     O_3   0.065580 0.524514 0.754991 -0.587322
O7    O     O_3   0.567129 0.700936 0.860852 -0.611858
O8    O     O_3   0.427535 0.301811 0.137282 -0.607829
O9    O     O_R   0.500010 0.683250 0.385380 -0.627503
O10   O     O_R   0.500000 0.316780 0.385290 -0.581418
O11   O     O_R   0.500000 0.683220 0.614710 -0.561063
O12   O     O_R   0.376780 0.499970 0.614640 -0.623658
O13   O     O_R   0.623220 0.500030 0.385360 -0.622237
O14   O     O_R   0.376780 0.500000 0.385310 -0.570903
O15   O     O_R   0.623220 0.500000 0.614690 -0.598209
O16   O     O_3   0.033988 0.260185 0.414224 -0.641102
Zn1   Zn    Zn3+2 0.500000 0.499980 0.653120 0.976020
Zn2   Zn    Zn3+2 0.500000 0.500020 0.346880 0.979357

loop_
_geom_bond_atom_site_label_1
_geom_bond_atom_site_label_2
_ccdc_geom_bond_type
C23   C45   A    
C12   O11   A    
C37   H36   S    
C35   C36   S    
C6    O4    S    
C30   H19   S    
C35   H29   S    
C22   H2    S    
C44   H53   S    
C38   H37   S    
C3    C9    S    
C46   O8    S    
C28   C29   S    
C26   H9    S    
C37   O6    S    
C30   C31   S    
C11   C14   S    
C31   H21   S    
C36   H31   S    
O1    Zn1   S    
C47   H60   S    
C22   H66   S    
C39   H39   S    
C43   H52   S    
C39   H41   S    
C21   H65   S    
C18   H1    S    
C32   H25   S    
C52   O7    S    
C7    C14   S    
O9    Zn2   S    
C31   C32   S    
C24   H5    S    
C51   N1    A    
C41   H47   S    
C13   O5    S    
O13   Zn2   S    
C21   C22   S    
C34   C41   S    
C40   H44   S    
C21   H64   S    
C42   H50   S    
C51   H34   S    
C33   O5    S    
C35   H30   S    
C29   H17   S    
C12   O9    A    
C20   H45   S    
C3    O12   A    
N1    Zn1   S    
C28   H15   S    
C24   C25   S    
C1    O10   A    
C5    C7    S    
C2    N2    A    
C33   H27   S    
C31   H22   S    
C6    C8    S    
C25   C26   S    
C18   C23   A    
C48   H61   S    
C28   H14   S    
C43   C44   S    
C32   H24   S    
C37   C38   S    
C27   H13   S    
C6    C14   S    
C29   H16   S    
C50   C52   A    
C47   C48   S    
C19   H12   S    
C11   O6    S    
C24   O2    S    
C41   H48   S    
C20   O16   S    
C27   H11   S    
C42   O7    S    
C4    O15   A    
C30   O4    S    
C8    C15   S    
C48   H63   S    
C5    C11   S    
C50   N2    A    
N2    Zn2   S    
C25   H6    S    
C40   H43   S    
C4    C10   S    
O10   Zn2   S    
C42   H49   S    
C39   H40   S    
C48   H62   S    
C29   H18   S    
C44   H55   S    
O15   Zn1   S    
C5    O3    S    
C46   C47   S    
C34   C49   A    
C27   O3    S    
C1    O1    A    
C37   H35   S    
C40   H42   S    
C12   C45   S    
C19   C34   A    
O14   Zn2   S    
C30   H20   S    
C19   C45   A    
C33   H28   S    
C15   C17   S    
C22   H3    S    
C44   H54   S    
C36   H33   S    
C24   H4    S    
C25   H7    S    
C38   H38   S    
C3    O14   A    
C13   C15   S    
C26   H10   S    
C7    O16   S    
C46   H58   S    
C50   H23   S    
C6    C13   S    
C8    O2    S    
C38   C39   S    
C26   H8    S    
C36   H32   S    
C8    C11   S    
C47   H59   S    
C33   C35   S    
C14   C16   S    
C43   H51   S    
C5    C15   S    
C2    C51   A    
C32   H26   S    
C52   N1    A    
C7    C13   S    
C20   C21   S    
C42   C43   S    
C46   H57   S    
C27   C28   S    
C41   H46   S    
C4    O13   A    
C10   C17   T    
O12   Zn1   S    
C1    C49   S    
C23   C40   S    
C18   C49   A    
C9    C16   T    
O11   Zn1   S    
C20   H56   S    
C2    O8    S    
