data_mof_unit_20818.cif
_audit_creation_date              2012-10-26T18:40:37-0400
_audit_creation_method            fapswitch 2.2
_symmetry_space_group_name_H-M    P1
_symmetry_Int_Tables_number       1
_space_group_crystal_system       triclinic
_cell_length_a                    15.177527
_cell_length_b                    13.794989
_cell_length_c                    11.712792
_cell_angle_alpha                 90.047331
_cell_angle_beta                  89.983332
_cell_angle_gamma                 89.879877
_cell_volume                      2452.34564922

loop_
_atom_site_label
_atom_site_type_symbol
_atom_type_description
_atom_site_fract_x
_atom_site_fract_y
_atom_site_fract_z
_atom_type_partial_charge
C1    C     C_R   0.329198 0.500055 0.499565 0.604596
C2    C     C_R   0.500042 0.500032 0.716272 0.553520
C3    C     C_R   0.437513 0.106235 0.565221 0.227191
C4    C     C_R   0.436373 0.893938 0.439404 0.226968
C5    C     C_R   0.564302 0.106659 0.437085 0.227033
C6    C     C_R   0.566138 0.893066 0.561350 0.226198
C7    C     C_1   0.500157 0.499914 0.162184 -0.004561
C8    C     C_1   0.500131 0.500077 0.837814 -0.006341
C9    C     C_1   0.500195 0.499951 0.059819 -0.033301
C10   C     C_1   0.500184 0.500034 0.940179 -0.034196
C11   C     C_R   0.440290 0.209687 0.564639 0.034396
C12   C     C_R   0.669722 0.499896 0.500078 0.649555
C13   C     C_R   0.438935 0.791169 0.438202 0.041891
C14   C     C_R   0.560272 0.209622 0.436055 0.021049
C15   C     C_R   0.561787 0.789831 0.561982 0.016652
C16   C     C_R   0.091663 0.587729 0.491973 0.232487
C17   C     C_R   0.903226 0.444945 0.417639 0.235998
C18   C     C_R   0.903039 0.552413 0.584530 0.237116
C19   C     C_R   0.092658 0.411147 0.507813 0.233421
C20   C     C_R   0.184357 0.588752 0.496212 0.177861
C21   C     C_R   0.810673 0.442279 0.420360 0.168913
C22   C     C_R   0.810516 0.556109 0.581017 0.168115
C23   C     C_R   0.231461 0.499951 0.499039 -0.003838
C24   C     C_R   0.185177 0.410838 0.501297 0.174266
C25   C     C_3   0.304525 0.103914 0.669392 -0.015612
C26   C     C_3   0.236606 0.033669 0.716680 -0.367200
C27   C     C_3   0.288998 0.914258 0.396481 -0.001183
C28   C     C_3   0.224953 0.994732 0.364575 -0.358231
C29   C     C_3   0.707621 0.097778 0.365705 0.001254
C30   C     C_3   0.775580 0.022126 0.330817 -0.367458
C31   C     C_3   0.708446 0.897069 0.638836 -0.002383
C32   C     C_3   0.778852 0.969745 0.673329 -0.369069
C33   C     C_3   0.027118 0.699055 0.374818 -0.019161
C34   C     C_R   0.765459 0.499549 0.500385 0.010788
C35   C     C_3   0.985774 0.799542 0.371744 -0.368052
C36   C     C_3   0.967046 0.447193 0.241313 -0.016921
C37   C     C_3   0.996272 0.381427 0.144130 -0.364785
C38   C     C_3   0.966975 0.548287 0.760535 -0.016018
C39   C     C_3   0.998052 0.612704 0.857850 -0.364815
C40   C     C_3   0.036312 0.297462 0.628670 -0.019257
C41   C     C_3   0.007608 0.191986 0.633983 -0.370724
C42   C     C_R   0.046238 0.499189 0.500472 0.005565
C43   C     C_R   0.949272 0.498614 0.501130 0.007798
C44   C     C_R   0.501062 0.054801 0.500787 0.142576
C45   C     C_R   0.501435 0.945379 0.500248 0.141788
C46   C     C_R   0.500076 0.499966 0.283727 0.554291
Cu1   Cu    Cu3+1 0.500000 0.596430 0.500000 0.993760
Cu2   Cu    Cu3+1 0.500000 0.403570 0.500000 0.992859
H1    H     H_    0.395357 0.252297 0.615610 0.144177
H2    H     H_    0.278361 0.896312 0.488283 0.152292
H3    H     H_    0.273700 0.849768 0.343144 0.135996
H4    H     H_    0.156403 0.971405 0.382571 0.081157
H5    H     H_    0.231034 0.011907 0.272293 0.165730
H6    H     H_    0.239328 0.060939 0.415126 0.169640
H7    H     H_    0.727818 0.128277 0.449900 0.135011
H8    H     H_    0.707910 0.155877 0.299987 0.142377
H9    H     H_    0.841940 0.055743 0.326990 0.100685
H10   H     H_    0.759033 0.992207 0.245433 0.164092
H11   H     H_    0.776921 0.962123 0.393830 0.152268
H12   H     H_    0.392263 0.750820 0.387355 0.155480
H13   H     H_    0.730361 0.861086 0.558409 0.132243
H14   H     H_    0.702843 0.842705 0.708485 0.143914
H15   H     H_    0.760027 0.005926 0.754519 0.164841
H16   H     H_    0.842773 0.931819 0.685533 0.104003
H17   H     H_    0.786805 0.025473 0.605873 0.147670
H18   H     H_    0.979151 0.647404 0.337143 0.112496
H19   H     H_    0.088323 0.700286 0.322160 0.122543
H20   H     H_    0.923189 0.799864 0.420990 0.165646
H21   H     H_    0.971575 0.820462 0.282078 0.091203
H22   H     H_    0.031577 0.853326 0.409633 0.146621
H23   H     H_    0.604941 0.251274 0.383830 0.156218
H24   H     H_    0.021874 0.497920 0.260376 0.115853
H25   H     H_    0.908201 0.488956 0.212068 0.125055
H26   H     H_    0.942675 0.330000 0.122125 0.150217
H27   H     H_    0.055786 0.339800 0.169752 0.173335
H28   H     H_    0.012230 0.425559 0.067715 0.083812
H29   H     H_    0.020882 0.496525 0.740017 0.115014
H30   H     H_    0.907826 0.507589 0.790316 0.125740
H31   H     H_    0.057834 0.653307 0.831570 0.173944
H32   H     H_    0.014221 0.567668 0.933502 0.083698
H33   H     H_    0.945367 0.665045 0.881362 0.150507
H34   H     H_    0.607363 0.747393 0.612108 0.156310
H35   H     H_    0.983894 0.342513 0.668559 0.116307
H36   H     H_    0.098571 0.304706 0.678584 0.122068
H37   H     H_    0.058821 0.144864 0.594817 0.145138
H38   H     H_    0.998072 0.169972 0.724310 0.090304
H39   H     H_    0.944562 0.182322 0.587197 0.166027
H40   H     H_    0.189275 0.731055 0.501664 0.346923
H41   H     H_    0.802228 0.347211 0.296451 0.353454
H42   H     H_    0.801889 0.650793 0.705346 0.353422
H43   H     H_    0.191098 0.269108 0.487224 0.349328
H44   H     H_    0.272828 0.145101 0.598818 0.139798
H45   H     H_    0.324138 0.153617 0.739718 0.135610
H46   H     H_    0.266060 0.989698 0.786348 0.174844
H47   H     H_    0.179462 0.074721 0.751168 0.090679
H48   H     H_    0.212997 0.984644 0.648081 0.146005
N1    N     N_R   0.500000 0.258690 0.500000 -0.278620
N2    N     N_R   0.500000 0.741310 0.500000 -0.280889
O1    O     O_R   0.371460 0.581430 0.500010 -0.455060
O2    O     O_3   0.375911 0.945948 0.374758 -0.555010
O3    O     O_3   0.623612 0.053840 0.370643 -0.554216
O4    O     O_3   0.627303 0.946109 0.624617 -0.556767
O5    O     O_3   0.045348 0.674358 0.489238 -0.519056
O6    O     O_3   0.948450 0.389744 0.337953 -0.518730
O7    O     O_3   0.948099 0.606828 0.664860 -0.518773
O8    O     O_3   0.047314 0.324208 0.513293 -0.518721
O9    O     O_3   0.230277 0.675394 0.496378 -0.707358
O10   O     O_3   0.762327 0.387399 0.343773 -0.716780
O11   O     O_3   0.762028 0.611334 0.657363 -0.718005
O12   O     O_R   0.628540 0.418570 0.499990 -0.478739
O13   O     O_3   0.231639 0.324392 0.498333 -0.705569
O14   O     O_R   0.628540 0.581430 0.499990 -0.480487
O15   O     O_R   0.371460 0.418570 0.500010 -0.453863
O16   O     O_R   0.500010 0.581440 0.337200 -0.507548
O17   O     O_R   0.499990 0.418560 0.662800 -0.510965
O18   O     O_R   0.499990 0.581440 0.662800 -0.488771
O19   O     O_R   0.500010 0.418560 0.337200 -0.489227
O20   O     O_3   0.378503 0.051292 0.630117 -0.561341

loop_
_geom_bond_atom_site_label_1
_geom_bond_atom_site_label_2
_ccdc_geom_bond_type
C26   H46   S    
Cu1   O16   S    
Cu2   O12   S    
C37   H26   S    
C25   H45   S    
C6    C45   A    
C14   H23   S    
C40   H36   S    
C29   H7    S    
C40   H35   S    
C25   O20   S    
C1    O1    A    
C12   O12   A    
C13   H12   S    
Cu2   N1    S    
Cu1   N2    S    
C36   C37   S    
C17   O6    S    
C38   C39   S    
Cu1   O14   S    
C30   H9    S    
C13   N2    A    
Cu1   O1    S    
H43   O13   S    
C4    C13   A    
C31   H13   S    
C6    C15   A    
C2    O18   A    
Cu1   Cu2   S    
C35   H22   S    
C23   C24   A    
C9    C10   S    
C19   C42   A    
C20   O9    S    
C37   H27   S    
C18   C22   A    
C31   H14   S    
C24   O13   S    
C1    O15   A    
C22   C34   A    
C27   H3    S    
C33   H18   S    
C15   H34   S    
C4    C45   A    
C26   H48   S    
Cu1   O18   S    
C41   H39   S    
C5    O3    S    
C27   O2    S    
C46   O16   A    
C31   O4    S    
C3    C11   A    
C39   H33   S    
H40   O9    S    
C28   H6    S    
C21   C34   A    
C38   H30   S    
C25   C26   S    
C17   C21   A    
C46   O19   A    
C39   H31   S    
C7    C46   S    
C29   C30   S    
C11   H1    S    
C3    O20   S    
C2    O17   A    
C16   O5    S    
C31   C32   S    
C20   C23   A    
C16   C20   A    
C22   O11   S    
C30   H11   S    
C29   O3    S    
C32   H16   S    
C5    C14   A    
Cu2   O17   S    
C40   C41   S    
C38   H29   S    
C5    C44   A    
C1    C23   S    
C3    C44   A    
C4    O2    S    
C42   C43   S    
C15   N2    A    
C12   C34   S    
C16   C42   A    
C12   O14   A    
C44   C45   S    
C33   H19   S    
C14   N1    A    
C40   O8    S    
C26   H47   S    
C7    C9    T    
C25   H44   S    
C33   O5    S    
C37   H28   S    
C2    C8    S    
C32   H15   S    
C28   H5    S    
C27   H2    S    
Cu2   O19   S    
C29   H8    S    
C41   H37   S    
C11   N1    A    
C36   O6    S    
C39   H32   S    
C38   O7    S    
C19   C24   A    
C18   O7    S    
C18   C43   A    
C28   H4    S    
C35   H20   S    
C30   H10   S    
H41   O10   S    
C33   C35   S    
C6    O4    S    
C21   O10   S    
C41   H38   S    
C36   H25   S    
C19   O8    S    
C35   H21   S    
C8    C10   T    
C17   C43   A    
C32   H17   S    
H42   O11   S    
C36   H24   S    
Cu2   O15   S    
C27   C28   S    
