data_mof_unit_57745.cif
_audit_creation_date              2012-12-11T16:18:15-0500
_audit_creation_method            fapswitch 2.2
_symmetry_space_group_name_H-M    P1
_symmetry_Int_Tables_number       1
_space_group_crystal_system       triclinic
_cell_length_a                    14.032671
_cell_length_b                    14.044918
_cell_length_c                    30.14651
_cell_angle_alpha                 97.068825
_cell_angle_beta                  97.286727
_cell_angle_gamma                 60.938855
_cell_volume                      5138.58316756

loop_
_atom_site_label
_atom_site_type_symbol
_atom_type_description
_atom_site_fract_x
_atom_site_fract_y
_atom_site_fract_z
_atom_type_partial_charge
Br1   Br    Br    0.933106 0.064276 0.081113 -0.264430
Br2   Br    Br    0.616969 0.204458 0.716113 -0.289854
Br3   Br    Br    0.631644 0.470763 0.813117 -0.277751
Br4   Br    Br    0.102733 0.891270 0.785770 -0.225576
Br5   Br    Br    0.855836 0.521517 0.425444 -0.255518
Br6   Br    Br    0.133269 0.884562 0.412269 -0.221723
Br7   Br    Br    0.490290 0.937675 0.101824 -0.186128
Br8   Br    Br    0.579721 0.698032 0.301665 -0.258548
Br9   Br    Br    0.066597 0.415207 0.873529 -0.291210
Br10  Br    Br    0.196147 0.586570 0.707541 -0.227881
Br11  Br    Br    0.195671 0.588445 0.599733 -0.253860
Br12  Br    Br    0.640893 0.204009 0.610098 -0.311914
Br13  Br    Br    0.524546 0.225154 0.946977 -0.264107
C1    C     C_R   0.385404 0.710981 0.442239 0.572762
C2    C     C_R   0.769195 0.276944 0.372532 0.215810
C3    C     C_R   0.791770 0.264151 0.327564 0.233833
C4    C     C_R   0.398397 0.381198 0.426468 0.563020
C5    C     C_R   0.819488 0.335724 0.311202 -0.039863
C6    C     C_R   0.838880 0.411021 0.340444 0.232689
C7    C     C_R   0.817512 0.424189 0.385671 0.140975
C8    C     C_R   0.813921 0.415554 0.155158 0.272029
C9    C     C_R   0.837999 0.402176 0.110235 0.232648
C10   C     C_R   0.891569 0.208367 0.108966 0.114260
C11   C     C_R   0.866702 0.223520 0.153340 -0.112493
C12   C     C_R   0.405870 0.252828 0.222208 0.230589
C13   C     C_R   0.834258 0.324417 0.176988 -0.044568
C14   C     C_1   0.827636 0.330911 0.224249 0.121697
C15   C     C_1   0.824771 0.333527 0.263938 0.149795
C16   C     C_R   0.711748 0.404411 0.442606 0.573371
C17   C     C_R   0.887055 0.295828 0.087918 -0.020695
C18   C     C_R   0.367506 0.762549 0.400193 -0.050917
C19   C     C_R   0.459949 0.731212 0.376832 -0.134202
C20   C     C_R   0.449031 0.753289 0.332416 0.134542
C21   C     C_R   0.344559 0.809017 0.310759 0.004039
C22   C     C_R   0.250800 0.849623 0.334492 0.244878
C23   C     C_R   0.413353 0.257451 0.269168 0.232435
C24   C     C_R   0.261977 0.826832 0.379592 0.186252
C25   C     C_R   0.263174 0.809146 0.146404 0.231196
C26   C     C_R   0.251776 0.833464 0.101725 0.235287
C27   C     C_R   0.388534 0.895618 0.119208 0.134999
C28   C     C_R   0.406934 0.671447 0.572484 0.527182
C29   C     C_R   0.399526 0.870551 0.163764 0.225130
C30   C     C_R   0.331904 0.834208 0.177611 -0.044087
C31   C     C_1   0.332179 0.825142 0.224289 0.154809
C32   C     C_1   0.335162 0.819202 0.263708 0.151273
C33   C     C_R   0.305401 0.888231 0.088986 -0.063911
C34   C     C_R   0.330170 0.343999 0.293020 -0.054152
C35   C     C_R   0.419265 0.398651 0.608621 -0.052940
C36   C     C_R   0.507146 0.316953 0.634651 0.150092
C37   C     C_R   0.499952 0.315726 0.680624 0.188526
C38   C     C_R   0.407993 0.395913 0.701465 0.001506
C39   C     C_R   0.321358 0.477136 0.676960 0.171954
C40   C     C_R   0.431604 0.404767 0.560470 0.551360
C41   C     C_R   0.325066 0.478328 0.630649 0.128177
C42   C     C_R   0.246548 0.398890 0.832532 0.232596
C43   C     C_R   0.218795 0.372515 0.870526 0.154383
C44   C     C_R   0.411009 0.288609 0.899483 0.156671
C45   C     C_R   0.314486 0.333993 0.199103 -0.053084
C46   C     C_R   0.438054 0.313541 0.860707 0.241569
C47   C     C_R   0.356001 0.366577 0.827083 -0.019522
C48   C     C_1   0.382983 0.379893 0.784768 0.168466
C49   C     C_1   0.397606 0.388753 0.747493 0.154580
C50   C     C_R   0.301769 0.312678 0.903632 -0.053068
C51   C     C_1   0.762394 0.376892 0.612525 0.081998
C52   C     C_R   0.713687 0.407383 0.568411 0.548084
C53   C     C_R   0.726356 0.402039 0.727312 0.279258
C54   C     C_R   0.746301 0.386093 0.773435 0.216792
C55   C     C_R   0.935561 0.252157 0.761464 0.253921
C56   C     C_1   0.302436 0.322063 0.150941 0.091916
C57   C     C_R   0.914879 0.267805 0.715668 -0.065805
C58   C     C_R   0.810971 0.342313 0.698514 -0.002829
C59   C     C_R   0.850997 0.310162 0.790473 0.030528
C60   C     C_1   0.874932 0.296328 0.837900 0.126228
C61   C     C_1   0.790300 0.357971 0.651280 0.064592
C62   C     C_1   0.903575 0.284295 0.877105 0.124962
C63   C     C_1   0.393768 0.715690 0.618007 0.081234
C64   C     C_1   0.364608 0.364375 0.380858 0.090669
C65   C     C_R   0.258236 0.821968 0.718433 0.278760
C66   C     C_R   0.244255 0.843591 0.764632 0.197015
C67   C     C_1   0.344684 0.354073 0.341153 0.088354
C68   C     C_R   0.437301 0.792683 0.779729 0.244962
C69   C     C_R   0.451156 0.768572 0.733909 -0.062372
C70   C     C_R   0.362546 0.782229 0.703305 -0.022058
C71   C     C_R   0.333962 0.829535 0.795305 0.007245
C72   C     C_1   0.316993 0.861893 0.842085 0.094314
C73   C     C_1   0.380693 0.748270 0.656749 0.070744
C74   C     C_1   0.296187 0.896886 0.880117 0.092888
C75   C     C_R   0.948624 0.273964 0.047807 0.572996
C76   C     C_R   0.239020 0.425672 0.269990 0.230104
C77   C     C_R   0.275550 0.270286 0.065428 0.556428
C78   C     C_1   0.291441 0.303698 0.111162 0.097030
C79   C     C_R   0.262737 0.951378 0.048358 0.573521
C80   C     C_R   0.951482 0.269675 0.922227 0.570521
C81   C     C_R   0.276730 0.267410 0.939827 0.585409
C82   C     C_R   0.261941 0.950123 0.923164 0.557238
C83   C     C_R   0.230672 0.420114 0.222895 0.232611
C84   C     C_R   0.771627 0.364623 0.401042 -0.067130
Cl1   Cl    Cl    0.135623 0.535531 0.300122 -0.329752
Cl2   Cl    Cl    0.595647 0.497795 0.705573 -0.620004
Cl3   Cl    Cl    0.511353 0.144635 0.192316 -0.334923
Cl4   Cl    Cl    0.069842 0.162130 0.781728 -0.515619
Cl5   Cl    Cl    0.144810 0.846922 0.679422 -0.379009
Cl6   Cl    Cl    0.551051 0.776140 0.816787 -0.427441
Cl7   Cl    Cl    0.527672 0.154553 0.298167 -0.313225
Cl8   Cl    Cl    0.804435 0.520330 0.082854 -0.358924
Cl9   Cl    Cl    0.762309 0.545574 0.184690 -0.304773
Cl10  Cl    Cl    0.887169 0.491195 0.319806 -0.323670
Cl11  Cl    Cl    0.737778 0.181348 0.391272 -0.343624
Cl12  Cl    Cl    0.781457 0.160256 0.290898 -0.317091
Cl13  Cl    Cl    0.172562 0.791366 0.062161 -0.363016
Cl14  Cl    Cl    0.188203 0.750812 0.163723 -0.345449
Cl15  Cl    Cl    0.119607 0.925341 0.307167 -0.376255
Cl16  Cl    Cl    0.495349 0.888991 0.203137 -0.308034
Cl17  Cl    Cl    0.114696 0.520657 0.193721 -0.316614
Cl18  Cl    Cl    0.143682 0.467242 0.789910 -0.398549
Cl19  Cl    Cl    0.575746 0.273813 0.853253 -0.414840
Cr1   Cr    Cr6+3 0.581000 0.584320 0.508140 1.109820
Cr2   Cr    Cr6+3 0.339110 0.576430 0.496080 1.162889
Cr3   Cr    Cr6+3 0.579910 0.339270 0.495810 1.165422
Cr4   Cr    Cr6+3 0.082090 0.079210 0.982490 1.174162
Cr5   Cr    Cr6+3 0.082460 0.324610 0.994920 1.175328
Cr6   Cr    Cr6+3 0.323630 0.087860 0.996130 1.165212
H1    H     H_    0.876868 0.154720 0.170076 0.213486
H2    H     H_    0.541660 0.682330 0.391985 0.191945
H3    H     H_    0.980239 0.222638 0.693533 0.186316
H4    H     H_    0.531413 0.738547 0.722172 0.207390
O1    O     O_R   0.688580 0.499770 0.460490 -0.470303
O2    O     O_R   0.346150 0.177650 0.050510 -0.459003
O3    O     O_R   0.314200 0.996600 0.036060 -0.474660
O4    O     O_R   0.480400 0.672610 0.462660 -0.496865
O5    O     O_R   0.168690 0.969990 0.933130 -0.471847
O6    O     O_R   0.991920 0.175870 0.937430 -0.483116
O7    O     O_R   0.974010 0.342590 0.941330 -0.455039
O8    O     O_R   0.182630 0.317940 0.955040 -0.463198
O9    O     O_R   0.347320 0.174720 0.953250 -0.457508
O10   O     O_R   0.315290 0.993890 0.945900 -0.483798
O11   O     O_3   0.162730 0.163890 0.991180 -0.316962
O12   O     O_R   0.348600 0.476260 0.536540 -0.459006
O13   O     O_R   0.315310 0.685650 0.451800 -0.447547
O14   O     O_R   0.346220 0.474990 0.446280 -0.481321
O15   O     O_R   0.492270 0.312460 0.441630 -0.448656
O16   O     O_R   0.669740 0.350480 0.455640 -0.447579
O17   O     O_R   0.691150 0.501150 0.557860 -0.488140
O18   O     O_R   0.482790 0.673890 0.552920 -0.482679
O19   O     O_R   0.317880 0.687030 0.549170 -0.444486
O20   O     O_R   0.494840 0.313840 0.539010 -0.439313
O21   O     O_R   0.672120 0.351750 0.545910 -0.484383
O22   O     O_3   0.500010 0.500010 0.500010 -0.342679
O23   O     O_R   0.167510 0.972920 0.030390 -0.429975
O24   O     O_R   0.990840 0.178580 0.027590 -0.464900
O25   O     O_R   0.972840 0.345510 0.038590 -0.447221
O26   O     O_R   0.181550 0.320660 0.045200 -0.484481

loop_
_geom_bond_atom_site_label_1
_geom_bond_atom_site_label_2
_ccdc_geom_bond_type
C53   Cl2   S    
C42   C43   A    
C65   Cl5   S    
Cr4   O5    S    
C34   C76   A    
C19   H2    S    
C6    C7    A    
C1    C18   S    
C8    C13   A    
Br10  C39   S    
C68   C69   A    
Br5   C7    S    
Cr3   O20   S    
C35   C41   A    
C50   C81   S    
C13   C14   S    
Cr1   O22   S    
Cr1   O17   S    
C11   C13   A    
C21   C22   A    
C80   O7    A    
C68   Cl6   S    
C25   C26   A    
C52   O17   A    
C44   C46   A    
C33   C79   S    
Cr3   O21   S    
C2    C3    A    
C23   C34   A    
C4    O15   A    
C54   C59   A    
Cr5   O11   S    
C36   C37   A    
C45   C83   A    
C69   H4    S    
Br2   C37   S    
Br13  C44   S    
C65   C70   A    
C26   Cl13  S    
C7    C84   A    
C53   C58   A    
C46   Cl19  S    
C74   C82   S    
Br7   C27   S    
C57   C58   A    
Cr5   O25   S    
Cr5   O8    S    
C52   O21   A    
C80   O6    A    
Cr6   O3    S    
Cr2   O12   S    
C8    Cl9   S    
C27   C29   A    
C53   C54   A    
C46   C47   A    
C42   C47   A    
C82   O5    A    
C60   C62   T    
C83   Cl17  S    
C38   C49   S    
C1    O13   A    
C34   C67   S    
C2    C84   A    
Cr2   O14   S    
C39   C41   A    
C3    Cl12  S    
C44   C50   A    
C72   C74   T    
C35   C40   S    
Br6   C24   S    
C38   C39   A    
C10   C17   A    
Cr1   O18   S    
C5    C15   S    
C55   Cl4   S    
C28   O18   A    
C77   O26   A    
Br9   C43   S    
C65   C66   A    
C5    C6    A    
C12   C23   A    
C37   C38   A    
Cr3   O22   S    
C11   H1    S    
C40   O12   A    
C47   C48   S    
C2    Cl11  S    
C27   C33   A    
C30   C31   S    
Br12  C36   S    
C12   Cl3   S    
C18   C19   A    
C55   C59   A    
C4    C64   S    
C81   O9    A    
Cr4   O23   S    
C43   C50   A    
C21   C32   S    
C71   C72   S    
Cr1   O4    S    
Cr1   O1    S    
Cr6   O10   S    
Br11  C41   S    
Br4   C66   S    
C26   C33   A    
C57   H3    S    
C3    C5    A    
C35   C36   A    
Br1   C10   S    
C16   O1    A    
Cr3   O15   S    
C75   O25   A    
C29   C30   A    
C17   C75   S    
Cr2   O13   S    
C63   C73   T    
C14   C15   T    
C68   C71   A    
C31   C32   T    
C62   C80   S    
C1    O4    A    
C64   C67   T    
C51   C61   T    
C9    C17   A    
C22   C24   A    
Cr4   O6    S    
C75   O24   A    
Cr2   O19   S    
Br3   C54   S    
Cr6   O11   S    
C59   C60   S    
C58   C61   S    
C45   C56   S    
C9    Cl8   S    
Cr4   O24   S    
Cr5   O26   S    
C16   C84   S    
C76   Cl1   S    
C23   Cl7   S    
C51   C52   S    
C76   C83   A    
Cr2   O22   S    
C79   O3    A    
C25   C30   A    
C56   C78   T    
C19   C20   A    
C28   C63   S    
C82   O10   A    
C77   C78   S    
C66   C71   A    
C42   Cl18  S    
C16   O16   A    
C40   O20   A    
C81   O8    A    
C20   C21   A    
C4    O14   A    
Br8   C20   S    
Cr6   O2    S    
C48   C49   T    
Cr6   O9    S    
C10   C11   A    
C18   C24   A    
C70   C73   S    
C28   O19   A    
C29   Cl16  S    
C55   C57   A    
C69   C70   A    
C12   C45   A    
C79   O23   A    
Cr3   O16   S    
C77   O2    A    
Cr4   O11   S    
Cr5   O7    S    
C25   Cl14  S    
C8    C9    A    
C22   Cl15  S    
C6    Cl10  S    
