data_mof_unit_42732.cif
_audit_creation_date              2012-10-26T19:42:38-0400
_audit_creation_method            fapswitch 2.2
_symmetry_space_group_name_H-M    P1
_symmetry_Int_Tables_number       1
_space_group_crystal_system       triclinic
_cell_length_a                    19.37224
_cell_length_b                    10.864359
_cell_length_c                    9.565972
_cell_angle_alpha                 90.030581
_cell_angle_beta                  89.237531
_cell_angle_gamma                 92.629318
_cell_volume                      2011.02348446

loop_
_atom_site_label
_atom_site_type_symbol
_atom_type_description
_atom_site_fract_x
_atom_site_fract_y
_atom_site_fract_z
_atom_type_partial_charge
C1    C     C_R   0.504931 0.262788 0.500791 0.548720
C2    C     C_R   0.853899 0.519266 0.490936 0.034164
C3    C     C_R   0.533365 0.118013 0.761361 -0.098243
C4    C     C_R   0.367290 0.501032 0.500985 0.560990
C5    C     C_R   0.520312 0.058088 0.888364 -0.134604
C6    C     C_R   0.485833 0.943289 0.890263 -0.121912
C7    C     C_R   0.470814 0.883265 0.764800 -0.088643
C8    C     C_R   0.490854 0.937426 0.634574 0.024135
C9    C     C_R   0.511878 0.063223 0.633443 0.025336
C10   C     C_R   0.509873 0.128624 0.504757 -0.007828
C11   C     C_R   0.503330 0.063565 0.378915 -0.160886
C12   C     C_R   0.290987 0.505816 0.501625 0.011275
C13   C     C_R   0.497311 0.936366 0.379267 -0.162039
C14   C     C_R   0.491388 0.871649 0.505712 -0.005120
C15   C     C_R   0.590085 0.667102 0.142376 -0.099820
C16   C     C_R   0.495429 0.737335 0.501145 0.539648
C17   C     C_R   0.633206 0.750447 0.069095 -0.178617
C18   C     C_R   0.633040 0.750999 0.925106 -0.167664
C19   C     C_R   0.589769 0.668189 0.853617 -0.091986
C20   C     C_R   0.543640 0.583468 0.924066 0.150770
C21   C     C_R   0.543798 0.583066 0.073870 0.153774
C22   C     C_R   0.460039 0.418249 0.075003 -0.015136
C23   C     C_R   0.930086 0.524251 0.488924 0.345520
C24   C     C_R   0.460911 0.417114 0.926916 -0.021268
C25   C     C_R   0.632519 0.501409 0.499026 0.532281
C26   C     C_R   0.252525 0.532105 0.624293 0.260005
C27   C     C_R   0.181337 0.545710 0.615718 -0.096351
C28   C     C_R   0.146219 0.523479 0.490485 -0.011929
C29   C     C_R   0.184049 0.494502 0.369963 -0.138962
C30   C     C_R   0.255625 0.487314 0.375231 -0.179933
C31   C     C_3   0.286057 0.446314 0.829714 0.022576
C32   C     C_3   0.219293 0.419893 0.914790 -0.286252
C33   C     C_3   0.226598 0.310628 0.012950 -0.480351
C34   C     C_R   0.070232 0.527247 0.488232 0.347949
C35   C     C_R   0.817365 0.523997 0.618634 -0.118700
C36   C     C_R   0.745384 0.517400 0.621342 -0.139147
C37   C     C_R   0.708514 0.506340 0.496380 0.011045
C38   C     C_R   0.744914 0.502188 0.368588 -0.136287
C39   C     C_R   0.816952 0.508304 0.365916 -0.119887
Cu1   Cu    Cu3+1 0.500000 0.499990 0.640660 0.923392
Cu2   Cu    Cu3+1 0.500000 0.500010 0.359340 0.918543
H1    H     H_    0.562176 0.205366 0.765363 0.149932
H2    H     H_    0.595608 0.674156 0.743439 0.186016
H3    H     H_    0.153450 0.572621 0.708834 0.145960
H4    H     H_    0.429349 0.348547 0.872145 0.107316
H5    H     H_    0.158498 0.477639 0.271337 0.144145
H6    H     H_    0.283363 0.466934 0.279693 0.135644
H7    H     H_    0.844287 0.532230 0.716905 0.138787
H8    H     H_    0.718705 0.521453 0.721359 0.130315
H9    H     H_    0.717811 0.494173 0.270458 0.133077
H10   H     H_    0.843592 0.504659 0.265872 0.137729
H11   H     H_    0.503287 0.110919 0.279267 0.132675
H12   H     H_    0.535435 0.102193 0.985478 0.108912
H13   H     H_    0.328263 0.460658 0.905535 0.158509
H14   H     H_    0.298716 0.364910 0.764501 0.123887
H15   H     H_    0.207118 0.502596 0.977307 0.179256
H16   H     H_    0.175659 0.397228 0.843949 0.163200
H17   H     H_    0.235195 0.225691 0.951648 0.157034
H18   H     H_    0.178603 0.296058 0.076702 0.163039
H19   H     H_    0.270724 0.327873 0.084281 0.134419
H20   H     H_    0.472212 0.899231 0.988964 0.118081
H21   H     H_    0.441760 0.796297 0.772267 0.167061
H22   H     H_    0.496612 0.888769 0.279694 0.137566
H23   H     H_    0.427055 0.351619 0.131211 0.110718
H24   H     H_    0.596145 0.671769 0.252275 0.185465
H25   H     H_    0.667708 0.813968 0.124721 0.126255
H26   H     H_    0.667348 0.815066 0.867996 0.129011
N1    N     N_R   0.034904 0.508726 0.367847 -0.225815
N2    N     N_R   0.966147 0.507436 0.368185 -0.229543
N3    N     N_R   0.965489 0.543452 0.608893 -0.230008
N4    N     N_R   0.034100 0.544900 0.608519 -0.235109
N5    N     N_R   0.500660 0.501210 0.147910 -0.240419
N6    N     N_R   0.500680 0.501290 0.852040 -0.244621
O1    O     O_R   0.499990 0.319640 0.618810 -0.515718
O2    O     O_R   0.500000 0.319660 0.381240 -0.503608
O3    O     O_R   0.400140 0.499970 0.618820 -0.462438
O4    O     O_R   0.400150 0.500000 0.381250 -0.507461
O5    O     O_R   0.500000 0.680340 0.618760 -0.532003
O6    O     O_R   0.500010 0.680360 0.381190 -0.521927
O7    O     O_R   0.599850 0.500000 0.618750 -0.526350
O8    O     O_R   0.599860 0.500030 0.381180 -0.521533
O9    O     O_3   0.284083 0.556376 0.750799 -0.556017

loop_
_geom_bond_atom_site_label_1
_geom_bond_atom_site_label_2
_ccdc_geom_bond_type
C2    C35   A    
C39   H10   S    
C3    H1    S    
C33   H17   S    
C25   O7    A    
C23   N2    A    
C35   C36   A    
C7    C8    A    
C26   C27   A    
C37   C38   A    
C31   O9    S    
C1    O1    A    
C6    H20   S    
C5    H12   S    
C28   C29   A    
Cu2   O4    S    
C5    C6    A    
C24   N6    A    
C15   H24   S    
Cu1   N6    S    
C18   C19   A    
C11   H11   S    
C25   C37   S    
C2    C39   A    
C19   C20   A    
C8    C9    A    
Cu1   O7    S    
N3    N4    A    
C14   C16   S    
C4    C12   S    
C9    C10   A    
C28   C34   S    
C26   O9    S    
C13   C14   A    
C25   O8    A    
C23   N3    A    
C32   H16   S    
C35   H7    S    
C27   H3    S    
C22   N5    A    
C19   H2    S    
C21   N5    A    
C1    O2    A    
C30   H6    S    
C34   N1    A    
N1    N2    A    
C18   H26   S    
Cu1   O3    S    
C12   C26   A    
C7    H21   S    
C29   C30   A    
C3    C9    A    
Cu2   O2    S    
C31   C32   S    
C13   H22   S    
Cu2   O8    S    
C17   C18   A    
C17   H25   S    
Cu2   N5    S    
Cu1   O5    S    
Cu1   Cu2   S    
C33   H19   S    
C22   C24   A    
C24   H4    S    
C2    C23   S    
C15   C17   A    
C36   C37   A    
C8    C14   A    
C12   C30   A    
C1    C10   S    
C3    C5    A    
Cu2   O6    S    
C6    C7    A    
C38   H9    S    
C29   H5    S    
C16   O6    A    
C32   C33   S    
C4    O4    A    
C11   C13   A    
C38   C39   A    
Cu1   O1    S    
C20   N6    A    
C16   O5    A    
C31   H13   S    
C4    O3    A    
C10   C11   A    
C22   H23   S    
C15   C21   A    
C20   C21   A    
C33   H18   S    
C27   C28   A    
C31   H14   S    
C34   N4    A    
C32   H15   S    
C36   H8    S    
