data_mof_unit_14490.cif
_audit_creation_date              2012-12-10T17:01:34-0500
_audit_creation_method            fapswitch 2.2
_symmetry_space_group_name_H-M    P1
_symmetry_Int_Tables_number       1
_space_group_crystal_system       triclinic
_cell_length_a                    9.972868
_cell_length_b                    10.991141
_cell_length_c                    12.92035
_cell_angle_alpha                 88.054002
_cell_angle_beta                  75.975559
_cell_angle_gamma                 110.630004
_cell_volume                      1274.76140649

loop_
_atom_site_label
_atom_site_type_symbol
_atom_type_description
_atom_site_fract_x
_atom_site_fract_y
_atom_site_fract_z
_atom_type_partial_charge
C1    C     C_R   0.439690 0.254154 0.508310 0.862683
C2    C     C_R   0.560311 0.745847 0.491689 0.862643
C3    C     C_2   0.081217 0.509280 0.487717 0.022504
C4    C     C_2   0.918792 0.490770 0.512319 0.022514
C5    C     C_R   0.473044 0.494833 0.702292 0.816012
C6    C     C_R   0.526957 0.505176 0.297708 0.816021
C7    C     C_R   0.543755 0.514034 0.182967 -0.082058
C8    C     C_R   0.456241 0.486000 0.817034 -0.082035
C9    C     C_R   0.313755 0.379696 0.997026 0.140494
C10   C     C_R   0.686221 0.620372 0.002982 0.140444
C11   C     C_R   0.325898 0.396769 0.887703 -0.188139
C12   C     C_R   0.674087 0.603283 0.112302 -0.188123
C13   C     C_R   0.573506 0.562788 0.855183 -0.250027
C14   C     C_R   0.426484 0.437261 0.144818 -0.250127
C15   C     C_R   0.565601 0.546720 0.964104 0.075825
C16   C     C_R   0.434380 0.453346 0.035901 0.075866
C17   C     C_2   0.405165 0.113799 0.521347 -0.339303
C18   C     C_2   0.594838 0.886202 0.478654 -0.339165
C19   C     C_2   0.512507 0.068116 0.485242 -0.172245
C20   C     C_2   0.487495 0.931884 0.514753 -0.172119
Cu1   Cu    Cu3+1 0.647370 0.522180 0.481340 0.959016
Cu2   Cu    Cu3+1 0.352630 0.477820 0.518660 0.959009
H1    H     H_    0.328904 0.366707 0.201441 0.180263
H2    H     H_    0.671095 0.633329 0.798555 0.180270
H3    H     H_    0.765219 0.662346 0.142561 0.180524
H4    H     H_    0.234764 0.337704 0.857446 0.180527
H5    H     H_    0.379588 0.867685 0.565688 0.180890
H6    H     H_    0.620411 0.132313 0.434299 0.180905
H7    H     H_    0.706136 0.951588 0.433780 0.160215
H8    H     H_    0.293870 0.048414 0.566227 0.160221
H9    H     H_    0.941859 0.621300 0.387902 0.206242
H10   H     H_    0.058121 0.378595 0.612017 0.206232
N1    N     N_2   0.131210 0.444490 0.546730 -0.307193
N2    N     N_2   0.868790 0.555510 0.453270 -0.307172
O1    O     O_R   0.578710 0.332530 0.490040 -0.570129
O2    O     O_R   0.421290 0.667470 0.509960 -0.570100
O3    O     O_R   0.329810 0.295070 0.521560 -0.573983
O4    O     O_R   0.670190 0.704930 0.478440 -0.573977
O5    O     O_R   0.604230 0.515670 0.637800 -0.573640
O6    O     O_R   0.395770 0.484330 0.362200 -0.573689
O7    O     O_R   0.355330 0.478200 0.669330 -0.578673
O8    O     O_R   0.644670 0.521800 0.330670 -0.578678
I1    I     I_    0.109888 0.239945 0.095824 -0.430045
I2    I     I_    0.890060 0.760150 0.904192 -0.430091
C21   C     C_R   0.818097 0.395610 0.607431 0.199250
C22   C     C_R   0.766364 0.261250 0.598200 -0.141011
C23   C     C_R   0.688207 0.168495 0.689662 -0.140466
C24   C     C_R   0.667935 0.209047 0.791651 -0.107888
C25   C     C_R   0.728865 0.341965 0.802215 -0.130512
C26   C     C_R   0.805479 0.434865 0.710577 -0.144897
H11   H     H_    0.791566 0.228850 0.520360 0.127607
H12   H     H_    0.646764 0.065080 0.681667 0.157531
H13   H     H_    0.608846 0.137248 0.862581 0.147458
H14   H     H_    0.718510 0.372732 0.881457 0.162411
H15   H     H_    0.856625 0.537156 0.719689 0.151253
C27   C     C_R   0.181931 0.604546 0.392678 0.199311
C28   C     C_R   0.194725 0.565395 0.289496 -0.144825
C29   C     C_R   0.271312 0.658380 0.197909 -0.130626
C30   C     C_R   0.331988 0.791280 0.208560 -0.107898
C31   C     C_R   0.311534 0.831721 0.310584 -0.140388
C32   C     C_R   0.233446 0.738879 0.401995 -0.141161
H16   H     H_    0.143725 0.463117 0.280312 0.151276
H17   H     H_    0.281812 0.627688 0.118639 0.162400
H18   H     H_    0.391026 0.863146 0.137668 0.147462
H19   H     H_    0.352771 0.935112 0.318644 0.157545
H20   H     H_    0.208113 0.771187 0.479860 0.127557

loop_
_geom_bond_atom_site_label_1
_geom_bond_atom_site_label_2
_ccdc_geom_bond_type
C14   H1    S    
C5    C8    S    
C8    C13   A    
Cu1   O1    S    
C20   H5    S    
C2    C18   S    
Cu2   O2    S    
C3    C27   S    
C2    O4    A    
C1    C17   S    
C23   C24   A    
Cu1   O5    S    
C1    O3    A    
C12   H3    S    
C4    C21   S    
Cu2   O6    S    
H10   N1    S    
C19   C20   S    
C5    O5    A    
C28   C29   A    
H9    N2    S    
C30   C31   A    
C18   H7    S    
C21   C22   A    
C17   H8    S    
C9    C11   A    
C30   H18   S    
C23   H12   S    
C10   C12   A    
C21   C26   A    
C8    C11   A    
C22   H11   S    
Cu1   Cu2   S    
C24   C25   A    
C17   C19   D    
C9    C16   A    
C31   H19   S    
C6    C7    S    
C18   C20   D    
C10   C15   A    
C13   C15   A    
C4    N2    D    
C19   H6    S    
C24   H13   S    
C14   C16   A    
C7    C12   A    
C9    I1    S    
Cu2   O7    S    
C3    N1    D    
C10   I2    S    
C15   C16   A    
C28   H16   S    
C6    O6    A    
C27   C28   A    
C1    O1    A    
C25   C26   A    
C6    O8    A    
C2    O2    A    
C29   H17   S    
Cu2   N1    S    
C5    O7    A    
C22   C23   A    
Cu1   N2    S    
C25   H14   S    
C11   H4    S    
C29   C30   A    
C27   C32   A    
Cu2   O3    S    
C32   H20   S    
Cu1   O8    S    
C7    C14   A    
Cu1   O4    S    
C26   H15   S    
C13   H2    S    
C31   C32   A    
C3    C4    S    
