data_mof_unit_37177.cif
_audit_creation_date              2012-12-11T15:06:45-0500
_audit_creation_method            fapswitch 2.2
_symmetry_space_group_name_H-M    P1
_symmetry_Int_Tables_number       1
_space_group_crystal_system       triclinic
_cell_length_a                    7.23589
_cell_length_b                    15.028636
_cell_length_c                    22.470619
_cell_angle_alpha                 90.001839
_cell_angle_beta                  87.648051
_cell_angle_gamma                 89.960469
_cell_volume                      2441.52091505

loop_
_atom_site_label
_atom_site_type_symbol
_atom_type_description
_atom_site_fract_x
_atom_site_fract_y
_atom_site_fract_z
_atom_type_partial_charge
O1    O     O_R   0.390810 0.844810 0.447340 -0.534121
O2    O     O_R   0.109190 0.155190 0.947340 -0.535188
O3    O     O_R   0.890810 0.655190 0.552660 -0.535111
O4    O     O_R   0.609190 0.344810 0.052660 -0.534145
O5    O     O_R   0.720550 0.655820 0.440420 -0.540380
O6    O     O_R   0.779450 0.344180 0.940420 -0.536830
O7    O     O_R   0.220550 0.844180 0.559580 -0.536803
O8    O     O_R   0.279450 0.155820 0.059580 -0.540273
C1    C     C_R   0.555055 0.627012 0.425902 0.687069
C2    C     C_R   0.950553 0.372970 0.926385 0.685080
C3    C     C_R   0.049339 0.872986 0.573604 0.685038
C4    C     C_R   0.445045 0.127023 0.074098 0.687049
O9    O     O_R   0.720530 0.844130 0.440420 -0.538183
O10   O     O_R   0.779470 0.155870 0.940420 -0.535116
O11   O     O_R   0.220530 0.655870 0.559580 -0.535073
O12   O     O_R   0.279470 0.344130 0.059580 -0.538253
O13   O     O_R   0.890830 0.844810 0.552660 -0.536151
O14   O     O_R   0.609170 0.155190 0.052660 -0.535071
O15   O     O_R   0.390830 0.655190 0.447340 -0.535065
O16   O     O_R   0.109170 0.344810 0.947340 -0.535953
C5    C     C_R   0.555114 0.872720 0.425656 0.696521
C6    C     C_R   0.950951 0.126912 0.926423 0.696141
C7    C     C_R   0.049143 0.626968 0.573605 0.696315
C8    C     C_R   0.444790 0.372742 0.074341 0.696458
O17   O     O_3   0.557310 0.749980 0.536820 -0.373902
O18   O     O_3   0.942690 0.250020 0.036820 -0.377912
O19   O     O_3   0.057310 0.750020 0.463180 -0.377867
O20   O     O_3   0.442690 0.249980 0.963180 -0.373914
V1    V     V_3+5 0.832160 0.749980 0.493170 1.449402
V2    V     V_3+5 0.667840 0.250020 0.993170 1.446962
V3    V     V_3+5 0.332160 0.750020 0.506830 1.447136
V4    V     V_3+5 0.167840 0.249980 0.006830 1.449384
C9    C     C_R   0.102008 0.592287 0.863090 -0.123995
C10   C     C_R   0.693737 0.412697 0.351264 -0.121776
C11   C     C_R   0.309433 0.912067 0.148362 -0.122201
C12   C     C_R   0.892719 0.091362 0.637156 -0.123983
H1    H     H_    0.073831 0.535984 0.950346 0.137286
H2    H     H_    0.720970 0.469296 0.437723 0.139375
H3    H     H_    0.282265 0.968698 0.061894 0.139347
H4    H     H_    0.920816 0.035132 0.549890 0.137236
H5    H     H_    0.205879 0.706626 0.778897 0.155371
H6    H     H_    0.743802 0.298321 0.262721 0.155008
H7    H     H_    0.260083 0.797494 0.236798 0.155023
H8    H     H_    0.787686 0.205360 0.721473 0.155475
H9    H     H_    0.164655 0.651976 0.879713 0.200474
H10   H     H_    0.775383 0.355261 0.362304 0.197674
H11   H     H_    0.229429 0.854228 0.137116 0.197543
H12   H     H_    0.827189 0.150417 0.620679 0.201036
C13   C     C_R   0.971950 0.447044 0.883875 -0.046692
C14   C     C_R   0.560410 0.553897 0.381931 -0.052964
C15   C     C_R   0.440111 0.053884 0.118038 -0.052683
C16   C     C_R   0.027374 0.947064 0.616105 -0.047033
C17   C     C_R   0.936832 0.476414 0.593525 -0.169379
C18   C     C_R   0.331634 0.520909 0.103065 -0.171500
C19   C     C_R   0.666667 0.021147 0.397149 -0.171697
C20   C     C_R   0.065436 0.976646 0.906356 -0.169041
C21   C     C_R   0.867564 0.410884 0.631745 0.443029
C22   C     C_R   0.288255 0.586750 0.144663 0.446077
C23   C     C_R   0.709383 0.087184 0.355659 0.446846
C24   C     C_R   0.135620 0.911394 0.868031 0.441885
C25   C     C_R   0.889561 0.417506 0.692893 -0.210436
C26   C     C_R   0.351548 0.580982 0.202261 -0.205544
C27   C     C_R   0.646631 0.081376 0.297992 -0.205441
C28   C     C_R   0.113031 0.918033 0.806921 -0.210844
C29   C     C_R   0.980415 0.491318 0.717511 0.026774
C30   C     C_R   0.459900 0.508029 0.219953 0.030089
C31   C     C_R   0.539647 0.008120 0.280109 0.029750
C32   C     C_R   0.020212 0.991425 0.782453 0.027184
C33   C     C_R   0.047004 0.559971 0.677858 0.069922
C34   C     C_R   0.502680 0.439749 0.176836 0.072693
C35   C     C_R   0.497584 0.939637 0.323118 0.072494
C36   C     C_R   0.952465 0.059757 0.822208 0.070194
C37   C     C_R   0.999796 0.501046 0.780388 0.100987
C38   C     C_R   0.522645 0.499466 0.279463 0.102464
C39   C     C_R   0.477676 0.999440 0.220514 0.102502
C40   C     C_R   0.999713 0.001010 0.719620 0.100918
C41   C     C_R   0.080676 0.580275 0.801930 0.124367
C42   C     C_R   0.626392 0.422760 0.294069 0.126315
C43   C     C_R   0.375655 0.922355 0.205690 0.126215
C44   C     C_R   0.915954 0.079672 0.698237 0.124424
C45   C     C_R   0.142690 0.646662 0.762438 -0.179730
C46   C     C_R   0.664711 0.356768 0.251483 -0.179146
C47   C     C_R   0.337967 0.856194 0.248188 -0.178715
C48   C     C_R   0.852883 0.145782 0.737816 -0.180418
C49   C     C_R   0.126642 0.636789 0.701452 -0.182057
C50   C     C_R   0.603404 0.364755 0.193982 -0.179703
C51   C     C_R   0.398325 0.864346 0.305793 -0.179195
C52   C     C_R   0.870501 0.136134 0.798749 -0.182796
C53   C     C_R   0.945863 0.434469 0.822789 -0.207869
C54   C     C_R   0.489631 0.564635 0.324925 -0.205732
C55   C     C_R   0.509912 0.064815 0.175161 -0.205622
C56   C     C_R   0.055065 0.934757 0.677122 -0.208060
C57   C     C_R   0.049091 0.526317 0.903536 -0.140986
C58   C     C_R   0.662165 0.477657 0.394480 -0.134792
C59   C     C_R   0.340172 0.977247 0.105253 -0.135303
C60   C     C_R   0.947102 0.025747 0.596620 -0.140196
C61   C     C_R   0.024667 0.551727 0.615538 -0.142600
C62   C     C_R   0.437267 0.446795 0.118078 -0.148870
C63   C     C_R   0.562268 0.946793 0.381958 -0.148822
C64   C     C_R   0.975881 0.051656 0.884482 -0.142440
H13   H     H_    0.893203 0.370632 0.809679 0.097715
H14   H     H_    0.417594 0.625959 0.316849 0.100629
H15   H     H_    0.580625 0.126402 0.183398 0.100454
H16   H     H_    0.109976 0.871289 0.690114 0.097859
H17   H     H_    0.912102 0.471156 0.546375 0.145946
H18   H     H_    0.276269 0.525907 0.059065 0.148817
H19   H     H_    0.721532 0.026211 0.441213 0.148666
H20   H     H_    0.090785 0.971456 0.953467 0.145810
H21   H     H_    0.827611 0.365758 0.720100 0.133620
H22   H     H_    0.309720 0.633527 0.232433 0.132753
H23   H     H_    0.687847 0.134124 0.267919 0.132896
H24   H     H_    0.175913 0.866610 0.779620 0.133577
H25   H     H_    0.176795 0.690319 0.672937 0.117541
H26   H     H_    0.636029 0.311285 0.163082 0.122403
H27   H     H_    0.366225 0.810750 0.336630 0.121791
H28   H     H_    0.819497 0.189449 0.827325 0.118481
Cl1   Cl    Cl    0.736713 0.324144 0.602853 -0.671524
Cl2   Cl    Cl    0.142596 0.674405 0.125221 -0.670634
Cl3   Cl    Cl    0.853579 0.175158 0.375350 -0.670174
Cl4   Cl    Cl    0.268174 0.824968 0.896697 -0.671583

loop_
_geom_bond_atom_site_label_1
_geom_bond_atom_site_label_2
_ccdc_geom_bond_type
O17   V3    S    
C47   C51   A    
C22   C26   A    
C19   C23   A    
O19   V1    S    
C9    H9    S    
O3    C7    A    
H6    C46   S    
C22   Cl2   S    
C44   C48   A    
C25   H21   S    
C36   C64   A    
C16   C60   A    
C29   C37   A    
O1    C5    A    
C8    C62   S    
C28   C32   A    
O9    V1    S    
H4    C60   S    
C18   C22   A    
O4    C8    A    
C29   C33   A    
C28   H24   S    
C30   C38   A    
O1    V3    S    
H7    C47   S    
O2    V4    S    
C11   C43   A    
O3    V1    S    
C12   C60   A    
C20   H20   S    
C3    C16   S    
C15   C55   A    
C1    O15   A    
C54   H14   S    
C2    O16   A    
O2    C6    A    
C23   Cl3   S    
C24   Cl4   S    
O14   V2    S    
C51   H27   S    
C39   C55   A    
C53   H13   S    
O11   C7    A    
O15   V3    S    
O12   C8    A    
O10   V2    S    
C36   C52   A    
C14   C54   A    
O5    V1    S    
C27   C31   A    
O7    V3    S    
C18   H18   S    
H1    C57   S    
O8    V4    S    
C40   C44   A    
C6    C64   S    
C12   C44   A    
C13   C53   A    
C26   C30   A    
O18   V4    S    
C14   C58   A    
C17   C61   A    
C46   C50   A    
C35   C63   A    
C20   C24   A    
C19   H19   S    
C32   C36   A    
C52   H28   S    
O7    C3    A    
O5    C1    A    
C25   C29   A    
C42   C46   A    
C26   H22   S    
C41   C45   A    
O8    C4    A    
H5    C45   S    
H2    C58   S    
O9    C5    A    
C32   C40   A    
O11   V3    S    
H3    C59   S    
C40   C56   A    
C10   H10   S    
C7    C61   S    
C10   C58   A    
C35   C51   A    
C16   C56   A    
C31   C39   A    
C20   C64   A    
C19   C63   A    
C34   C50   A    
C4    C15   S    
C33   C49   A    
C21   Cl1   S    
O16   V4    S    
C3    O13   A    
C17   C21   A    
O6    V2    S    
C1    C14   S    
C48   C52   A    
C55   H15   S    
H8    C48   S    
C9    C57   A    
O6    C2    A    
C21   C25   A    
C11   C59   A    
O12   V4    S    
C23   C27   A    
C50   H26   S    
C24   C28   A    
O10   C6    A    
C49   H25   S    
C37   C53   A    
O13   V1    S    
C10   C42   A    
C43   C47   A    
C9    C41   A    
C30   C34   A    
C5    C63   S    
C38   C54   A    
O20   V2    S    
C12   H12   S    
C31   C35   A    
C27   H23   S    
O4    V2    S    
C56   H16   S    
C17   H17   S    
C38   C42   A    
C4    O14   A    
C37   C41   A    
C18   C62   A    
C13   C57   A    
C11   H11   S    
C2    C13   S    
C39   C43   A    
C45   C49   A    
C34   C62   A    
C15   C59   A    
C33   C61   A    
