data_mof_unit_26365.cif
_audit_creation_date              2012-12-10T17:09:33-0500
_audit_creation_method            fapswitch 2.2
_symmetry_space_group_name_H-M    P1
_symmetry_Int_Tables_number       1
_space_group_crystal_system       triclinic
_cell_length_a                    10.503416
_cell_length_b                    10.723263
_cell_length_c                    10.096329
_cell_angle_alpha                 89.488137
_cell_angle_beta                  89.220203
_cell_angle_gamma                 90.615034
_cell_volume                      1136.94083434

loop_
_atom_site_label
_atom_site_type_symbol
_atom_type_description
_atom_site_fract_x
_atom_site_fract_y
_atom_site_fract_z
_atom_type_partial_charge
C1    C     C_R   0.495075 0.262870 0.500440 0.940751
C2    C     C_2   0.601834 0.491468 0.073554 -0.064385
C3    C     C_R   0.257764 0.499327 0.500764 0.982685
C4    C     C_R   0.501381 0.737137 0.499401 0.950564
C5    C     C_R   0.742250 0.500179 0.499202 0.910206
C6    C     C_3   0.037808 0.494916 0.626750 -0.225660
C7    C     C_3   0.954352 0.394527 0.559319 -0.198182
C8    C     C_3   0.877040 0.499997 0.497772 -0.131122
C9    C     C_3   0.957206 0.600378 0.565590 -0.196154
C10   C     C_3   0.043458 0.602528 0.441465 0.447562
C11   C     C_3   0.960832 0.504202 0.372197 -0.254117
C12   C     C_3   0.040676 0.400625 0.435288 0.440609
C13   C     C_3   0.122831 0.499074 0.501899 -0.242232
C14   C     C_2   0.472314 0.933094 0.391093 -0.068078
C15   C     C_2   0.508456 0.869185 0.497920 -0.282703
C16   C     C_2   0.479027 0.067444 0.389099 -0.093236
C17   C     C_2   0.477542 0.131296 0.502040 -0.251607
C18   C     C_2   0.600372 0.515824 0.926462 -0.052229
H1    H     H_    0.913513 0.308768 0.606290 0.182517
H2    H     H_    0.235978 0.280273 0.819695 0.371851
H3    H     H_    0.429040 0.552711 0.108423 0.250551
H4    H     H_    0.072417 0.491025 0.730110 0.226272
H5    H     H_    0.021029 0.901493 0.269124 0.394104
H6    H     H_    0.005251 0.131856 0.223498 0.381875
H7    H     H_    0.459878 0.087956 0.598073 0.171152
H8    H     H_    0.689328 0.545514 0.879754 0.119668
H9    H     H_    0.691434 0.467358 0.118768 0.153201
H10   H     H_    0.918654 0.682873 0.617636 0.181727
H11   H     H_    0.926901 0.508041 0.268572 0.194164
H12   H     H_    0.440507 0.886568 0.302034 0.202544
H13   H     H_    0.546292 0.912564 0.585802 0.141928
H14   H     H_    0.486571 0.113530 0.292978 0.204502
N1    N     N_2   0.501360 0.501330 0.852150 0.054349
N2    N     N_2   0.501400 0.501360 0.147810 -0.135249
O1    O     O_R   0.499980 0.319060 0.613040 -0.564888
O2    O     O_2   0.270947 0.479287 0.965064 -0.296200
O3    O     O_3   0.314019 0.320285 0.782065 -0.495697
O4    O     O_2   0.182708 0.812647 0.462610 -0.297330
O5    O     O_2   0.184835 0.708985 0.246516 -0.283850
O6    O     O_3   0.981227 0.829527 0.316531 -0.536341
O7    O     O_2   0.179431 0.307810 0.234291 -0.240300
O8    O     O_2   0.171615 0.186696 0.442014 -0.282602
O9    O     O_3   0.970476 0.185670 0.294194 -0.548662
O10   O     O_R   0.500020 0.319100 0.386900 -0.594020
O11   O     O_R   0.313930 0.499950 0.613050 -0.563518
O12   O     O_R   0.313970 0.499990 0.386910 -0.556524
O13   O     O_R   0.499980 0.680900 0.613100 -0.627395
O14   O     O_R   0.500020 0.680940 0.386960 -0.617702
O15   O     O_R   0.686030 0.500010 0.613090 -0.647333
O16   O     O_R   0.686070 0.500050 0.386950 -0.634760
O17   O     O_2   0.420400 0.308594 0.007355 -0.273518
S1    S     S_3+6 0.376317 0.402424 0.906709 0.134538
S2    S     S_3+6 0.104012 0.741691 0.364902 0.037607
S3    S     S_3+6 0.096452 0.266943 0.349478 0.046209
Zn1   Zn    Zn3+2 0.499970 0.499970 0.650990 1.072737
Zn2   Zn    Zn3+2 0.500030 0.500030 0.349010 1.061721

loop_
_geom_bond_atom_site_label_1
_geom_bond_atom_site_label_2
_ccdc_geom_bond_type
N1    Zn1   S    
C5    C8    S    
C11   C12   S    
C10   C13   S    
C15   H13   S    
C6    C7    S    
C2    C18   S    
C9    C10   S    
O10   Zn2   S    
O9    S3    S    
C1    C17   S    
C3    C13   S    
C12   S3    S    
C17   H7    S    
C18   H8    S    
C2    N2    D    
C4    C15   S    
C8    C9    S    
C7    C8    S    
O5    S2    D    
O8    S3    D    
N1    S1    S    
N2    Zn2   S    
H2    O3    S    
C3    O12   A    
C5    O15   A    
C2    H9    S    
O4    S2    D    
C14   H12   S    
C8    C11   S    
C7    H1    S    
C11   H11   S    
C7    C12   S    
C5    O16   A    
C18   N1    D    
C14   C16   S    
O7    S3    D    
C16   H14   S    
C10   C11   S    
O3    S1    S    
O1    Zn1   S    
H5    O6    S    
C6    H4    S    
C6    C9    S    
C12   C13   S    
O11   Zn1   S    
O13   Zn1   S    
O6    S2    S    
C4    O14   A    
O12   Zn2   S    
O14   Zn2   S    
H6    O9    S    
C14   C15   D    
C10   S2    S    
H3    N2    S    
C1    O10   A    
C1    O1    A    
O15   Zn1   S    
C3    O11   A    
O16   Zn2   S    
O17   S1    D    
C9    H10   S    
C16   C17   D    
C6    C13   S    
C4    O13   A    
O2    S1    D    
