data_mof_unit_36028.cif
_audit_creation_date              2012-12-11T15:55:49-0500
_audit_creation_method            fapswitch 2.2
_symmetry_space_group_name_H-M    P1
_symmetry_Int_Tables_number       1
_space_group_crystal_system       triclinic
_cell_length_a                    6.93834
_cell_length_b                    14.564213
_cell_length_c                    16.069981
_cell_angle_alpha                 89.927987
_cell_angle_beta                  89.808896
_cell_angle_gamma                 90.034171
_cell_volume                      1623.88446006

loop_
_atom_site_label
_atom_site_type_symbol
_atom_type_description
_atom_site_fract_x
_atom_site_fract_y
_atom_site_fract_z
_atom_type_partial_charge
O1    O     O_R   0.505680 0.583900 0.413320 -0.530953
O2    O     O_R   0.176010 0.594950 0.586080 -0.545866
O3    O     O_R   0.005680 0.416100 0.586680 -0.540981
C1    C     C_R   0.344943 0.617179 0.615027 0.676448
O4    O     O_R   0.175960 0.594930 0.413930 -0.526743
O5    O     O_R   0.005640 0.416080 0.413300 -0.539190
C2    C     C_R   0.345147 0.615079 0.383370 0.687524
O6    O     O_R   0.505720 0.583920 0.586700 -0.542387
O7    O     O_3   0.339190 0.441320 0.500000 -0.376125
V1    V     V_3+5 0.064350 0.510890 0.500000 1.431289
O8    O     O_R   0.675920 0.405050 0.413920 -0.537491
C3    C     C_R   0.846312 0.381134 0.386254 0.755845
O9    O     O_R   0.675960 0.405070 0.586070 -0.546915
C4    C     C_R   0.844553 0.382778 0.614698 0.676270
V2    V     V_3+5 0.564340 0.489110 0.500000 1.416230
O10   O     O_3   0.839370 0.558680 0.500000 -0.364483
C5    C     C_R   0.007554 0.251158 0.688020 0.091718
C6    C     C_R   0.852184 0.312038 0.681014 -0.105855
C7    C     C_R   0.700476 0.302314 0.738823 -0.172489
H1    H     H_    0.577764 0.347793 0.735992 0.129732
C8    C     C_R   0.712509 0.238598 0.804740 -0.175853
H2    H     H_    0.597576 0.236062 0.850279 0.129811
C9    C     C_R   0.877188 0.183198 0.815115 -0.108326
C10   C     C_R   0.019887 0.188434 0.753441 0.100073
C11   C     C_3   0.231260 0.203232 0.762182 -0.410279
C12   C     C_3   0.217898 0.271059 0.690494 -0.395854
H3    H     H_    0.315673 0.140676 0.746644 0.171334
H4    H     H_    0.267775 0.236122 0.822456 0.172344
H5    H     H_    0.293521 0.247470 0.633302 0.168543
H6    H     H_    0.247772 0.343186 0.708960 0.170124
C13   C     C_R   0.041925 0.200674 0.233788 -0.168731
H7    H     H_    0.175858 0.164982 0.221061 0.134728
C14   C     C_R   0.035201 0.262527 0.300476 0.279736
C15   C     C_R   0.861068 0.310896 0.318625 -0.108589
C16   C     C_R   0.698048 0.291962 0.269649 -0.137239
H8    H     H_    0.563613 0.327239 0.280999 0.155314
C17   C     C_R   0.706476 0.228974 0.204066 -0.153882
H9    H     H_    0.577851 0.216973 0.167638 0.133426
C18   C     C_R   0.879248 0.183458 0.184770 -0.109621
C19   C     C_R   0.188158 0.724880 0.717604 -0.158471
H10   H     H_    0.047523 0.706630 0.693733 0.115793
C20   C     C_R   0.199379 0.788424 0.782788 -0.150253
H11   H     H_    0.066771 0.817305 0.806922 0.118814
C21   C     C_R   0.378841 0.814378 0.816173 -0.046748
C22   C     C_R   0.546760 0.775004 0.782431 -0.156916
H12   H     H_    0.687396 0.793257 0.806297 0.116970
C23   C     C_R   0.535539 0.711461 0.717245 -0.152050
H13   H     H_    0.668149 0.682588 0.693105 0.118190
C24   C     C_R   0.356077 0.685502 0.683863 -0.045956
C25   C     C_R   0.210164 0.746283 0.301334 -0.078673
H14   H     H_    0.087749 0.747968 0.343305 0.136502
C26   C     C_R   0.219698 0.811182 0.237132 -0.135438
H15   H     H_    0.103652 0.860388 0.230771 0.115918
C27   C     C_R   0.378992 0.814037 0.183065 -0.069477
C28   C     C_R   0.526524 0.749283 0.193340 -0.178750
H16   H     H_    0.647457 0.749099 0.150424 0.140777
C29   C     C_R   0.514852 0.681090 0.255201 -0.085760
C30   C     C_R   0.357081 0.680810 0.312089 -0.127800
O11   O     O_R   0.229200 0.915950 0.913350 -0.540272
O12   O     O_R   0.559090 0.905000 0.086080 -0.541705
O13   O     O_R   0.729280 0.083880 0.086680 -0.540424
C31   C     C_R   0.389920 0.883058 0.115099 0.696595
O14   O     O_R   0.558920 0.904980 0.913920 -0.543920
O15   O     O_R   0.729110 0.083860 0.913300 -0.540459
C32   C     C_R   0.389979 0.882714 0.885000 0.686477
O16   O     O_R   0.229360 0.915970 0.086730 -0.538321
O17   O     O_3   0.395680 0.058580 0.000030 -0.371425
V3    V     V_3+5 0.670570 0.989070 0.999990 1.405797
O18   O     O_R   0.058820 0.094950 0.913870 -0.540182
C33   C     C_R   0.889927 0.117123 0.885178 0.695696
O19   O     O_R   0.058990 0.094970 0.086020 -0.545340
C34   C     C_R   0.889786 0.116708 0.115099 0.703428
V4    V     V_3+5 0.170560 0.010930 0.999930 1.404371
O20   O     O_3   0.895590 0.941310 0.999960 -0.368290
C35   C     C_2   0.663927 0.608033 0.254391 0.799675
O21   O     O_2   0.834074 0.628988 0.250458 -0.548199
O22   O     O_R   0.613364 0.515135 0.254504 -0.653244
H17   H     H_    0.469195 0.504716 0.251318 0.237007
N1    N     N_2   0.206389 0.273034 0.347918 -0.535246
H18   H     H_    0.261755 0.338523 0.350718 0.271992
C36   C     C_3   0.211053 0.222376 0.425335 -0.511915
H19   H     H_    0.185545 0.148202 0.413564 0.188904
H20   H     H_    0.355036 0.230213 0.454459 0.189657
H21   H     H_    0.099933 0.248559 0.469180 0.180035

loop_
_geom_bond_atom_site_label_1
_geom_bond_atom_site_label_2
_ccdc_geom_bond_type
C28   H16   S    
O14   C32   A    
V4    O20   S    
C4    C6    S    
C16   H8    S    
C1    O6    A    
C36   H19   S    
C23   C24   A    
O22   H17   S    
C21   C22   A    
C11   H4    S    
C5    C12   S    
O15   V3    S    
C7    C8    A    
C6    C7    A    
O5    C3    A    
V3    O20   S    
C19   C24   A    
O12   C31   A    
C15   C16   A    
C27   C28   A    
O8    V2    S    
C7    H1    S    
C25   C26   A    
C18   C34   S    
C13   C14   A    
O18   V4    S    
O17   V4    S    
O15   C33   A    
O7    V1    S    
O11   V4    S    
C2    C30   S    
C19   C20   A    
C8    H2    S    
C9    C33   S    
C21   C32   S    
C20   C21   A    
C36   H20   S    
C26   C27   A    
C25   H14   S    
C22   C23   A    
C8    C9    A    
C5    C10   A    
C31   O16   A    
O17   V3    S    
C25   C30   A    
C14   C15   A    
C10   C11   S    
N1    C36   S    
C14   N1    S    
C27   C31   S    
C11   C12   S    
C22   H12   S    
O16   V4    S    
O2    C1    A    
C35   O21   D    
C17   H9    S    
C23   H13   S    
C9    C10   A    
C5    C6    A    
C35   O22   S    
O3    C4    A    
O1    V2    S    
O13   C34   A    
C19   H10   S    
C12   H6    S    
O6    V2    S    
O9    V2    S    
C20   H11   S    
C3    C15   S    
O2    V1    S    
C36   H21   S    
C26   H15   S    
O4    C2    A    
O14   V3    S    
C16   C17   A    
O1    C2    A    
C13   H7    S    
O5    V1    S    
O8    C3    A    
C11   H3    S    
C1    C24   S    
C29   C35   S    
C28   C29   A    
O7    V2    S    
O4    V1    S    
C17   C18   A    
O3    V1    S    
V1    O10   S    
O11   C32   A    
O13   V3    S    
C29   C30   A    
C13   C18   A    
O18   C33   A    
N1    H18   S    
O19   C34   A    
O12   V3    S    
C12   H5    S    
O19   V4    S    
O9    C4    A    
V2    O10   S    
