data_mof_unit_53224.cif
_audit_creation_date              2012-12-10T19:46:55-0500
_audit_creation_method            fapswitch 2.2
_symmetry_space_group_name_H-M    P1
_symmetry_Int_Tables_number       1
_space_group_crystal_system       triclinic
_cell_length_a                    10.874311
_cell_length_b                    10.883352
_cell_length_c                    13.133406
_cell_angle_alpha                 90.139977
_cell_angle_beta                  89.877175
_cell_angle_gamma                 90.056925
_cell_volume                      1554.31589843

loop_
_atom_site_label
_atom_site_type_symbol
_atom_type_description
_atom_site_fract_x
_atom_site_fract_y
_atom_site_fract_z
_atom_type_partial_charge
C1    C     C_R   0.491821 0.259729 0.499814 0.823518
C2    C     C_R   0.714910 0.823732 0.669593 -0.113672
C3    C     C_R   0.399698 0.117732 0.321762 0.114350
C4    C     C_R   0.600282 0.882238 0.678285 0.114259
C5    C     C_R   0.457932 0.111538 0.226356 -0.155874
C6    C     C_R   0.542142 0.888742 0.773718 -0.155883
C7    C     C_R   0.402841 0.164887 0.141099 -0.143827
C8    C     C_R   0.597186 0.835443 0.859017 -0.143842
C9    C     C_R   0.288731 0.222983 0.150354 -0.116607
C10   C     C_R   0.711157 0.777074 0.849778 -0.116699
C11   C     C_R   0.468615 0.933243 0.413032 -0.223640
C12   C     C_R   0.508201 0.740266 0.500187 0.823139
C13   C     C_R   0.531451 0.066748 0.586971 -0.223889
C14   C     C_R   0.509307 0.872990 0.500548 -0.091037
C15   C     C_R   0.490749 0.127000 0.499456 -0.091012
C16   C     C_R   0.259696 0.505984 0.499909 0.818315
C17   C     C_R   0.740312 0.494127 0.500094 0.818391
C18   C     C_R   0.543640 0.940086 0.587961 0.003000
C19   C     C_R   0.456412 0.059899 0.412051 0.003037
C20   C     C_1   0.499964 0.500009 0.173603 0.152406
C21   C     C_1   0.500035 0.499993 0.826397 0.152315
C22   C     C_1   0.499969 0.500000 0.050683 -0.099746
C23   C     C_R   0.872806 0.494028 0.500536 -0.092184
C24   C     C_1   0.500028 0.500004 0.949317 -0.099724
C25   C     C_R   0.209421 0.815632 0.265273 -0.115404
C26   C     C_R   0.791095 0.183555 0.733850 -0.115452
C27   C     C_R   0.158939 0.752068 0.348056 0.178241
C28   C     C_R   0.841532 0.247628 0.651322 0.178044
C29   C     C_R   0.120161 0.628885 0.335177 0.078589
C30   C     C_R   0.879882 0.370877 0.664597 0.078476
C31   C     C_R   0.132912 0.572387 0.239540 -0.145338
C32   C     C_R   0.866761 0.426947 0.760373 -0.145162
C33   C     C_R   0.186118 0.635912 0.158319 -0.142685
C34   C     C_R   0.127201 0.506210 0.499494 -0.091993
C35   C     C_R   0.813701 0.362871 0.841367 -0.142784
C36   C     C_R   0.224268 0.757440 0.171157 -0.174843
C37   C     C_R   0.775984 0.241268 0.828136 -0.174944
C38   C     C_R   0.933531 0.552319 0.420152 -0.250129
C39   C     C_R   0.066470 0.447958 0.579896 -0.250042
C40   C     C_R   0.939310 0.440183 0.580895 -0.002187
C41   C     C_R   0.060700 0.560037 0.419123 -0.002251
C42   C     C_R   0.229518 0.227688 0.244853 -0.128059
C43   C     C_R   0.770273 0.772035 0.755249 -0.128121
C44   C     C_R   0.284928 0.175948 0.330469 -0.113589
Cu1   Cu    Cu3+1 0.499990 0.499990 0.592680 0.980498
Cu2   Cu    Cu3+1 0.500010 0.500010 0.407320 0.980505
H1    H     H_    0.264469 0.806959 0.107910 0.136478
H2    H     H_    0.763838 0.088549 0.725029 0.152201
H3    H     H_    0.101152 0.479303 0.227839 0.121364
H4    H     H_    0.898146 0.520105 0.772366 0.121349
H5    H     H_    0.196715 0.591224 0.085107 0.134255
H6    H     H_    0.802890 0.407191 0.914712 0.134285
H7    H     H_    0.881595 0.594999 0.359314 0.155112
H8    H     H_    0.118403 0.405217 0.640707 0.155104
H9    H     H_    0.245932 0.263762 0.084240 0.122698
H10   H     H_    0.753925 0.736344 0.915926 0.122762
H11   H     H_    0.140213 0.270431 0.251798 0.118460
H12   H     H_    0.735934 0.191304 0.891211 0.136570
H13   H     H_    0.859474 0.729075 0.748312 0.118507
H14   H     H_    0.238005 0.180037 0.403247 0.111049
H15   H     H_    0.761769 0.819398 0.596797 0.110981
H16   H     H_    0.197896 0.767955 0.497951 0.210602
H17   H     H_    0.053696 0.811581 0.465407 0.221129
H18   H     H_    0.803600 0.232516 0.501184 0.210665
H19   H     H_    0.947455 0.188469 0.534306 0.221048
H20   H     H_    0.546048 0.066209 0.218291 0.124728
H21   H     H_    0.454138 0.934289 0.781778 0.124731
H22   H     H_    0.448386 0.160835 0.067803 0.127016
H23   H     H_    0.551717 0.839750 0.932336 0.126981
H24   H     H_    0.442170 0.881078 0.346210 0.158015
H25   H     H_    0.557894 0.118917 0.653791 0.158078
H26   H     H_    0.237010 0.910590 0.273777 0.152036
N1    N     N_1   0.500030 0.500030 0.268070 -0.130874
N2    N     N_1   0.499970 0.499970 0.731930 -0.130885
N3    N     N_3   0.146123 0.814768 0.443499 -0.608666
N4    N     N_3   0.854863 0.185337 0.555746 -0.608580
O1    O     O_R   0.499980 0.319630 0.578260 -0.584407
O2    O     O_R   0.500020 0.680370 0.421740 -0.584469
O3    O     O_R   0.500000 0.319650 0.421740 -0.567790
O4    O     O_R   0.500000 0.680350 0.578260 -0.567828
O5    O     O_R   0.319630 0.500000 0.578260 -0.588298
O6    O     O_R   0.680370 0.500000 0.421740 -0.588301
O7    O     O_R   0.319650 0.500020 0.421740 -0.566272
O8    O     O_R   0.680350 0.499980 0.578260 -0.566296

loop_
_geom_bond_atom_site_label_1
_geom_bond_atom_site_label_2
_ccdc_geom_bond_type
C27   C29   A    
C1    O1    A    
C14   C18   A    
C9    C42   A    
C11   H24   S    
Cu1   Cu2   S    
C15   C19   A    
C11   C19   A    
C8    H23   S    
C17   C23   S    
H19   N4    S    
C13   C18   A    
C35   C37   A    
Cu2   O3    S    
C11   C14   A    
C39   H8    S    
C23   C40   A    
C33   C36   A    
C36   H1    S    
C17   O6    A    
C16   C34   S    
C7    H22   S    
Cu2   O6    S    
C12   O2    A    
C31   C33   A    
C3    C19   S    
C1    C15   S    
C10   H10   S    
C37   H12   S    
C2    H15   S    
C26   H2    S    
C4    C18   S    
C34   C41   A    
C42   C44   A    
C31   H3    S    
C27   N3    S    
C42   H11   S    
C3    C44   A    
C34   C39   A    
C32   C35   A    
C38   C41   A    
C4    C6    A    
C39   C40   A    
Cu2   O2    S    
C6    C8    A    
C13   H25   S    
C21   N2    T    
C16   O7    A    
Cu1   N2    S    
C2    C4    A    
C2    C43   A    
H18   N4    S    
C30   C40   S    
C25   H26   S    
C32   H4    S    
C9    H9    S    
C6    H21   S    
C20   C22   S    
C13   C15   A    
C1    O3    A    
C22   C24   T    
H16   N3    S    
Cu1   O8    S    
C25   C27   A    
C28   N4    S    
C5    C7    A    
C7    C9    A    
C29   C41   S    
C10   C43   A    
Cu1   O5    S    
C12   C14   S    
C5    H20   S    
C3    C5    A    
C26   C37   A    
C43   H13   S    
C33   H5    S    
C23   C38   A    
C26   C28   A    
C17   O8    A    
C28   C30   A    
C29   C31   A    
C30   C32   A    
C38   H7    S    
H17   N3    S    
C44   H14   S    
C12   O4    A    
C16   O5    A    
C20   N1    T    
Cu1   O4    S    
C25   C36   A    
Cu2   O7    S    
C8    C10   A    
C21   C24   S    
C35   H6    S    
Cu1   O1    S    
Cu2   N1    S    
