data_mof_unit_59112.cif
_audit_creation_date              2013-03-05T16:02:59-0500
_audit_creation_method            fapswitch 2.2
_symmetry_space_group_name_H-M    P1
_symmetry_Int_Tables_number       1
_space_group_crystal_system       triclinic
_cell_length_a                    14.90273
_cell_length_b                    14.140572
_cell_length_c                    10.486847
_cell_angle_alpha                 89.540679
_cell_angle_beta                  89.236292
_cell_angle_gamma                 89.833072
_cell_volume                      2209.65003168

loop_
_atom_site_label
_atom_site_type_symbol
_atom_site_description
_atom_site_fract_x
_atom_site_fract_y
_atom_site_fract_z
_atom_type_partial_charge
O1    O     O_R   0.367850 0.580280 0.500030 -0.591607
O2    O     O_R   0.632150 0.419720 0.499970 -0.591610
O3    O     O_R   0.632150 0.580280 0.499970 -0.584643
O4    O     O_R   0.367850 0.419720 0.500030 -0.584643
C1    C     C_R   0.327083 0.499956 0.500559 0.876094
C2    C     C_R   0.672917 0.500044 0.499441 0.876090
O5    O     O_R   0.499970 0.580260 0.313950 -0.597520
O6    O     O_R   0.500030 0.419740 0.686050 -0.597519
O7    O     O_R   0.500030 0.580260 0.686050 -0.596130
O8    O     O_R   0.499970 0.419740 0.313950 -0.596129
C3    C     C_R   0.499663 0.500423 0.257418 0.887094
C4    C     C_R   0.500337 0.499577 0.742582 0.887097
Zn1   Zn    Zn3+2 0.500000 0.607200 0.500000 1.051750
Zn2   Zn    Zn3+2 0.500000 0.392800 0.500000 1.051749
C5    C     C_3   0.489273 0.589748 0.039032 -0.067342
C6    C     C_3   0.510727 0.410252 0.960968 -0.067341
C7    C     C_3   0.568190 0.553601 0.955876 -0.166581
C8    C     C_3   0.431810 0.446399 0.044124 -0.166572
C9    C     C_3   0.421592 0.534754 0.958095 -0.135113
C10   C     C_3   0.578408 0.465246 0.041905 -0.135125
H1    H     H_    0.357688 0.562515 0.919227 0.210818
H2    H     H_    0.642312 0.437485 0.080773 0.210803
H3    H     H_    0.480040 0.662925 0.074512 0.201661
H4    H     H_    0.519959 0.337075 0.925488 0.201658
H5    H     H_    0.623697 0.596997 0.915099 0.170447
H6    H     H_    0.376303 0.403003 0.084901 0.170450
C11   C     C_3   0.500458 0.498733 0.877639 -0.027806
C12   C     C_3   0.499542 0.501267 0.122361 -0.027804
C13   C     C_R   0.814479 0.450670 0.404591 -0.113212
C14   C     C_R   0.185522 0.549321 0.595423 -0.113193
C15   C     C_R   0.768313 0.500805 0.498226 -0.053389
C16   C     C_R   0.231686 0.499192 0.501781 -0.053401
C17   C     C_R   0.812443 0.553177 0.589497 -0.158621
C18   C     C_R   0.187556 0.446810 0.410520 -0.158602
C19   C     C_R   0.905188 0.552581 0.591402 0.082478
C20   C     C_R   0.094811 0.447397 0.408626 0.082483
C21   C     C_R   0.953315 0.500922 0.498139 0.031446
C22   C     C_R   0.046685 0.499055 0.501890 0.031439
C23   C     C_R   0.907815 0.451150 0.401444 -0.009827
C24   C     C_R   0.092185 0.548826 0.598587 -0.009817
C25   C     C_R   0.949891 0.601266 0.686824 -0.234842
C26   C     C_R   0.050108 0.398697 0.313218 -0.234829
C27   C     C_R   0.043232 0.598695 0.693005 0.315973
C28   C     C_R   0.956767 0.401262 0.307045 0.315979
H7    H     H_    0.776572 0.412150 0.334965 0.223855
H8    H     H_    0.223429 0.587849 0.665040 0.223863
C29   C     C_R   0.563297 0.798673 0.429423 0.328078
C30   C     C_R   0.436703 0.201327 0.570576 0.328075
C31   C     C_R   0.436666 0.798439 0.570334 0.343137
C32   C     C_R   0.563334 0.201560 0.429667 0.343131
N1    N     N_R   0.500000 0.750030 0.500000 -0.215896
N2    N     N_R   0.500000 0.249970 0.500000 -0.215895
C33   C     C_R   0.435909 0.898948 0.572549 -0.079672
C34   C     C_R   0.564091 0.101052 0.427452 -0.079675
C35   C     C_R   0.564207 0.899251 0.427460 -0.080094
C36   C     C_R   0.435793 0.100748 0.572540 -0.080091
C37   C     C_R   0.500054 0.949495 0.500038 0.045865
C38   C     C_R   0.499947 0.050505 0.499962 0.045866
C39   C     C_R   0.372788 0.950144 0.645889 -0.102480
C40   C     C_R   0.627213 0.049856 0.354112 -0.102474
C41   C     C_R   0.627299 0.950851 0.354184 -0.112251
C42   C     C_R   0.372701 0.049149 0.645817 -0.112254
H9    H     H_    0.323076 0.914173 0.704530 0.212443
H10   H     H_    0.676924 0.085827 0.295471 0.212452
H11   H     H_    0.677135 0.915171 0.295846 0.206830
H12   H     H_    0.322865 0.084829 0.704154 0.206827
H13   H     H_    0.774258 0.592060 0.660820 0.145352
H14   H     H_    0.225740 0.407928 0.339196 0.145356
H15   H     H_    0.911937 0.639363 0.758984 0.193038
H16   H     H_    0.088059 0.360589 0.241065 0.193023
N3    N     N_R   0.086505 0.645336 0.796692 0.224654
O9    O     O_R   0.057191 0.727207 0.835103 -0.325408
O10   O     O_R   0.142890 0.599000 0.867579 -0.377268
N4    N     N_R   0.913491 0.354583 0.203393 0.224651
O11   O     O_R   0.942768 0.272670 0.165089 -0.325377
O12   O     O_R   0.857140 0.400907 0.132437 -0.377234
N5    N     N_R   0.629096 0.747451 0.357372 0.228006
O13   O     O_R   0.613205 0.727070 0.239156 -0.402659
O14   O     O_R   0.711258 0.743869 0.397587 -0.375451
N6    N     N_R   0.370902 0.252549 0.642622 0.228007
O15   O     O_R   0.386791 0.272935 0.760837 -0.402653
O16   O     O_R   0.288740 0.256127 0.602407 -0.375454
N7    N     N_R   0.369284 0.747216 0.639621 0.220693
O17   O     O_R   0.383998 0.722621 0.757225 -0.398789
O18   O     O_R   0.287100 0.750134 0.599506 -0.393175
N8    N     N_R   0.630716 0.252784 0.360380 0.220694
O19   O     O_R   0.616002 0.277380 0.242776 -0.398782
O20   O     O_R   0.712901 0.249865 0.400493 -0.393151

loop_
_geom_bond_atom_site_label_1
_geom_bond_atom_site_label_2
_geom_bond_distance
_ccdc_geom_bond_type
C14   C16   1.389407 A    
C20   C26   1.396642 A    
C8    H6    1.110398 S    
O3    C2    1.285458 A    
C33   C39   1.409316 A    
C34   C40   1.409316 A    
N5    O13   1.299993 A    
O5    C3    1.279381 A    
C32   C34   1.421633 A    
N4    O12   1.301403 A    
O1    C1    1.289607 A    
C25   H15   1.084492 S    
C9    H1    1.110322 S    
N8    O20   1.300730 A    
C26   H16   1.084492 S    
C7    C10   1.543564 S    
C30   C36   1.422324 A    
C8    C9    1.543565 S    
O7    Zn1   1.984926 S    
Zn1   N1    2.019698 S    
C24   C27   1.413796 A    
Zn2   N2    2.019699 S    
C31   N1    1.374498 A    
C32   N2    1.374496 A    
C15   C17   1.388549 A    
C9    C11   1.526324 S    
O3    Zn1   2.004755 S    
C6    C10   1.542875 S    
C1    C16   1.421624 S    
C6    C11   1.528857 S    
C5    H3    1.109996 S    
C2    C15   1.421622 S    
C6    H4    1.109995 S    
C13   C15   1.389403 A    
C25   C27   1.393769 A    
O2    C2    1.289605 A    
C26   C28   1.393759 A    
O6    Zn2   1.990921 S    
C19   C25   1.396643 A    
N5    O14   1.301051 A    
N4    O11   1.301236 A    
C42   H12   1.082161 S    
C4    C11   1.416302 S    
C7    C11   1.526711 S    
C8    C12   1.526711 S    
N6    O16   1.301052 A    
O8    Zn2   1.984927 S    
C18   H14   1.085816 S    
N3    O10   1.301398 A    
C33   C37   1.406693 A    
N8    O19   1.299988 A    
N6    O15   1.299993 A    
C29   N1    1.373946 A    
C10   C12   1.526325 S    
C13   H7    1.080793 S    
C40   C41   1.399981 A    
C16   C18   1.388550 A    
C5    C9    1.542875 S    
C21   C22   1.392724 A    
N7    O17   1.299987 A    
C30   N2    1.373947 A    
O6    C4    1.279381 A    
C13   C23   1.390957 A    
C14   C24   1.390963 A    
C28   N4    1.437299 S    
N7    O18   1.300731 A    
C10   H2    1.110322 S    
C35   C37   1.408344 A    
C36   C42   1.408075 A    
O1    Zn1   2.006933 S    
C29   N5    1.428966 S    
C5    C12   1.528857 S    
C17   H13   1.085814 S    
C29   C35   1.422324 A    
C34   C38   1.406693 A    
C5    C7    1.543113 S    
C39   C42   1.399983 A    
C27   N3    1.437314 S    
C19   C21   1.412181 A    
C14   H8    1.080792 S    
O4    C1    1.285458 A    
C23   C28   1.413782 A    
C39   H9    1.082024 S    
C40   H10   1.082025 S    
C7    H5    1.110399 S    
C31   N7    1.427343 S    
C20   C22   1.412184 A    
N3    O9    1.301241 A    
C21   C23   1.419829 A    
C22   C24   1.419832 A    
C30   N6    1.428965 S    
C37   C38   1.428334 A    
C3    C12   1.416302 S    
C31   C33   1.421633 A    
C35   C41   1.408075 A    
C17   C19   1.382564 A    
C36   C38   1.408342 A    
C18   C20   1.382556 A    
O4    Zn2   2.004756 S    
O2    Zn2   2.006931 S    
O7    C4    1.281542 A    
O8    C3    1.281542 A    
C32   N8    1.427344 S    
C41   H11   1.082163 S    
O5    Zn1   1.990922 S    
C6    C8    1.543113 S    
