data_mof_unit_56542.cif
_audit_creation_date              2012-10-26T19:59:42-0400
_audit_creation_method            fapswitch 2.2
_symmetry_space_group_name_H-M    P1
_symmetry_Int_Tables_number       1
_space_group_crystal_system       triclinic
_cell_length_a                    10.732138
_cell_length_b                    8.677171
_cell_length_c                    7.459903
_cell_angle_alpha                 102.898104
_cell_angle_beta                  94.134613
_cell_angle_gamma                 92.393383
_cell_volume                      674.212888595

loop_
_atom_site_label
_atom_site_type_symbol
_atom_type_description
_atom_site_fract_x
_atom_site_fract_y
_atom_site_fract_z
_atom_type_partial_charge
C1    C     C_R   0.496435 0.199811 0.453325 0.540787
C2    C     C_R   0.504289 0.800216 0.546637 0.526043
C3    C     C_R   0.737083 0.500827 0.497693 0.538918
C4    C     C_R   0.145289 0.796505 0.630095 -0.096467
C5    C     C_R   0.087067 0.938150 0.684995 -0.121177
C6    C     C_R   0.957139 0.937897 0.678128 -0.125328
C7    C     C_R   0.884790 0.796067 0.615969 -0.107191
C8    C     C_R   0.941992 0.650956 0.559708 0.012997
C9    C     C_3   0.853779 0.206522 0.365789 -0.386433
C10   C     C_R   0.073633 0.651492 0.566964 0.022918
C11   C     C_R   0.129773 0.506966 0.507557 -0.003855
C12   C     C_R   0.058415 0.365218 0.440673 -0.131248
C13   C     C_R   0.928851 0.362475 0.434014 -0.029151
C14   C     C_R   0.871035 0.505494 0.494144 0.023840
C15   C     C_2   0.495090 0.031904 0.427089 -0.163002
C16   C     C_2   0.506435 0.968159 0.572867 -0.172867
C17   C     C_R   0.262947 0.501029 0.502549 0.535111
Cu1   Cu    Cu3+1 0.513920 0.517380 0.684380 0.946607
Cu2   Cu    Cu3+1 0.486080 0.482620 0.315620 0.949714
H1    H     H_    0.104637 0.256239 0.394360 0.115149
H2    H     H_    0.795865 0.182775 0.475250 0.131807
H3    H     H_    0.791614 0.210722 0.241624 0.155660
H4    H     H_    0.914898 0.106049 0.328054 0.129100
H5    H     H_    0.597699 0.622106 0.051146 0.240910
H6    H     H_    0.246364 0.801734 0.636907 0.128766
H7    H     H_    0.142949 0.048509 0.732586 0.115050
H8    H     H_    0.912211 0.048063 0.720555 0.118750
H9    H     H_    0.784129 0.801503 0.611042 0.120245
H10   H     H_    0.484588 0.960395 0.286581 0.137674
H11   H     H_    0.517015 0.039656 0.713378 0.134073
H12   H     H_    0.402314 0.377877 0.948849 0.239574
N1    N     N_2   0.465100 0.456430 0.038520 -0.254533
N2    N     N_2   0.534900 0.543570 0.961480 -0.253900
O1    O     O_R   0.509050 0.286130 0.619770 -0.505437
O2    O     O_R   0.485540 0.256780 0.308360 -0.500875
O3    O     O_R   0.331410 0.514680 0.655740 -0.504884
O4    O     O_R   0.307900 0.485330 0.344330 -0.492856
O5    O     O_R   0.514460 0.743220 0.691640 -0.506171
O6    O     O_R   0.490950 0.713870 0.380230 -0.503090
O7    O     O_R   0.692100 0.514670 0.655670 -0.498731
O8    O     O_R   0.668590 0.485320 0.344260 -0.506500

loop_
_geom_bond_atom_site_label_1
_geom_bond_atom_site_label_2
_ccdc_geom_bond_type
C3    O7    A    
C8    C14   A    
C11   C12   A    
C6    C7    A    
C1    C15   S    
C17   O3    A    
C2    C16   S    
C2    O5    A    
H12   N1    S    
H5    N2    S    
N1    N2    D    
C12   H1    S    
C4    H6    S    
Cu1   O5    S    
C7    C8    A    
C17   O4    A    
C13   C14   A    
Cu1   O1    S    
C9    H2    S    
C3    C14   S    
Cu2   O6    S    
Cu2   N1    S    
C1    O1    A    
C15   H10   S    
C5    C6    A    
Cu1   N2    S    
C9    H3    S    
C10   C11   A    
C16   H11   S    
C5    H7    S    
Cu2   O8    S    
C9    C13   S    
C12   C13   A    
C1    O2    A    
C8    C10   A    
Cu1   Cu2   S    
Cu1   O7    S    
C9    H4    S    
Cu2   O2    S    
Cu2   O4    S    
Cu1   O3    S    
C2    O6    A    
C15   C16   D    
C3    O8    A    
C7    H9    S    
C6    H8    S    
C4    C10   A    
C4    C5    A    
C11   C17   S    
