data_mof_unit_11442.cif
_audit_creation_date              2012-12-10T17:08:12-0500
_audit_creation_method            fapswitch 2.2
_symmetry_space_group_name_H-M    P1
_symmetry_Int_Tables_number       1
_space_group_crystal_system       triclinic
_cell_length_a                    23.526909
_cell_length_b                    11.03927
_cell_length_c                    9.800157
_cell_angle_alpha                 111.196095
_cell_angle_beta                  97.576212
_cell_angle_gamma                 91.045729
_cell_volume                      2346.39483664

loop_
_atom_site_label
_atom_site_type_symbol
_atom_type_description
_atom_site_fract_x
_atom_site_fract_y
_atom_site_fract_z
_atom_type_partial_charge
C1    C     C_R   0.495972 0.254057 0.440581 0.857220
C2    C     C_R   0.504007 0.745943 0.559424 0.856739
C3    C     C_R   0.234970 0.545191 0.400250 0.190064
C4    C     C_R   0.764806 0.451047 0.595673 0.191936
C5    C     C_R   0.294603 0.542026 0.405258 -0.269224
C6    C     C_R   0.705202 0.454442 0.591329 -0.271776
C7    C     C_R   0.328323 0.497798 0.504989 -0.090200
C8    C     C_R   0.671608 0.502368 0.494945 -0.088643
C9    C     C_R   0.301210 0.454368 0.602247 0.126301
C10   C     C_R   0.698788 0.549893 0.401024 0.125331
C11   C     C_R   0.241515 0.459102 0.597346 -0.170921
C12   C     C_R   0.758504 0.545863 0.406022 -0.171406
C13   C     C_R   0.208558 0.503610 0.498050 0.307733
C14   C     C_R   0.791370 0.497646 0.501950 0.309143
C15   C     C_2   0.493809 0.114708 0.407056 -0.353036
C16   C     C_2   0.506217 0.885295 0.592952 -0.353101
C17   C     C_2   0.500923 0.069575 0.516631 -0.152222
C18   C     C_2   0.499199 0.930432 0.483376 -0.151565
C19   C     C_2   0.503694 0.513233 0.081726 -0.084951
C20   C     C_2   0.496225 0.486935 0.918309 -0.085805
C21   C     C_R   0.390935 0.498002 0.501745 0.813908
C22   C     C_R   0.609043 0.502017 0.498267 0.814357
C23   C     C_R   0.886496 0.604885 0.595962 0.520287
C24   C     C_R   0.113429 0.396215 0.403765 0.540456
C25   C     C_R   0.874679 0.391483 0.408412 0.537167
C26   C     C_R   0.125207 0.609732 0.591077 0.517189
C27   C     C_R   0.934099 0.390321 0.405372 -0.017501
C28   C     C_R   0.065796 0.610845 0.594174 -0.015173
C29   C     C_R   0.970005 0.499922 0.500480 -0.018153
C30   C     C_R   0.029895 0.501253 0.499034 -0.018371
C31   C     C_R   0.946154 0.608282 0.596879 -0.015013
C32   C     C_R   0.053754 0.392893 0.402656 -0.018281
C33   C     C_R   0.958336 0.282875 0.309637 -0.165056
C34   C     C_R   0.041563 0.718292 0.689909 -0.164469
C35   C     C_R   0.017568 0.284128 0.308332 -0.165465
C36   C     C_R   0.982337 0.717038 0.691221 -0.165278
Cu1   Cu    Cu3+1 0.509980 0.521810 0.644910 0.939234
Cu2   Cu    Cu3+1 0.490020 0.478190 0.355090 0.939796
H1    H     H_    0.931649 0.197522 0.235475 0.189050
H2    H     H_    0.068249 0.803638 0.764091 0.189979
H3    H     H_    0.553215 0.629386 0.935690 0.194256
H4    H     H_    0.446850 0.370489 0.064280 0.194050
H5    H     H_    0.314958 0.576187 0.331513 0.169973
H6    H     H_    0.684803 0.418313 0.663476 0.169135
H7    H     H_    0.219792 0.426207 0.669925 0.140404
H8    H     H_    0.780288 0.582023 0.336092 0.140912
H9    H     H_    0.492067 0.864533 0.368150 0.180542
H10   H     H_    0.508099 0.135477 0.631856 0.180578
H11   H     H_    0.513499 0.951463 0.707977 0.153230
H12   H     H_    0.486485 0.048537 0.292034 0.153275
H13   H     H_    0.465700 0.408641 0.844393 0.164043
H14   H     H_    0.534143 0.591691 0.155671 0.162979
N1    N     N_R   0.852309 0.497504 0.502991 -0.466328
N2    N     N_R   0.147598 0.503659 0.496629 -0.466817
N3    N     N_2   0.475010 0.445410 0.137370 -0.283195
N4    N     N_2   0.524990 0.554590 0.862630 -0.283033
O1    O     O_R   0.505330 0.332340 0.577400 -0.580328
O2    O     O_R   0.494670 0.667660 0.422600 -0.579732
O3    O     O_R   0.488470 0.295500 0.332650 -0.570748
O4    O     O_R   0.511530 0.704500 0.667350 -0.571097
O5    O     O_R   0.426310 0.518390 0.622390 -0.575115
O6    O     O_R   0.573690 0.481610 0.377610 -0.574672
O7    O     O_R   0.409450 0.481550 0.377650 -0.572689
O8    O     O_R   0.590550 0.518450 0.622350 -0.573004
O9    O     O_2   0.862724 0.707768 0.687027 -0.539580
O10   O     O_2   0.137237 0.292977 0.313435 -0.542609
O11   O     O_2   0.839461 0.287951 0.317536 -0.545236
O12   O     O_2   0.160394 0.713526 0.681458 -0.540412
H15   H     H_    0.034873 0.199675 0.233250 0.186792
H16   H     H_    0.965035 0.801486 0.766319 0.187243
C37   C     C_3   0.200968 0.594957 0.291601 -0.387813
C38   C     C_3   0.197969 0.498352 0.132855 -0.792678
H17   H     H_    0.241675 0.483758 0.101205 0.242248
H18   H     H_    0.177262 0.403188 0.121106 0.284376
H19   H     H_    0.172084 0.536589 0.056096 0.244155
H20   H     H_    0.156427 0.613160 0.315461 0.212638
H21   H     H_    0.221590 0.689734 0.301448 0.206230
C39   C     C_3   0.798790 0.398357 0.701534 -0.396402
C40   C     C_3   0.788696 0.250535 0.648467 -0.784744
H22   H     H_    0.742654 0.222024 0.642524 0.245193
H23   H     H_    0.801870 0.204018 0.537483 0.281913
H24   H     H_    0.814655 0.214437 0.727126 0.248903
H25   H     H_    0.845614 0.423109 0.714513 0.213288
H26   H     H_    0.785807 0.443529 0.813042 0.204775
C41   C     C_3   0.333148 0.399171 0.709033 -0.401072
C42   C     C_3   0.353982 0.265324 0.627979 -0.790471
H27   H     H_    0.316765 0.195829 0.563419 0.259950
H28   H     H_    0.383972 0.270203 0.551660 0.245378
H29   H     H_    0.376773 0.227977 0.709733 0.226477
H30   H     H_    0.369190 0.467883 0.781231 0.218257
H31   H     H_    0.304659 0.387286 0.785998 0.194532
C43   C     C_3   0.666839 0.608793 0.297942 -0.401442
C44   C     C_3   0.645974 0.741485 0.383239 -0.792006
H32   H     H_    0.616327 0.733926 0.459156 0.244329
H33   H     H_    0.683207 0.810494 0.448843 0.258893
H34   H     H_    0.622788 0.781147 0.304124 0.228175
H35   H     H_    0.695307 0.623497 0.222393 0.196186
H36   H     H_    0.630787 0.541112 0.224178 0.217633

loop_
_geom_bond_atom_site_label_1
_geom_bond_atom_site_label_2
_ccdc_geom_bond_type
C44   H32   S    
C27   C29   A    
C38   H18   S    
C19   C20   S    
C25   O11   S    
C17   H10   S    
C20   N4    D    
C18   H9    S    
Cu2   O7    S    
C41   H31   S    
C43   H36   S    
C41   C42   S    
C27   C33   A    
C33   H1    S    
C34   H2    S    
Cu1   Cu2   S    
C25   N1    A    
C19   H14   S    
C20   H13   S    
C1    O3    A    
C37   H20   S    
C2    O4    A    
C24   N2    A    
C7    C9    A    
C15   H12   S    
C9    C41   S    
Cu2   O2    S    
Cu1   N4    S    
C39   H25   S    
Cu2   N3    S    
C8    C22   S    
C1    C15   S    
C2    C16   S    
C21   O5    A    
C3    C13   A    
C24   O10   S    
C5    H5    S    
C10   C43   S    
C44   H33   S    
C6    H6    S    
C38   H19   S    
C26   N2    A    
C36   H16   S    
C43   H35   S    
C23   N1    A    
C32   C35   A    
C16   H11   S    
C12   H8    S    
C40   H23   S    
C42   H27   S    
C6    C8    A    
C7    C21   S    
C22   O8    A    
Cu2   O3    S    
C23   C31   A    
C3    C37   S    
C24   C32   A    
H3    N4    S    
C4    C39   S    
C29   C30   A    
C1    O1    A    
H4    N3    S    
C22   O6    A    
C17   C18   S    
C16   C18   D    
C9    C11   A    
C10   C12   A    
C4    C6    A    
C12   C14   A    
C44   H34   S    
C11   H7    S    
C37   H21   S    
Cu1   O8    S    
C5    C7    A    
C13   N2    S    
C19   N3    D    
C15   C17   D    
C39   C40   S    
C38   H17   S    
C3    C5    A    
C42   H29   S    
C40   H24   S    
Cu1   O5    S    
C41   H30   S    
C2    O2    A    
C25   C27   A    
C26   C28   A    
C26   O12   S    
C23   O9    S    
C28   C30   A    
C37   C38   S    
C29   C31   A    
C30   C32   A    
C11   C13   A    
C43   C44   S    
C33   C35   A    
C34   C36   A    
C42   H28   S    
C4    C14   A    
C21   O7    A    
Cu1   O4    S    
C28   C34   A    
C40   H22   S    
C39   H26   S    
C14   N1    S    
C35   H15   S    
C8    C10   A    
C31   C36   A    
Cu1   O1    S    
Cu2   O6    S    
