data_mof_unit_17524.cif
_audit_creation_date              2012-12-10T17:20:36-0500
_audit_creation_method            fapswitch 2.2
_symmetry_space_group_name_H-M    P1
_symmetry_Int_Tables_number       1
_space_group_crystal_system       triclinic
_cell_length_a                    10.361099
_cell_length_b                    10.340915
_cell_length_c                    13.551166
_cell_angle_alpha                 93.217677
_cell_angle_beta                  76.104131
_cell_angle_gamma                 92.903236
_cell_volume                      1406.16665351

loop_
_atom_site_label
_atom_site_type_symbol
_atom_type_description
_atom_site_fract_x
_atom_site_fract_y
_atom_site_fract_z
_atom_type_partial_charge
C1    C     C_R   0.552718 0.734841 0.497085 0.987476
C2    C     C_2   0.072973 0.479302 0.495366 -0.060739
C3    C     C_1   0.449894 0.514863 0.882564 -0.063362
C4    C     C_1   0.530612 0.449973 0.121422 -0.089766
C5    C     C_2   0.573958 0.873059 0.511859 -0.516497
C6    C     C_2   0.423479 0.130699 0.537975 -0.488275
C7    C     C_2   0.498999 0.936272 0.593129 0.455240
C8    C     C_2   0.502386 0.078934 0.590170 0.437735
C9    C     C_R   0.111986 0.670541 0.593677 0.264328
C10   C     C_R   0.113059 0.686775 0.696952 -0.059345
C11   C     C_R   0.071772 0.802176 0.751409 -0.138566
C12   C     C_R   0.446611 0.265624 0.511563 0.979108
C13   C     C_R   0.031801 0.903115 0.702634 -0.116926
C14   C     C_R   0.033482 0.888868 0.599238 -0.176341
C15   C     C_R   0.075838 0.773863 0.544062 -0.199262
C16   C     C_R   0.901358 0.445882 0.353374 0.266914
C17   C     C_R   0.891876 0.330703 0.295317 -0.112244
C18   C     C_R   0.932454 0.329687 0.189107 -0.175772
C19   C     C_R   0.979897 0.444237 0.140298 -0.110518
C20   C     C_R   0.985562 0.560200 0.197593 -0.143592
C21   C     C_R   0.945143 0.561544 0.303789 -0.178238
C22   C     C_3   0.304008 0.694036 0.015372 -0.354552
C23   C     C_R   0.477687 0.504030 0.687831 0.951523
C24   C     C_3   0.644330 0.246344 0.996125 -0.352203
C25   C     C_3   0.699243 0.101609 0.645042 -0.294251
C26   C     C_3   0.367067 0.944008 0.759078 -0.303888
C27   C     C_R   0.128072 0.368124 0.426561 0.198322
C28   C     C_R   0.105452 0.240878 0.459931 -0.143110
C29   C     C_R   0.151211 0.135968 0.392843 -0.179201
C30   C     C_R   0.216030 0.156682 0.291824 -0.146516
C31   C     C_R   0.234940 0.282265 0.257224 -0.150129
C32   C     C_R   0.190984 0.387414 0.324064 -0.076742
C33   C     C_R   0.859146 0.526135 0.629605 0.200899
C34   C     C_R   0.521602 0.493747 0.312257 0.892985
C35   C     C_R   0.872844 0.446386 0.706757 -0.166516
C36   C     C_R   0.829701 0.487025 0.809019 -0.089013
C37   C     C_R   0.771693 0.607054 0.835267 -0.115038
C38   C     C_R   0.757079 0.686963 0.759219 -0.171420
C39   C     C_R   0.802303 0.647698 0.656793 -0.075143
C40   C     C_1   0.530924 0.470892 0.208203 -0.163151
C41   C     C_1   0.461925 0.509678 0.793293 -0.139335
C42   C     C_2   0.519106 0.432801 0.018725 0.419217
C43   C     C_2   0.445198 0.518498 0.988687 0.422073
C44   C     C_2   0.922207 0.489989 0.522049 -0.055288
H1    H     H_    0.350926 0.071116 0.508014 0.132233
H2    H     H_    0.010906 0.443422 0.058088 0.117837
H3    H     H_    0.019993 0.649246 0.159719 0.127702
H4    H     H_    0.946758 0.652272 0.347439 0.117138
H5    H     H_    0.227771 0.638204 0.983195 0.160964
H6    H     H_    0.371492 0.752876 0.956616 0.170645
H7    H     H_    0.250977 0.762224 0.075930 0.183624
H8    H     H_    0.569424 0.196370 0.056380 0.168561
H9    H     H_    0.726118 0.292970 0.027358 0.165780
H10   H     H_    0.688768 0.171617 0.937549 0.186465
H11   H     H_    0.758759 0.074306 0.567481 0.143676
H12   H     H_    0.646017 0.924478 0.453895 0.101275
H13   H     H_    0.679220 0.016563 0.693855 0.144625
H14   H     H_    0.760252 0.173182 0.679898 0.190262
H15   H     H_    0.297866 0.016460 0.746080 0.176093
H16   H     H_    0.449999 0.991960 0.788040 0.177916
H17   H     H_    0.310715 0.880700 0.819307 0.163852
H18   H     H_    0.053868 0.223164 0.537739 0.106923
H19   H     H_    0.136693 0.038196 0.418408 0.134086
H20   H     H_    0.250407 0.075238 0.240112 0.129748
H21   H     H_    0.282304 0.298056 0.178322 0.141953
H22   H     H_    0.203946 0.484042 0.295389 0.157257
H23   H     H_    0.141055 0.608373 0.736159 0.125745
H24   H     H_    0.920910 0.354758 0.687637 0.100183
H25   H     H_    0.843267 0.426285 0.867885 0.144546
H26   H     H_    0.738844 0.638489 0.914513 0.126761
H27   H     H_    0.713595 0.780625 0.779515 0.129704
H28   H     H_    0.797071 0.713813 0.599102 0.141262
H29   H     H_    0.069329 0.812769 0.831732 0.106020
H30   H     H_    0.998387 0.991897 0.745127 0.109857
H31   H     H_    0.998987 0.966059 0.562839 0.117774
H32   H     H_    0.077010 0.763758 0.463944 0.114469
H33   H     H_    0.853179 0.242110 0.332589 0.119728
H34   H     H_    0.926327 0.240317 0.144637 0.122229
N1    N     N_2   0.847200 0.448220 0.460120 -0.156242
N2    N     N_2   0.152800 0.551780 0.539880 -0.160098
O1    O     O_R   0.430150 0.692610 0.508030 -0.557652
O2    O     O_3   0.584259 0.337572 0.949497 -0.615823
O3    O     O_3   0.580526 0.159814 0.640691 -0.579020
O4    O     O_3   0.414681 0.866287 0.670064 -0.596250
O5    O     O_R   0.569850 0.307390 0.491970 -0.567691
O6    O     O_R   0.653100 0.659360 0.482430 -0.642351
O7    O     O_R   0.346900 0.340640 0.517570 -0.609318
O8    O     O_R   0.372470 0.518990 0.654990 -0.628806
O9    O     O_R   0.627530 0.481010 0.345010 -0.610022
O10   O     O_R   0.595430 0.485740 0.629390 -0.576392
O11   O     O_R   0.404570 0.514260 0.370610 -0.617048
O12   O     O_3   0.377027 0.611236 0.058971 -0.626671
Zn1   Zn    Zn3+2 0.351130 0.522200 0.517090 0.957418
Zn2   Zn    Zn3+2 0.648870 0.477800 0.482910 0.958190

loop_
_geom_bond_atom_site_label_1
_geom_bond_atom_site_label_2
_ccdc_geom_bond_type
C24   H8    S    
C29   H19   S    
C16   C21   A    
C6    H1    S    
C30   H20   S    
C8    O3    S    
C5    H12   S    
C19   C20   A    
C42   O2    S    
C19   H2    S    
C7    C8    S    
C10   H23   S    
C3    C43   S    
C33   C39   A    
C12   O5    A    
C1    C5    S    
C36   C37   A    
C37   C38   A    
C6    C12   S    
C30   C31   A    
C1    O1    A    
C18   C19   A    
O9    Zn2   S    
C24   O2    S    
C34   O11   A    
O6    Zn2   S    
O8    Zn1   S    
C3    C41   T    
C4    C40   T    
C2    C44   S    
C16   C17   A    
C39   H28   S    
C2    C27   S    
C9    C10   A    
C22   H6    S    
C21   H4    S    
C7    O4    S    
C37   H26   S    
C25   H13   S    
O10   Zn2   S    
N1    Zn2   S    
C11   H29   S    
C5    C7    D    
C6    C8    D    
C24   H9    S    
C9    N2    S    
C24   H10   S    
C29   C30   A    
O11   Zn1   S    
O1    Zn1   S    
O5    Zn2   S    
C31   C32   A    
C18   H34   S    
C17   H33   S    
C17   C18   A    
C23   O10   A    
C13   H30   S    
C22   H5    S    
C23   O8    A    
C34   C40   S    
C42   C43   D    
C36   H25   S    
C32   H22   S    
C26   H15   S    
C1    O6    A    
C31   H21   S    
C38   H27   S    
C28   C29   A    
C26   O4    S    
C12   O7    A    
C27   C32   A    
C33   C44   S    
C26   H17   S    
C44   N1    D    
C25   H11   S    
C43   O12   S    
C23   C41   S    
C16   N1    S    
C14   H31   S    
C9    C15   A    
C34   O9    A    
C11   C13   A    
C38   C39   A    
C4    C42   S    
C35   H24   S    
O7    Zn1   S    
C33   C35   A    
C15   H32   S    
C20   H3    S    
C2    N2    D    
C10   C11   A    
C20   C21   A    
C25   H14   S    
C27   C28   A    
C25   O3    S    
C22   O12   S    
C14   C15   A    
C35   C36   A    
N2    Zn1   S    
C13   C14   A    
C26   H16   S    
C22   H7    S    
C28   H18   S    
