data_mof_unit_18063.cif
_audit_creation_date              2012-12-11T19:58:22-0500
_audit_creation_method            fapswitch 2.2
_symmetry_space_group_name_H-M    P1
_symmetry_Int_Tables_number       1
_space_group_crystal_system       triclinic
_cell_length_a                    8.331143
_cell_length_b                    16.032582
_cell_length_c                    22.890788
_cell_angle_alpha                 107.302141
_cell_angle_beta                  89.470095
_cell_angle_gamma                 83.608122
_cell_volume                      2898.12411824

loop_
_atom_site_label
_atom_site_type_symbol
_atom_type_description
_atom_site_fract_x
_atom_site_fract_y
_atom_site_fract_z
_atom_type_partial_charge
Ba1   Ba    Ba6+2 0.335320 0.541410 0.478120 1.725979
Ba2   Ba    Ba6+2 0.854470 0.458670 0.521900 1.698580
C1    C     C_3   0.036068 0.859549 0.346538 -0.154236
C2    C     C_R   0.588536 0.578617 0.949007 -0.022416
C3    C     C_R   0.543414 0.574321 0.888375 0.595982
C4    C     C_3   0.554904 0.739634 0.348122 0.973985
C5    C     C_R   0.441991 0.436773 0.877700 0.568163
C6    C     C_R   0.492631 0.437173 0.936385 -0.018166
C7    C     C_R   0.564842 0.508784 0.972543 -0.050033
C8    C     C_R   0.656913 0.651110 0.986863 -0.079059
C9    C     C_R   0.699747 0.654015 0.046487 -0.078689
C10   C     C_R   0.678199 0.583871 0.070086 -0.014703
C11   C     C_R   0.611932 0.510744 0.032687 -0.052170
C12   C     C_3   0.003111 0.766490 0.344170 0.341986
C13   C     C_R   0.472250 0.366636 0.959585 -0.077985
C14   C     C_R   0.523590 0.367163 0.017553 -0.073429
C15   C     C_R   0.593092 0.439292 0.055060 -0.018424
C16   C     C_3   0.545257 0.767793 0.289797 -0.190567
C17   C     C_R   0.644528 0.440993 0.114186 0.584123
C18   C     C_R   0.720340 0.585874 0.130331 0.584502
C19   C     C_2   0.298094 0.461944 0.764236 -0.082953
C20   C     C_3   0.294716 0.418360 0.695778 -0.100559
C21   C     C_1   0.500779 0.513221 0.686766 0.031284
C22   C     C_2   0.545631 0.518113 0.743852 -0.131887
C23   C     C_3   0.068789 0.341697 0.326467 0.266950
C24   C     C_2   0.433775 0.495464 0.788065 0.191852
C25   C     C_R   0.886158 0.554698 0.240752 -0.128700
C26   C     C_R   0.923465 0.562291 0.301558 -0.083851
C27   C     C_R   0.695248 0.486121 0.313403 0.081114
C28   C     C_3   0.685860 0.734007 0.676480 0.386573
C29   C     C_R   0.651959 0.482674 0.253093 -0.016928
C30   C     C_R   0.745833 0.518112 0.215700 0.221417
C31   C     C_2   0.385747 0.465645 0.660429 -0.252215
C32   C     C_2   0.388827 0.231921 0.486927 -0.192002
C33   C     C_R   0.795162 0.752493 0.514104 -0.268498
C34   C     C_3   0.093912 0.326470 0.257975 -0.379290
C35   C     C_2   0.262363 0.119074 0.410093 -0.153713
C36   C     C_2   0.263652 0.203459 0.442347 0.027289
C37   C     C_2   0.521982 0.177781 0.489345 0.051381
C38   C     C_3   0.543185 0.084144 0.446606 -0.030270
C39   C     C_3   0.394201 0.049600 0.413430 -0.028667
C40   C     C_3   0.639041 0.824593 0.667850 -0.365671
C41   C     C_2   0.639987 0.014769 0.467849 -0.081720
C42   C     C_2   0.588594 0.974002 0.507397 0.058321
C43   C     C_R   0.841894 0.929701 0.550494 -0.008449
C44   C     C_R   0.703133 0.903991 0.519196 -0.058434
C45   C     C_3   0.582135 0.234899 0.638298 0.329293
C46   C     C_R   0.954310 0.868089 0.564365 -0.133136
C47   C     C_R   0.931160 0.779553 0.546438 0.068886
C48   C     C_R   0.678285 0.813985 0.501228 -0.041871
C49   C     C_3   0.554481 0.267217 0.357208 0.878457
C50   C     C_3   0.573205 0.169152 0.320317 -0.179632
C51   C     C_3   0.149294 0.654835 0.668812 0.282471
C52   C     C_3   0.192076 0.687284 0.735707 -0.378182
C53   C     C_3   0.738816 0.118744 0.324977 -0.193452
C54   C     C_3   0.863257 0.123783 0.277311 -0.370603
C55   C     C_3   0.096415 0.866584 0.284725 -0.200030
C56   C     C_3   0.582402 0.192146 0.689896 -0.244359
C57   C     C_3   0.963739 0.862971 0.238968 -0.432949
C58   C     C_3   0.532117 0.867378 0.301620 -0.280734
C59   C     C_3   0.521630 0.891005 0.241740 -0.429175
C60   C     C_3   0.638091 0.252561 0.749116 -0.186608
C61   C     C_3   0.649061 0.208262 0.799755 -0.256758
C62   C     C_3   0.055719 0.160342 0.663211 -0.147904
C63   C     C_3   0.155108 0.084471 0.679097 -0.428379
C64   C     C_3   0.439449 0.008466 0.550046 -0.187847
C65   C     C_3   0.277482 0.999738 0.519180 -0.354389
C66   C     C_3   0.751462 0.742991 0.740672 -0.206053
C67   C     C_3   0.104177 0.252315 0.696312 0.268102
C68   C     C_3   0.621148 0.773740 0.792523 -0.351583
C69   C     C_3   0.106805 0.269727 0.766432 1.052207
C70   C     C_R   0.826557 0.529591 0.337634 -0.238153
F1    F     F_    0.620165 0.279978 0.413883 -0.735988
F2    F     F_    0.253161 0.234981 0.781937 -0.723477
F3    F     F_    0.987072 0.232961 0.788529 -0.756690
F4    F     F_    0.508822 0.656036 0.333674 -0.700100
H1    H     H_    0.955743 0.769304 0.390477 -0.042806
H2    H     H_    0.128856 0.880269 0.380763 0.108746
H3    H     H_    0.268541 0.741503 0.742321 0.140980
H4    H     H_    0.257948 0.633396 0.749844 0.067554
H5    H     H_    0.081914 0.711848 0.765985 0.109327
H6    H     H_    0.911138 0.745007 0.310023 -0.023360
H7    H     H_    0.924387 0.905811 0.362695 0.038198
H8    H     H_    0.937968 0.356899 0.339163 0.018625
H9    H     H_    0.132452 0.398630 0.350474 0.069937
H10   H     H_    0.031264 0.270422 0.231676 0.123647
H11   H     H_    0.045032 0.385923 0.245777 0.067546
H12   H     H_    0.542199 0.863787 0.701627 0.120489
H13   H     H_    0.225103 0.311915 0.244904 0.126655
H14   H     H_    0.584146 0.307164 0.656904 0.032175
H15   H     H_    0.468160 0.223597 0.613830 -0.113373
H16   H     H_    0.459124 0.178628 0.698467 0.139416
H17   H     H_    0.659258 0.127522 0.676227 0.117670
H18   H     H_    0.227760 0.253457 0.678396 -0.076142
H19   H     H_    0.088192 0.340941 0.790244 -0.005861
H20   H     H_    0.506699 0.311135 0.033196 0.124450
H21   H     H_    0.417938 0.309986 0.932621 0.141608
H22   H     H_    0.750723 0.711493 0.074030 0.113231
H23   H     H_    0.745788 0.861483 0.672442 0.067774
H24   H     H_    0.968575 0.576286 0.213025 0.117935
H25   H     H_    0.676765 0.706243 0.970640 0.114749
H26   H     H_    0.663696 0.536754 0.758080 0.129478
H27   H     H_    0.202248 0.455782 0.794119 0.101214
H28   H     H_    0.545117 0.452661 0.235873 0.116516
H29   H     H_    0.859950 0.532947 0.383764 0.052551
H30   H     H_    0.682067 0.737627 0.362076 -0.198447
H31   H     H_    0.379607 0.444439 0.610938 0.072190
H32   H     H_    0.171351 0.100159 0.376594 0.069646
H33   H     H_    0.057611 0.889189 0.590334 0.076617
H34   H     H_    0.591887 0.816527 0.621605 0.092380
H35   H     H_    0.378926 0.300625 0.514127 0.049820
H36   H     H_    0.776514 0.683797 0.501560 0.068638
H37   H     H_    0.758001 0.991588 0.444803 0.052441
H38   H     H_    0.655915 0.737088 0.261149 0.119732
H39   H     H_    0.441137 0.741411 0.263640 0.133975
H40   H     H_    0.780720 0.699650 0.640725 0.033724
H41   H     H_    0.824135 0.092365 0.230417 0.120882
H42   H     H_    0.878400 0.193221 0.282458 0.177055
H43   H     H_    0.981453 0.088733 0.283554 0.117464
H44   H     H_    0.786348 0.142596 0.371377 0.176929
H45   H     H_    0.424352 0.291592 0.363132 -0.075916
H46   H     H_    0.723192 0.048547 0.317367 0.089903
H47   H     H_    0.915674 0.798525 0.226867 0.179128
H48   H     H_    0.864726 0.916587 0.258242 0.133241
H49   H     H_    0.013984 0.871888 0.196427 0.130960
H50   H     H_    0.146167 0.930397 0.292884 0.103713
H51   H     H_    0.194493 0.813145 0.264034 0.152738
H52   H     H_    0.627205 0.857786 0.210341 0.161172
H53   H     H_    0.410002 0.870521 0.218371 0.136082
H54   H     H_    0.518439 0.963274 0.251506 0.131393
H55   H     H_    0.420591 0.898306 0.329892 0.154971
H56   H     H_    0.479264 0.137617 0.336801 0.025358
H57   H     H_    0.638202 0.893617 0.326594 0.108966
H58   H     H_    0.737657 0.148001 0.785803 0.150311
H59   H     H_    0.688723 0.254356 0.842202 0.156571
H60   H     H_    0.529959 0.189699 0.809806 0.190148
H61   H     H_    0.551979 0.312994 0.763439 0.161127
H62   H     H_    0.755755 0.273375 0.740753 0.178815
H63   H     H_    0.284507 0.081700 0.667112 0.120560
H64   H     H_    0.139768 0.089885 0.728272 0.219681
H65   H     H_    0.112576 0.021688 0.653036 0.105509
H66   H     H_    0.927476 0.158093 0.674544 0.160930
H67   H     H_    0.547324 0.161861 0.271572 0.073067
H68   H     H_    0.067706 0.148989 0.612982 0.115931
H69   H     H_    0.225565 0.063918 0.514284 0.113324
H70   H     H_    0.288840 0.948792 0.473928 0.164214
H71   H     H_    0.189543 0.981279 0.548143 0.125710
H72   H     H_    0.442045 0.972283 0.584700 0.102883
H73   H     H_    0.445467 0.078213 0.575689 0.088594
H74   H     H_    0.559080 0.839779 0.795366 0.112919
H75   H     H_    0.531129 0.726095 0.785875 0.169814
H76   H     H_    0.678378 0.777985 0.836765 0.149911
H77   H     H_    0.812713 0.678262 0.741479 0.113321
H78   H     H_    0.262197 0.628683 0.640401 0.048095
H79   H     H_    0.842754 0.790266 0.750069 0.097654
H80   H     H_    0.071220 0.601622 0.662528 0.071378
N1    N     N_R   0.472634 0.502967 0.852325 -0.422406
N2    N     N_R   0.702360 0.515152 0.152784 -0.420940
O1    O     O_2   0.414630 0.451750 0.353890 -0.472654
O2    O     O_2   0.856720 0.189077 0.496912 -0.464293
O3    O     O_3   0.719027 0.197854 0.599276 -0.602039
O4    O     O_3   0.654720 0.452660 0.425060 -0.437036
O5    O     O_3   0.021450 0.605740 0.544090 -0.495096
O6    O     O_2   0.953100 0.285520 0.441860 -0.393115
O7    O     O_3   0.129799 0.264933 0.340177 -0.659187
O8    O     O_2   0.974216 0.484379 0.701765 -0.495661
O9    O     O_3   0.991146 0.316166 0.682848 -0.619943
O10   O     O_2   0.564816 0.634970 0.868373 -0.624238
O11   O     O_2   0.370314 0.376361 0.849206 -0.578834
O12   O     O_3   0.066281 0.725382 0.653218 -0.653232
O13   O     O_2   0.640553 0.375371 0.130612 -0.609936
O14   O     O_2   0.772478 0.651382 0.162700 -0.641846
O15   O     O_3   0.116150 0.611500 0.411510 -0.465301
O16   O     O_2   0.257212 0.543038 0.300158 -0.432551
O17   O     O_3   0.631946 0.312223 0.324148 -0.680773
O18   O     O_3   0.146304 0.708321 0.327776 -0.547729
O19   O     O_2   0.236590 0.714510 0.558180 -0.435796
O20   O     O_3   0.511480 0.656670 0.446630 -0.417461
O21   O     O_2   0.342951 0.809739 0.505199 -0.484205
O22   O     O_3   0.451762 0.797027 0.395604 -0.626727
O23   O     O_2   0.775060 0.548280 0.646150 -0.477767
O24   O     O_3   0.534950 0.547420 0.574950 -0.467573
O25   O     O_3   0.073530 0.388570 0.588510 -0.450092
O26   O     O_3   0.548554 0.689369 0.668015 -0.638712
O27   O     O_3   0.168220 0.394330 0.455930 -0.482788
O28   O     O_3   0.678190 0.343400 0.553390 -0.433103
P1    P     P_3+3 0.594550 0.425840 0.359090 1.054120
P2    P     P_3+3 0.065650 0.701630 0.573510 0.984580
P3    P     P_3+3 0.496146 0.771244 0.463337 1.012958
P4    P     P_3+3 0.595130 0.574230 0.640920 0.979634
P5    P     P_3+3 0.693309 0.227516 0.532450 1.057702
P6    P     P_3+3 0.109113 0.605967 0.334083 1.027995
P7    P     P_3+3 0.131508 0.286113 0.419747 0.970159
P8    P     P_3+3 0.086611 0.400616 0.667380 0.942576

loop_
_geom_bond_atom_site_label_1
_geom_bond_atom_site_label_2
_ccdc_geom_bond_type
C34   H13   S    
C56   C60   S    
C53   C54   S    
C54   H41   S    
C42   C64   S    
C68   H74   S    
C19   C24   D    
C66   H79   S    
Ba2   O4    S    
Ba2   O28   S    
C5    C6    A    
C28   H40   S    
C43   C44   A    
Ba1   O15   S    
C35   C36   D    
O19   P2    D    
C9    H22   S    
C56   H17   S    
C17   O13   D    
O22   P3    S    
C20   P8    S    
O4    P1    S    
C55   C57   S    
C69   H19   S    
C13   C14   A    
O25   P8    S    
C63   H65   S    
C24   N1    S    
Ba1   Ba2   S    
Ba2   O24   S    
C3    O10   D    
O1    P1    D    
O28   P5    S    
C67   C69   S    
C48   P3    S    
C7    C11   A    
C12   O18   S    
C63   H64   S    
Ba1   O19   S    
C38   C41   S    
C14   C15   A    
C21   C31   D    
C31   H31   S    
C65   H69   S    
C23   H8    S    
C21   C22   D    
C64   H72   S    
C50   C53   S    
C59   H53   S    
C27   C70   A    
C64   C65   S    
C53   H46   S    
C51   H78   S    
C18   N2    Am   
C19   C20   S    
C32   H35   S    
O23   P4    D    
C16   H38   S    
C26   C70   A    
C28   O26   S    
O3    P5    S    
C13   H21   S    
C26   P6    S    
C58   H55   S    
C42   C44   S    
C30   N2    S    
C53   H44   S    
Ba1   P1    S    
C34   H11   S    
C57   H47   S    
C4    C16   S    
C25   H24   S    
C14   H20   S    
C50   H67   S    
C32   C37   D    
C50   H56   S    
C61   H58   S    
C49   F1    S    
Ba1   O1    S    
C68   H76   S    
C35   H32   S    
C67   H18   S    
Ba2   O6    S    
C37   C38   S    
C12   H1    S    
O20   P3    S    
O6    P7    D    
C6    C7    A    
O9    P8    S    
C62   H68   S    
C34   H10   S    
C51   C52   S    
C49   C50   S    
O5    P2    S    
C43   C46   A    
Ba2   O23   S    
C61   H59   S    
C16   H39   S    
C41   C42   D    
C67   O9    S    
C33   C47   A    
C60   C61   S    
C69   F2    S    
C37   P5    S    
Ba1   O20   S    
C29   C30   A    
O21   P3    D    
C9    C10   A    
C10   C18   A    
C33   C48   A    
C23   H9    S    
C4    H30   S    
C62   C67   S    
C60   H62   S    
C49   O17   S    
C1    C12   S    
C51   O12   S    
C64   H73   S    
C59   H54   S    
C16   C58   S    
C46   C47   A    
C18   O14   D    
Ba1   O4    S    
C66   H77   S    
C6    C13   A    
C3    N1    Am   
C5    O11   D    
C52   H4    S    
C65   H71   S    
C49   H45   S    
C45   H14   S    
O26   P4    S    
C54   H43   S    
C40   H12   S    
C12   H6    S    
C2    C8    A    
C1    C55   S    
C55   H50   S    
C52   H3    S    
Ba1   P2    S    
C57   H48   S    
C20   C31   S    
C38   C39   S    
C45   O3    S    
C4    O22   S    
C25   C30   A    
C32   C36   S    
C17   N2    Am   
C45   H15   S    
C8    H25   S    
C28   C40   S    
C68   H75   S    
Ba2   P4    S    
O2    P5    D    
O27   P7    S    
C2    C3    A    
O7    P7    S    
Ba2   O5    S    
C55   H51   S    
C65   H70   S    
Ba1   O24   S    
C4    F4    S    
C5    N1    Am   
Ba1   O27   S    
C57   H49   S    
C44   C48   A    
O15   P6    S    
C36   P7    S    
C11   C15   A    
C23   O7    S    
C29   H28   S    
C40   H34   S    
Ba2   O27   S    
C27   C29   A    
C40   H23   S    
C41   H37   S    
C45   C56   S    
C69   F3    S    
C22   C24   S    
C47   P2    S    
C62   H66   S    
O8    P8    D    
C62   C63   S    
C15   C17   A    
C46   H33   S    
C59   H52   S    
C22   H26   S    
Ba2   O25   S    
C52   H5    S    
C60   H61   S    
C35   C39   S    
C63   H63   S    
O18   P6    S    
C8    C9    A    
C23   C34   S    
O17   P1    S    
C19   H27   S    
C27   P1    S    
C54   H42   S    
C1    H7    S    
C10   C11   A    
Ba1   O5    S    
C51   H80   S    
C66   C68   S    
O12   P2    S    
C25   C26   A    
C70   H29   S    
C58   C59   S    
C61   H60   S    
O24   P4    S    
C2    C7    A    
C1    H2    S    
C56   H16   S    
C58   H57   S    
C21   P4    S    
C28   C66   S    
C33   H36   S    
O16   P6    D    
