data_mof_unit_17000.cif
_audit_creation_date              2012-12-10T16:50:12-0500
_audit_creation_method            fapswitch 2.2
_symmetry_space_group_name_H-M    P1
_symmetry_Int_Tables_number       1
_space_group_crystal_system       triclinic
_cell_length_a                    23.566226
_cell_length_b                    8.72982
_cell_length_c                    7.637196
_cell_angle_alpha                 102.85275
_cell_angle_beta                  96.65981
_cell_angle_gamma                 96.4337
_cell_volume                      1505.99409588

loop_
_atom_site_label
_atom_site_type_symbol
_atom_type_description
_atom_site_fract_x
_atom_site_fract_y
_atom_site_fract_z
_atom_type_partial_charge
C1    C     C_R   0.497624 0.200040 0.453280 0.864442
C2    C     C_R   0.502378 0.799961 0.546721 0.864451
C3    C     C_R   0.244885 0.631660 0.489715 -0.029518
C4    C     C_R   0.755123 0.368417 0.510295 -0.029533
C5    C     C_R   0.305219 0.636447 0.511473 -0.109829
C6    C     C_R   0.694790 0.363600 0.488518 -0.109832
C7    C     C_R   0.329086 0.494385 0.493094 -0.114055
C8    C     C_R   0.670914 0.505646 0.506911 -0.114044
C9    C     C_R   0.292853 0.350092 0.468358 -0.092212
C10   C     C_R   0.707138 0.649959 0.531691 -0.092213
C11   C     C_R   0.234476 0.350236 0.483685 -0.131146
C12   C     C_R   0.765517 0.649854 0.516393 -0.131153
C13   C     C_R   0.209027 0.489519 0.490560 0.245876
C14   C     C_R   0.790975 0.510580 0.509487 0.245877
C15   C     C_2   0.496138 0.031394 0.428136 -0.289887
C16   C     C_2   0.503869 0.968608 0.571864 -0.289868
C17   C     C_R   0.391528 0.496774 0.497772 0.784693
C18   C     C_R   0.608471 0.503226 0.502227 0.784698
C19   C     C_R   0.891883 0.638172 0.603593 0.555351
C20   C     C_R   0.108118 0.361954 0.396425 0.555332
C21   C     C_R   0.871047 0.392146 0.383974 0.577493
C22   C     C_R   0.128955 0.607997 0.616018 0.577491
C23   C     C_R   0.929749 0.373467 0.400564 -0.031495
C24   C     C_R   0.070253 0.626672 0.599428 -0.031509
C25   C     C_R   0.970279 0.504342 0.497349 -0.073799
C26   C     C_R   0.029724 0.495795 0.502649 -0.073797
C27   C     C_R   0.951206 0.644096 0.587791 -0.075962
C28   C     C_R   0.048795 0.356038 0.412213 -0.075950
C29   C     C_R   0.948433 0.226583 0.330943 0.207342
C30   C     C_R   0.051569 0.773553 0.669050 0.207326
C31   C     C_R   0.008108 0.217231 0.340021 -0.060482
C32   C     C_R   0.991894 0.782904 0.659980 -0.060457
Cu1   Cu    Cu3+1 0.506340 0.517380 0.684380 0.988040
Cu2   Cu    Cu3+1 0.493660 0.482620 0.315620 0.988039
H1    H     H_    0.208603 0.239872 0.484540 0.195269
H2    H     H_    0.791383 0.760234 0.515564 0.195291
H3    H     H_    0.489134 0.958639 0.289979 0.191610
H4    H     H_    0.510873 0.041364 0.710022 0.191611
N1    N     N_R   0.852424 0.513952 0.499584 -0.456749
N2    N     N_R   0.147578 0.486171 0.500436 -0.456754
N3    N     N_2   0.484110 0.456420 0.038520 0.024160
N4    N     N_2   0.515890 0.543580 0.961480 0.024158
O1    O     O_R   0.504120 0.286130 0.619770 -0.600067
O2    O     O_R   0.495880 0.713870 0.380230 -0.600068
O3    O     O_R   0.493410 0.256770 0.308360 -0.573427
O4    O     O_R   0.506590 0.743230 0.691640 -0.573425
O5    O     O_R   0.423230 0.514630 0.655730 -0.597866
O6    O     O_R   0.576770 0.485370 0.344270 -0.597869
O7    O     O_R   0.412530 0.485280 0.344320 -0.587780
O8    O     O_R   0.587470 0.514720 0.655680 -0.587782
O9    O     O_2   0.874439 0.752067 0.727192 -0.569764
O10   O     O_2   0.125564 0.248054 0.272835 -0.569761
O11   O     O_2   0.833001 0.291097 0.251651 -0.519301
O12   O     O_2   0.167003 0.709071 0.748311 -0.519267
N5    N     N_2   0.907344 0.085646 0.278284 -0.413917
H5    H     H_    0.915321 0.002146 0.351167 0.255563
C33   C     C_3   0.894143 0.017448 0.085359 -0.453792
H6    H     H_    0.930500 0.958418 0.036130 0.219163
H7    H     H_    0.885406 0.109994 0.010750 0.261584
H8    H     H_    0.855042 0.927252 0.057802 0.247336
N6    N     N_2   0.092659 0.914487 0.721749 -0.413910
H9    H     H_    0.084696 0.997998 0.648863 0.255556
C34   C     C_3   0.105849 0.982663 0.914684 -0.453751
H10   H     H_    0.069519 0.041858 0.963864 0.219158
H11   H     H_    0.144993 0.072713 0.942292 0.247386
H12   H     H_    0.114510 0.890070 0.989299 0.261513
C35   C     C_1   0.026631 0.062116 0.296426 0.267932
N7    N     N_1   0.041016 0.937646 0.263207 -0.292241
C36   C     C_1   0.973371 0.938017 0.703580 0.267938
N8    N     N_1   0.958987 0.062488 0.736805 -0.292227
C37   C     C_1   0.220344 0.769956 0.458072 0.339059
N9    N     N_1   0.200770 0.880212 0.432425 -0.252226
C38   C     C_1   0.779668 0.230104 0.541848 0.339070
N10   N     N_1   0.799243 0.119829 0.567404 -0.252246
C39   C     C_1   0.342831 0.786865 0.563958 0.289465
N11   N     N_1   0.373295 0.906263 0.610102 -0.286390
C40   C     C_1   0.657187 0.213166 0.435988 0.289461
N12   N     N_1   0.626732 0.093755 0.389808 -0.286376
C41   C     C_1   0.314051 0.200533 0.415309 0.239009
N13   N     N_1   0.330915 0.081017 0.368028 -0.271502
C42   C     C_1   0.685924 0.799497 0.584726 0.238987
N14   N     N_1   0.669046 0.918994 0.631989 -0.271528
N15   N     N_2   0.448670 0.324418 0.928387 -0.309352
H13   H     H_    0.438650 0.326195 0.796830 0.295327
C43   C     C_3   0.396034 0.276983 0.994320 -0.526895
H14   H     H_    0.369503 0.177068 0.890644 0.196520
H15   H     H_    0.370210 0.376681 0.017327 0.220246
H16   H     H_    0.404802 0.232682 0.117665 0.254144
N16   N     N_2   0.551330 0.675581 0.071612 -0.309356
H17   H     H_    0.561350 0.673805 0.203170 0.295326
C44   C     C_3   0.603967 0.723014 0.005679 -0.526889
H18   H     H_    0.630498 0.822927 0.109355 0.196530
H19   H     H_    0.595198 0.767316 0.882335 0.254147
H20   H     H_    0.629790 0.623314 0.982670 0.220249

loop_
_geom_bond_atom_site_label_1
_geom_bond_atom_site_label_2
_ccdc_geom_bond_type
C21   O11   S    
N5    H5    S    
C34   H11   S    
N3    N4    D    
C42   N14   T    
C22   O12   S    
C43   H14   S    
C2    O4    A    
C31   C35   S    
Cu1   N4    S    
C23   C29   A    
C24   C26   A    
C9    C41   S    
C20   N2    A    
C33   H7    S    
C15   C16   D    
N3    N15   S    
C38   N10   T    
N6    C34   S    
C15   H3    S    
C13   N2    S    
C14   N1    S    
C1    O1    A    
C2    O2    A    
C7    C17   S    
C1    C15   S    
C12   H2    S    
C2    C16   S    
C3    C13   A    
C34   H12   S    
Cu1   O4    S    
N6    H9    S    
Cu2   N3    S    
C43   H15   S    
C35   N7    T    
Cu1   O1    S    
Cu2   O2    S    
C4    C6    A    
C17   O7    A    
C44   H18   S    
C5    C7    A    
C6    C40   S    
C6    C8    A    
C20   C28   A    
Cu1   O8    S    
C40   N12   T    
C8    C18   S    
C34   H10   S    
C5    C39   S    
C3    C37   S    
C39   N11   T    
C44   H19   S    
N15   H13   S    
C21   N1    A    
C29   C31   A    
C22   N2    A    
Cu1   Cu2   S    
Cu2   O3    S    
C9    C11   A    
C4    C38   S    
C10   C12   A    
C8    C10   A    
N15   C43   S    
C12   C14   A    
N5    C33   S    
Cu1   O5    S    
C22   C24   A    
Cu2   O6    S    
C19   C27   A    
C18   O8    A    
C43   H16   S    
C7    C9    A    
Cu2   O7    S    
C27   C32   A    
C28   C31   A    
C17   O5    A    
C3    C5    A    
C18   O6    A    
C32   C36   S    
C25   C27   A    
C29   N5    S    
C10   C42   S    
C26   C28   A    
N4    N16   S    
C21   C23   A    
C25   C26   A    
C37   N9    T    
C20   O10   S    
C44   H20   S    
C30   C32   A    
C11   C13   A    
C1    O3    A    
C33   H6    S    
C11   H1    S    
C23   C25   A    
C4    C14   A    
C36   N8    T    
C24   C30   A    
C41   N13   T    
C19   O9    S    
C33   H8    S    
C19   N1    A    
N16   C44   S    
C30   N6    S    
N16   H17   S    
C16   H4    S    
