data_mof_unit_19441.cif
_audit_creation_date              2012-12-10T17:13:10-0500
_audit_creation_method            fapswitch 2.2
_symmetry_space_group_name_H-M    P1
_symmetry_Int_Tables_number       1
_space_group_crystal_system       triclinic
_cell_length_a                    31.838105
_cell_length_b                    29.107424
_cell_length_c                    25.585095
_cell_angle_alpha                 90.394402
_cell_angle_beta                  130.977279
_cell_angle_gamma                 89.998019
_cell_volume                      17899.8584275

loop_
_atom_site_label
_atom_site_type_symbol
_atom_type_description
_atom_site_fract_x
_atom_site_fract_y
_atom_site_fract_z
_atom_type_partial_charge
C1    C     C_R   0.691120 0.188155 0.499987 0.923623
C2    C     C_R   0.544643 0.270779 0.071657 0.391207
C3    C     C_R   0.711653 0.882771 0.692720 0.355957
C4    C     C_R   0.842375 0.384554 0.367859 0.078196
C5    C     C_R   0.156767 0.386239 0.631449 0.080685
C6    C     C_R   0.343487 0.883670 0.368241 0.079438
C7    C     C_R   0.654993 0.884089 0.630775 0.080254
C8    C     C_R   0.857656 0.384996 0.433998 -0.004237
C9    C     C_R   0.141705 0.385513 0.565417 -0.003284
C10   C     C_R   0.358070 0.884473 0.433986 -0.004999
C11   C     C_R   0.640990 0.884556 0.565344 -0.004928
C12   C     C_R   0.818522 0.370049 0.438402 -0.019848
C13   C     C_R   0.969840 0.767585 0.932313 0.386668
C14   C     C_R   0.181024 0.370382 0.561437 -0.037816
C15   C     C_R   0.318601 0.869435 0.437751 -0.034075
C16   C     C_R   0.680680 0.869399 0.562058 -0.050239
C17   C     C_R   0.838529 0.349597 0.500948 -0.247792
C18   C     C_R   0.161275 0.349574 0.498791 -0.245385
C19   C     C_R   0.338133 0.849682 0.500463 -0.223407
C20   C     C_R   0.661528 0.849618 0.499141 -0.221561
C21   C     C_R   0.893693 0.355604 0.562660 0.356868
C22   C     C_R   0.106316 0.355330 0.436771 0.362265
C23   C     C_R   0.392746 0.856690 0.562656 0.427645
C24   C     C_R   0.044338 0.770902 0.071542 0.386505
C25   C     C_R   0.607117 0.856408 0.436671 0.431594
C26   C     C_R   0.931227 0.377649 0.560031 0.042963
C27   C     C_R   0.068596 0.377430 0.439097 0.038734
C28   C     C_R   0.430588 0.878535 0.560446 0.021951
C29   C     C_R   0.569080 0.878256 0.438624 0.018488
C30   C     C_R   0.911521 0.396881 0.496733 -0.166161
C31   C     C_R   0.088023 0.396943 0.502490 -0.162767
C32   C     C_R   0.411509 0.896970 0.496969 -0.168105
C33   C     C_R   0.587897 0.896917 0.502196 -0.164962
C34   C     C_R   0.057276 0.435686 0.500725 0.868421
C35   C     C_R   0.739473 0.119151 0.612595 0.374870
C36   C     C_R   0.942456 0.435702 0.498875 0.867405
C37   C     C_R   0.557258 0.935679 0.500670 0.873195
C38   C     C_R   0.442463 0.935704 0.498927 0.872541
C39   C     C_R   0.815960 0.247621 0.634493 0.990749
C40   C     C_R   0.183684 0.247591 0.365305 1.003061
C41   C     C_R   0.315930 0.747579 0.634483 0.952272
C42   C     C_R   0.683648 0.747614 0.365287 0.968039
C43   C     C_R   0.558223 0.063466 0.501598 0.976653
C44   C     C_R   0.442449 0.063817 0.499176 0.977978
C45   C     C_R   0.058259 0.563434 0.501609 0.976310
C46   C     C_R   0.263490 0.126321 0.377877 0.367145
C47   C     C_R   0.942443 0.563810 0.499185 0.976615
C48   C     C_R   0.669911 0.247876 0.255463 0.408733
C49   C     C_R   0.347103 0.232034 0.752166 0.388809
C50   C     C_R   0.169437 0.747246 0.255138 0.374625
C51   C     C_R   0.846689 0.732459 0.752034 0.388705
C52   C     C_R   0.634530 0.251305 0.183845 -0.245455
C53   C     C_R   0.385631 0.236113 0.823855 -0.267651
C54   C     C_R   0.134022 0.750890 0.183537 -0.273966
C55   C     C_R   0.885169 0.736546 0.823719 -0.270320
C56   C     C_R   0.584009 0.273990 0.146821 -0.166517
C57   C     C_R   0.239581 0.618656 0.612185 0.364258
C58   C     C_R   0.429695 0.267083 0.857131 -0.139323
C59   C     C_R   0.083734 0.773911 0.146714 -0.143515
C60   C     C_R   0.929422 0.767320 0.857027 -0.140456
C61   C     C_R   0.569714 0.296854 0.181547 0.433342
C62   C     C_R   0.435453 0.296279 0.818878 0.427998
C63   C     C_R   0.069646 0.796864 0.181595 0.428744
C64   C     C_R   0.935404 0.796305 0.818806 0.428000
C65   C     C_R   0.598860 0.286225 0.251341 -0.041715
C66   C     C_R   0.404063 0.286843 0.747905 -0.024899
C67   C     C_R   0.098789 0.786160 0.251357 -0.041221
C68   C     C_R   0.763584 0.626612 0.377653 0.370628
C69   C     C_R   0.904096 0.786763 0.747885 -0.025211
C70   C     C_3   0.004682 0.223829 0.857751 -0.758807
C71   C     C_3   0.994560 0.216021 0.144837 -0.763760
C72   C     C_3   0.504422 0.723449 0.857905 -0.761943
C73   C     C_3   0.494634 0.715118 0.145164 -0.773868
C74   C     C_3   0.841373 0.241667 0.851837 -0.775629
C75   C     C_3   0.151054 0.251751 0.142695 -0.783063
C76   C     C_3   0.340723 0.740506 0.851370 -0.785215
C77   C     C_3   0.650408 0.752350 0.142235 -0.785546
C78   C     C_3   0.765483 0.244722 0.698503 -0.800468
C79   C     C_R   0.760044 0.112456 0.680450 -0.099105
C80   C     C_3   0.230295 0.252586 0.296133 -0.794130
C81   C     C_3   0.265135 0.744356 0.698087 -0.798859
C82   C     C_3   0.729911 0.753346 0.295689 -0.788021
C83   C     C_3   0.720109 0.384872 0.389321 -0.796842
C84   C     C_3   0.280031 0.384499 0.612028 -0.783004
C85   C     C_3   0.219705 0.883774 0.387103 -0.788820
C86   C     C_3   0.780368 0.882853 0.615077 -0.780697
C87   C     C_3   0.683016 0.378338 0.249264 -0.664714
C88   C     C_3   0.315858 0.377993 0.751164 -0.648850
C89   C     C_3   0.184029 0.876658 0.247819 -0.665136
C90   C     C_R   0.248420 0.123468 0.312267 -0.094284
C91   C     C_3   0.814107 0.873495 0.752892 -0.657327
C92   C     C_3   0.885982 0.373110 0.363084 -0.708221
C93   C     C_3   0.113311 0.374298 0.636250 -0.715201
C94   C     C_3   0.387778 0.872694 0.364533 -0.699732
C95   C     C_3   0.610228 0.873212 0.633564 -0.714847
C96   C     C_3   0.992780 0.375274 0.621536 -0.648849
C97   C     C_3   0.007112 0.375027 0.376976 -0.653222
C98   C     C_3   0.491938 0.876609 0.622783 -0.641538
C99   C     C_3   0.507767 0.876249 0.375792 -0.644783
C100  C     C_3   0.573238 0.299976 0.282237 -0.548872
C101  C     C_R   0.260326 0.611550 0.680059 -0.090189
C102  C     C_3   0.423474 0.308652 0.713011 -0.584921
C103  C     C_3   0.073259 0.800026 0.282332 -0.549668
C104  C     C_3   0.923616 0.808404 0.713020 -0.584097
C105  C     C_3   0.822163 0.114887 0.740406 -0.611006
C106  C     C_3   0.187590 0.126600 0.247872 -0.609922
C107  C     C_3   0.322486 0.613627 0.739861 -0.584045
C108  C     C_3   0.687889 0.627164 0.247624 -0.608462
C109  C     C_R   0.308254 0.188117 0.499040 0.931274
C110  C     C_R   0.748673 0.623937 0.312125 -0.094798
C111  C     C_R   0.722337 0.106042 0.691747 0.256876
C112  C     C_R   0.290459 0.119439 0.307702 0.256862
C113  C     C_R   0.222765 0.605048 0.691569 0.332837
C114  C     C_R   0.790825 0.619967 0.307749 0.256176
C115  C     C_R   0.664236 0.108802 0.634790 0.268829
C116  C     C_R   0.347304 0.118275 0.369831 0.267815
C117  C     C_R   0.164657 0.608208 0.634859 0.253103
C118  C     C_R   0.847621 0.618596 0.369999 0.267948
C119  C     C_R   0.645101 0.111681 0.566764 -0.144618
C120  C     C_R   0.191136 0.688152 0.500015 0.925602
C121  C     C_R   0.360129 0.116768 0.434475 -0.132955
C122  C     C_R   0.145306 0.611399 0.566760 -0.147843
C123  C     C_R   0.860257 0.616917 0.434522 -0.132986
C124  C     C_R   0.682076 0.127020 0.558596 -0.164587
C125  C     C_R   0.320073 0.131844 0.437306 -0.167396
C126  C     C_R   0.182184 0.626776 0.558455 -0.167694
C127  C     C_R   0.820135 0.632008 0.437220 -0.168258
C128  C     C_R   0.659408 0.151112 0.497181 -0.143168
C129  C     C_R   0.338723 0.150682 0.500484 -0.131048
C130  C     C_R   0.159410 0.651102 0.497164 -0.141742
C131  C     C_R   0.808243 0.688118 0.499028 0.934214
C132  C     C_R   0.838667 0.650675 0.500420 -0.132110
C133  C     C_R   0.602202 0.147662 0.439037 0.348088
C134  C     C_R   0.392103 0.140814 0.562941 0.343584
C135  C     C_R   0.102143 0.647826 0.439164 0.346928
C136  C     C_R   0.891906 0.640588 0.562940 0.343731
C137  C     C_R   0.684192 0.253037 0.365199 0.997889
C138  C     C_R   0.318047 0.251242 0.635490 0.986200
C139  C     C_R   0.184108 0.752940 0.365157 0.987550
C140  C     C_R   0.818034 0.751246 0.635479 0.983720
C141  C     C_R   0.569068 0.120190 0.442677 -0.170559
C142  C     C_R   0.650277 0.261407 0.289838 -0.247747
C143  C     C_R   0.427042 0.114558 0.560866 -0.188592
C144  C     C_R   0.069046 0.620311 0.442810 -0.172679
C145  C     C_R   0.926873 0.614340 0.560905 -0.191327
C146  C     C_R   0.590318 0.100773 0.505275 -0.087599
C147  C     C_R   0.411053 0.101083 0.497416 -0.089060
C148  C     C_R   0.090408 0.600704 0.505338 -0.083786
C149  C     C_R   0.911048 0.601059 0.497469 -0.088942
C150  C     C_R   0.907510 0.234077 0.748509 -0.132579
C151  C     C_R   0.091742 0.230990 0.252333 -0.117634
C152  C     C_R   0.407318 0.733694 0.748554 -0.171752
C153  C     C_R   0.356906 0.256036 0.712418 -0.216775
C154  C     C_R   0.591755 0.730611 0.252446 -0.145377
C155  C     C_R   0.943680 0.230255 0.820124 0.119812
C156  C     C_R   0.054405 0.227183 0.180565 0.120685
C157  C     C_R   0.443383 0.729774 0.820151 0.126422
C158  C     C_R   0.554334 0.726726 0.180685 0.127322
C159  C     C_R   0.922471 0.233774 0.854102 0.048982
C160  C     C_R   0.073388 0.234740 0.144670 0.050892
C161  C     C_R   0.422042 0.733144 0.853990 0.047500
C162  C     C_R   0.573096 0.734584 0.144603 0.049453
C163  C     C_R   0.864549 0.239152 0.815592 0.137447
C164  C     C_R   0.150065 0.761135 0.289720 -0.230979
C165  C     C_R   0.130395 0.244137 0.181253 0.134499
C166  C     C_R   0.364081 0.738427 0.815322 0.135857
C167  C     C_R   0.629988 0.744393 0.181003 0.131843
C168  C     C_R   0.828151 0.242389 0.742374 0.129629
C169  C     C_R   0.168215 0.246764 0.254680 0.123657
C170  C     C_R   0.327819 0.741935 0.742137 0.138679
C171  C     C_R   0.667914 0.747104 0.254436 0.125415
C172  C     C_R   0.850839 0.242011 0.709704 -0.114577
C173  C     C_R   0.147583 0.242364 0.289582 -0.099831
C174  C     C_R   0.350654 0.741736 0.709645 -0.150631
C175  C     C_R   0.856793 0.756126 0.712372 -0.217066
C176  C     C_R   0.647482 0.742361 0.289532 -0.141481
C177  C     C_R   0.033438 0.234054 0.069117 0.272639
C178  C     C_R   0.961071 0.233578 0.929669 0.272773
C179  C     C_R   0.533030 0.733749 0.069039 0.273892
C180  C     C_R   0.460560 0.733032 0.929574 0.272512
C181  C     C_R   0.761223 0.374582 0.379637 0.127556
C182  C     C_R   0.238268 0.374974 0.620719 0.111817
C183  C     C_R   0.261428 0.873532 0.378417 0.123359
C184  C     C_R   0.737720 0.873013 0.622176 0.111659
C185  C     C_R   0.807611 0.311904 0.497988 0.999331
C186  C     C_R   0.470145 0.267328 0.932426 0.385746
C187  C     C_R   0.192215 0.311923 0.501715 0.979491
C188  C     C_R   0.307487 0.811904 0.497802 0.995108
C189  C     C_R   0.692210 0.811921 0.501682 0.979938
C190  C     C_R   0.744360 0.379569 0.313172 0.040739
C191  C     C_R   0.254777 0.380739 0.686946 0.022142
C192  C     C_R   0.245192 0.878171 0.312246 0.043820
C193  C     C_R   0.753355 0.877299 0.688084 0.023254
C194  C     C_R   0.785261 0.383897 0.306881 0.362415
C195  C     C_R   0.213709 0.386614 0.692587 0.362657
C196  C     C_R   0.286558 0.882513 0.306757 0.366184
H1    H     H_    0.526054 0.114470 0.396588 0.242449
H2    H     H_    0.381132 0.215262 0.854798 0.212019
H3    H     H_    0.983044 0.377244 0.393755 0.189973
H4    H     H_    0.994936 0.403288 0.340560 0.277053
H5    H     H_    0.995379 0.341258 0.350130 0.269643
H6    H     H_    0.515789 0.877351 0.605746 0.189469
H7    H     H_    0.504513 0.905874 0.658547 0.279782
H8    H     H_    0.503319 0.843542 0.650437 0.270717
H9    H     H_    0.483266 0.877288 0.392025 0.190283
H10   H     H_    0.495936 0.905327 0.340680 0.279367
H11   H     H_    0.496215 0.843058 0.347593 0.269932
H12   H     H_    0.509026 0.406990 0.171796 0.407909
H13   H     H_    0.145726 0.735882 0.155879 0.211423
H14   H     H_    0.474937 0.416011 0.824344 0.408964
H15   H     H_    0.009737 0.907285 0.172495 0.409658
H16   H     H_    0.974608 0.915967 0.823646 0.408606
H17   H     H_    0.573878 0.270461 0.309277 0.294760
H18   H     H_    0.595805 0.329786 0.317921 0.230702
H19   H     H_    0.528610 0.308718 0.242965 0.271688
H20   H     H_    0.424459 0.283179 0.681751 0.272598
H21   H     H_    0.396598 0.337948 0.680510 0.230734
H22   H     H_    0.467023 0.321143 0.750440 0.271617
H23   H     H_    0.073829 0.770541 0.309359 0.294905
H24   H     H_    0.880460 0.715885 0.854615 0.212182
H25   H     H_    0.095912 0.829818 0.318027 0.231981
H26   H     H_    0.028652 0.808847 0.243091 0.271830
H27   H     H_    0.924585 0.782835 0.681842 0.272059
H28   H     H_    0.896790 0.837700 0.680413 0.232265
H29   H     H_    0.967173 0.820871 0.750478 0.271067
H30   H     H_    0.622255 0.148074 0.343796 0.370324
H31   H     H_    0.348679 0.123080 0.631724 0.383074
H32   H     H_    0.121543 0.648243 0.343344 0.368813
H33   H     H_    0.847881 0.622663 0.631062 0.381411
H34   H     H_    0.848625 0.116541 0.601480 0.386170
H35   H     H_    0.790523 0.221753 0.271852 0.399292
H36   H     H_    0.142848 0.119905 0.367129 0.390499
H37   H     H_    0.347577 0.616810 0.599025 0.385232
H38   H     H_    0.642591 0.619975 0.366181 0.389546
H39   H     H_    0.843572 0.134274 0.726529 0.244159
H40   H     H_    0.831672 0.133833 0.784899 0.253351
H41   H     H_    0.839869 0.079829 0.756262 0.274942
H42   H     H_    0.162381 0.142025 0.259047 0.247851
H43   H     H_    0.181961 0.149454 0.209235 0.252853
H44   H     H_    0.170613 0.091892 0.225249 0.272910
H45   H     H_    0.343990 0.632865 0.726001 0.239971
H46   H     H_    0.313143 0.149673 0.798722 0.370749
H47   H     H_    0.332230 0.632548 0.784517 0.242444
H48   H     H_    0.339862 0.578450 0.755442 0.290809
H49   H     H_    0.662580 0.642437 0.258737 0.250589
H50   H     H_    0.682380 0.650187 0.209217 0.253191
H51   H     H_    0.670923 0.592502 0.224749 0.271315
H52   H     H_    0.792131 0.029889 0.787417 0.343882
H53   H     H_    0.222739 0.051004 0.191013 0.355326
H54   H     H_    0.317962 0.551202 0.862956 0.403800
H55   H     H_    0.723151 0.551961 0.190471 0.355408
H56   H     H_    0.577692 0.182042 0.573112 0.366353
H57   H     H_    0.237512 0.697040 0.219512 0.371865
H58   H     H_    0.443890 0.183980 0.455121 0.370148
H59   H     H_    0.078513 0.681774 0.574073 0.366228
H60   H     H_    0.944671 0.683854 0.456104 0.370432
H61   H     H_    0.811491 0.651021 0.798477 0.369996
H62   H     H_    0.031449 0.222225 0.914757 0.242915
H63   H     H_    0.010247 0.191388 0.839856 0.250824
H64   H     H_    0.019729 0.252920 0.845867 0.268357
H65   H     H_    0.466763 0.104200 0.609170 0.232036
H66   H     H_    0.967053 0.213701 0.087718 0.244165
H67   H     H_    0.992536 0.182500 0.163587 0.249539
H68   H     H_    0.977730 0.243041 0.157463 0.267523
H69   H     H_    0.531139 0.721876 0.914903 0.243610
H70   H     H_    0.510102 0.691033 0.840082 0.253124
H71   H     H_    0.519448 0.752580 0.846053 0.264807
H72   H     H_    0.467060 0.712718 0.088043 0.243182
H73   H     H_    0.492997 0.681521 0.164096 0.250157
H74   H     H_    0.477606 0.741939 0.157776 0.265753
H75   H     H_    0.814108 0.211533 0.836759 0.273593
H76   H     H_    0.025974 0.614715 0.396803 0.242757
H77   H     H_    0.873433 0.241508 0.909045 0.243520
H78   H     H_    0.817221 0.273792 0.837197 0.257332
H79   H     H_    0.178966 0.223302 0.153699 0.268435
H80   H     H_    0.117614 0.253114 0.085722 0.242908
H81   H     H_    0.173879 0.284966 0.159204 0.259539
H82   H     H_    0.313280 0.710392 0.835695 0.274582
H83   H     H_    0.372670 0.739910 0.908575 0.243551
H84   H     H_    0.316720 0.772670 0.837169 0.257764
H85   H     H_    0.678560 0.724128 0.153221 0.269319
H86   H     H_    0.616861 0.753612 0.085274 0.243476
H87   H     H_    0.966479 0.603828 0.609232 0.231511
H88   H     H_    0.672904 0.785722 0.158580 0.258519
H89   H     H_    0.750765 0.279940 0.677978 0.266712
H90   H     H_    0.744600 0.219764 0.654822 0.207543
H91   H     H_    0.751152 0.235867 0.726561 0.258365
H92   H     H_    0.243215 0.288217 0.316761 0.267085
H93   H     H_    0.253770 0.227872 0.339584 0.214166
H94   H     H_    0.243385 0.245635 0.266106 0.259554
H95   H     H_    0.250519 0.779596 0.677604 0.264878
H96   H     H_    0.244294 0.719425 0.654378 0.209252
H97   H     H_    0.250641 0.735554 0.725973 0.257375
H98   H     H_    0.924170 0.231617 0.722881 0.222773
H99   H     H_    0.742566 0.788979 0.316385 0.263924
H100  H     H_    0.753667 0.728585 0.339067 0.218076
H101  H     H_    0.742929 0.746773 0.265504 0.258874
H102  H     H_    0.851280 0.374065 0.633683 0.363122
H103  H     H_    0.149787 0.374528 0.367541 0.363388
H104  H     H_    0.373581 0.839699 0.687560 0.380752
H105  H     H_    0.627752 0.840220 0.312885 0.380571
H106  H     H_    0.693394 0.414300 0.356612 0.262822
H107  H     H_    0.693381 0.354573 0.374903 0.239739
H108  H     H_    0.741378 0.396004 0.443141 0.257307
H109  H     H_    0.076629 0.225482 0.279349 0.216782
H110  H     H_    0.308680 0.412831 0.647117 0.265606
H111  H     H_    0.304558 0.353343 0.623979 0.235322
H112  H     H_    0.259433 0.396580 0.559055 0.259306
H113  H     H_    0.192857 0.912982 0.353824 0.263036
H114  H     H_    0.193187 0.853355 0.372763 0.235518
H115  H     H_    0.240407 0.895207 0.440624 0.265998
H116  H     H_    0.809011 0.910855 0.651172 0.264035
H117  H     H_    0.804746 0.851664 0.626769 0.232560
H118  H     H_    0.760616 0.895507 0.562642 0.267686
H119  H     H_    0.668692 0.413316 0.227520 0.267055
H120  H     H_    0.424074 0.731276 0.723036 0.227300
H121  H     H_    0.675191 0.354237 0.209891 0.282445
H122  H     H_    0.656612 0.365802 0.260062 0.231599
H123  H     H_    0.332751 0.412919 0.772674 0.273934
H124  H     H_    0.321897 0.355766 0.790654 0.281796
H125  H     H_    0.341071 0.362071 0.740377 0.232831
H126  H     H_    0.169687 0.911518 0.225579 0.266891
H127  H     H_    0.176711 0.852305 0.209001 0.283150
H128  H     H_    0.157269 0.864295 0.258146 0.230583
H129  H     H_    0.831127 0.907931 0.776820 0.267780
H130  H     H_    0.819177 0.849660 0.790323 0.283882
H131  H     H_    0.576790 0.724851 0.279593 0.221507
H132  H     H_    0.839949 0.858942 0.742243 0.232095
H133  H     H_    0.721777 0.452364 0.192902 0.352146
H134  H     H_    0.280232 0.457106 0.805257 0.379939
H135  H     H_    0.223613 0.950333 0.191929 0.352735
H136  H     H_    0.779920 0.948835 0.813210 0.362705
H137  H     H_    0.894964 0.403316 0.345631 0.267995
H138  H     H_    0.925109 0.361592 0.413691 0.188168
H139  H     H_    0.871755 0.343948 0.326548 0.268312
H140  H     H_    0.103447 0.404577 0.652867 0.272337
H141  H     H_    0.074670 0.361399 0.585790 0.188960
H142  H     H_    0.646496 0.236394 0.156406 0.239570
H143  H     H_    0.128181 0.346004 0.673607 0.268219
H144  H     H_    0.396276 0.902941 0.346608 0.264960
H145  H     H_    0.427038 0.861927 0.415606 0.187043
H146  H     H_    0.374454 0.843204 0.328798 0.274807
H147  H     H_    0.601750 0.903612 0.651595 0.271081
H148  H     H_    0.571181 0.862071 0.582102 0.187595
H149  H     H_    0.623027 0.844022 0.668913 0.269747
H150  H     H_    0.016210 0.377215 0.603922 0.188684
H151  H     H_    0.005772 0.403701 0.658662 0.276813
H152  H     H_    0.004288 0.341610 0.647774 0.271105
N1    N     N_R   0.562118 0.272823 0.035686 -0.104968
N2    N     N_R   0.011427 0.273932 0.033958 -0.131056
N3    N     N_R   0.483100 0.693205 0.964880 -0.139462
N4    N     N_R   0.510364 0.773498 0.033716 -0.134795
N5    N     N_R   0.018743 0.193868 0.033681 -0.134589
N6    N     N_R   0.975747 0.273699 0.965169 -0.133096
N7    N     N_R   0.518915 0.693565 0.033759 -0.137195
N8    N     N_R   0.474638 0.773146 0.964923 -0.136058
N9    N     N_R   0.525320 0.271022 0.966989 -0.070126
N10   N     N_R   0.061825 0.772855 0.035580 -0.109503
N11   N     N_R   0.025026 0.771125 0.966883 -0.073330
N12   N     N_R   0.452959 0.263521 0.968526 -0.112455
N13   N     N_R   0.489723 0.265085 0.037113 -0.076639
N14   N     N_R   0.952628 0.763903 0.968397 -0.111755
N15   N     N_R   0.989392 0.765402 0.036986 -0.077852
N16   N     N_R   0.982975 0.193628 0.964807 -0.134552
O1    O     O_R   0.678340 0.230070 0.500020 -0.599734
O2    O     O_R   0.482930 0.045810 0.557520 -0.591664
O3    O     O_2   0.461061 0.126784 0.700548 -0.234157
O4    O     O_2   0.436873 0.205768 0.659605 -0.276034
O5    O     O_3   0.362447 0.155189 0.644842 -0.524914
O6    O     O_2   0.016298 0.654250 0.301889 -0.221451
O7    O     O_2   0.056712 0.724973 0.370565 -0.259852
O8    O     O_3   0.111883 0.680537 0.343617 -0.578313
O9    O     O_2   0.960326 0.625986 0.700367 -0.238303
O10   O     O_2   0.936749 0.705150 0.660183 -0.276367
O11   O     O_3   0.861773 0.654731 0.644405 -0.524985
O12   O     O_2   0.804804 0.051590 0.630353 -0.280939
O13   O     O_R   0.017070 0.545810 0.442480 -0.588377
O14   O     O_2   0.741555 0.085402 0.515332 -0.261710
O15   O     O_3   0.829408 0.132134 0.615153 -0.559490
O16   O     O_2   0.192343 0.058366 0.342891 -0.278021
O17   O     O_2   0.249009 0.087447 0.461297 -0.265525
O18   O     O_3   0.166501 0.137129 0.361549 -0.578409
O19   O     O_2   0.304660 0.551203 0.628981 -0.275687
O20   O     O_2   0.241080 0.585374 0.514241 -0.267564
O21   O     O_3   0.329142 0.631914 0.614093 -0.555659
O22   O     O_2   0.692336 0.558621 0.342160 -0.281599
O23   O     O_2   0.748764 0.587510 0.460635 -0.270493
O24   O     O_R   0.982930 0.545810 0.557520 -0.593122
O25   O     O_3   0.666386 0.637288 0.360914 -0.573588
O26   O     O_2   0.763031 0.133592 0.817835 -0.219521
O27   O     O_2   0.704959 0.064417 0.771232 -0.191868
O28   O     O_3   0.804689 0.057551 0.817221 -0.512583
O29   O     O_2   0.260778 0.160470 0.194306 -0.223299
O30   O     O_2   0.315594 0.090598 0.228958 -0.178700
O31   O     O_3   0.212721 0.081966 0.170178 -0.515124
O32   O     O_2   0.263030 0.631841 0.817770 -0.264673
O33   O     O_2   0.205423 0.562148 0.769977 -0.195292
O34   O     O_3   0.305344 0.556257 0.816307 -0.572898
O35   O     O_R   0.574570 0.045820 0.557490 -0.582039
O36   O     O_2   0.761425 0.661548 0.194840 -0.223101
O37   O     O_2   0.816151 0.591676 0.228970 -0.177711
O38   O     O_3   0.713222 0.582999 0.169887 -0.515717
O39   O     O_2   0.649679 0.162331 0.708288 -0.222463
O40   O     O_2   0.600177 0.088950 0.667129 -0.186833
O41   O     O_3   0.563073 0.154187 0.578616 -0.521288
O42   O     O_2   0.418273 0.096713 0.349182 -0.207163
O43   O     O_2   0.379660 0.174034 0.317911 -0.202326
O44   O     O_3   0.456625 0.155665 0.447579 -0.538203
O45   O     O_2   0.150906 0.661783 0.709097 -0.224321
O46   O     O_R   0.425430 0.045820 0.442510 -0.588805
O47   O     O_2   0.101033 0.588575 0.667927 -0.184137
O48   O     O_3   0.063881 0.653932 0.579584 -0.520856
O49   O     O_2   0.918646 0.596903 0.349519 -0.207962
O50   O     O_2   0.880587 0.674416 0.318857 -0.201525
O51   O     O_3   0.957243 0.655508 0.448388 -0.538833
O52   O     O_R   0.074570 0.545820 0.557490 -0.578327
O53   O     O_R   0.925430 0.545820 0.442510 -0.588657
O54   O     O_R   0.730080 0.178340 0.500000 -0.550456
O55   O     O_R   0.269920 0.178340 0.500000 -0.542910
O56   O     O_R   0.230080 0.678340 0.500000 -0.549866
O57   O     O_R   0.321660 0.230070 0.499980 -0.621324
O58   O     O_R   0.769920 0.678340 0.500000 -0.542653
O59   O     O_R   0.673200 0.275870 0.398140 -0.642360
O60   O     O_R   0.326800 0.275870 0.601860 -0.655917
O61   O     O_R   0.173200 0.775870 0.398140 -0.643314
O62   O     O_R   0.826800 0.775870 0.601860 -0.657581
O63   O     O_R   0.724950 0.224150 0.398130 -0.535111
O64   O     O_R   0.275050 0.224150 0.601870 -0.522505
O65   O     O_R   0.224950 0.724150 0.398130 -0.535389
O66   O     O_R   0.775050 0.724150 0.601870 -0.522139
O67   O     O_R   0.769940 0.321680 0.500000 -0.638025
O68   O     O_R   0.178340 0.730070 0.500020 -0.598515
O69   O     O_R   0.230060 0.321680 0.500000 -0.628189
O70   O     O_R   0.269940 0.821680 0.500000 -0.611564
O71   O     O_R   0.730060 0.821680 0.500000 -0.602801
O72   O     O_R   0.821690 0.269960 0.499980 -0.557118
O73   O     O_R   0.178310 0.269960 0.500020 -0.579410
O74   O     O_R   0.321690 0.769960 0.499980 -0.567614
O75   O     O_R   0.678310 0.769960 0.500020 -0.589170
O76   O     O_R   0.775070 0.275880 0.601870 -0.606650
O77   O     O_R   0.224930 0.275880 0.398130 -0.608899
O78   O     O_R   0.275070 0.775880 0.601870 -0.609170
O79   O     O_R   0.821660 0.730070 0.499980 -0.620950
O80   O     O_R   0.724930 0.775880 0.398130 -0.612303
O81   O     O_R   0.826820 0.224150 0.601850 -0.576711
O82   O     O_R   0.173180 0.224150 0.398150 -0.577682
O83   O     O_R   0.326820 0.724150 0.601850 -0.568134
O84   O     O_R   0.673180 0.724150 0.398150 -0.569944
O85   O     O_R   0.017100 0.454190 0.442490 -0.618617
O86   O     O_R   0.982900 0.454190 0.557510 -0.617238
O87   O     O_R   0.517100 0.954190 0.442490 -0.618000
O88   O     O_R   0.482900 0.954190 0.557510 -0.616530
O89   O     O_2   0.779958 0.259775 0.358571 -0.323904
O90   O     O_R   0.074600 0.454200 0.557500 -0.621702
O91   O     O_2   0.745314 0.180379 0.322456 -0.245230
O92   O     O_3   0.750760 0.229882 0.243184 -0.511894
O93   O     O_2   0.235816 0.223683 0.667369 -0.242838
O94   O     O_2   0.287423 0.155819 0.680177 -0.248406
O95   O     O_3   0.289270 0.177298 0.780131 -0.493021
O96   O     O_2   0.279808 0.758245 0.357713 -0.276631
O97   O     O_2   0.244377 0.679239 0.322845 -0.265262
O98   O     O_3   0.250270 0.727492 0.242821 -0.486498
O99   O     O_2   0.735305 0.724896 0.666779 -0.242357
O100  O     O_2   0.786415 0.656418 0.680274 -0.250174
O101  O     O_R   0.925400 0.454200 0.442500 -0.626729
O102  O     O_3   0.787983 0.678865 0.779743 -0.491784
O103  O     O_2   0.931579 0.287246 0.652711 -0.296985
O104  O     O_2   0.962222 0.364422 0.703301 -0.266445
O105  O     O_3   0.861219 0.341090 0.641839 -0.545759
O106  O     O_2   0.069270 0.286603 0.345829 -0.300486
O107  O     O_2   0.038574 0.363427 0.296284 -0.266867
O108  O     O_3   0.139900 0.341448 0.358615 -0.543906
O109  O     O_2   0.430536 0.790224 0.655574 -0.331052
O110  O     O_2   0.459014 0.868684 0.702129 -0.273764
O111  O     O_3   0.357922 0.844541 0.639445 -0.548314
O112  O     O_R   0.574600 0.954200 0.557500 -0.624436
O113  O     O_2   0.570161 0.789616 0.342834 -0.334015
O114  O     O_2   0.541616 0.867775 0.297458 -0.274821
O115  O     O_3   0.643028 0.844964 0.360954 -0.546763
O116  O     O_2   0.809934 0.406137 0.225393 -0.274063
O117  O     O_2   0.749320 0.340051 0.191492 -0.193609
O118  O     O_3   0.708904 0.421594 0.170629 -0.485978
O119  O     O_2   0.188760 0.416237 0.771281 -0.262142
O120  O     O_2   0.245742 0.347505 0.808207 -0.203840
O121  O     O_3   0.291188 0.426797 0.828111 -0.483437
O122  O     O_2   0.312252 0.903905 0.225999 -0.275195
O123  O     O_R   0.425400 0.954200 0.442500 -0.627571
O124  O     O_2   0.251628 0.837886 0.192334 -0.184557
O125  O     O_3   0.210948 0.919462 0.169972 -0.487609
O126  O     O_2   0.685937 0.909242 0.771841 -0.265046
O127  O     O_2   0.739638 0.839059 0.803404 -0.197825
O128  O     O_3   0.789369 0.917336 0.832152 -0.477916
O129  O     O_2   0.516990 0.362945 0.083575 -0.225458
O130  O     O_2   0.463995 0.324172 0.109244 -0.236545
O131  O     O_3   0.539373 0.384160 0.197937 -0.570433
O132  O     O_2   0.479062 0.363806 0.915767 -0.227352
O133  O     O_2   0.534630 0.337800 0.886291 -0.235960
O134  O     O_R   0.517070 0.045810 0.442480 -0.587035
O135  O     O_3   0.449017 0.389654 0.799097 -0.580080
O136  O     O_2   0.017340 0.863182 0.083959 -0.224493
O137  O     O_2   0.964131 0.824690 0.109514 -0.234761
O138  O     O_3   0.039950 0.884332 0.198477 -0.568399
O139  O     O_2   0.979011 0.863939 0.915564 -0.226404
O140  O     O_2   0.034468 0.837955 0.885911 -0.237650
O141  O     O_3   0.948627 0.889618 0.798652 -0.578804
O142  O     O_2   0.516743 0.153513 0.301589 -0.220562
O143  O     O_2   0.556338 0.224501 0.369711 -0.260613
O144  O     O_3   0.612318 0.180321 0.343782 -0.576891
S1    S     S_3+6 0.738505 0.228778 0.297915 0.053729
S2    S     S_3+6 0.233650 0.393952 0.775895 0.073177
S3    S     S_3+6 0.266652 0.885484 0.223043 0.067733
S4    S     S_3+6 0.730409 0.886783 0.775753 0.069306
S5    S     S_3+6 0.520269 0.342509 0.139978 0.048146
S6    S     S_3+6 0.476663 0.347536 0.857937 0.043297
S7    S     S_3+6 0.020518 0.842754 0.140290 0.049513
S8    S     S_3+6 0.976521 0.847607 0.857686 0.043641
S9    S     S_3+6 0.569870 0.177166 0.361075 0.056000
S10   S     S_3+6 0.415060 0.157517 0.644672 0.059228
S11   S     S_3+6 0.069719 0.677577 0.361363 0.054663
S12   S     S_3+6 0.288216 0.196508 0.717363 0.089666
S13   S     S_3+6 0.914616 0.656980 0.644660 0.056702
S14   S     S_3+6 0.778594 0.095701 0.591588 0.039647
S15   S     S_3+6 0.217875 0.100933 0.387444 0.031791
S16   S     S_3+6 0.278392 0.595420 0.590596 0.041367
S17   S     S_3+6 0.717802 0.601124 0.386873 0.030065
S18   S     S_3+6 0.747826 0.090668 0.775688 0.105038
S19   S     S_3+6 0.271150 0.113510 0.224587 0.106004
S20   S     S_3+6 0.248328 0.589142 0.775356 0.082004
S21   S     S_3+6 0.771683 0.614444 0.224681 0.106328
S22   S     S_3+6 0.619327 0.128247 0.649376 0.108552
S23   S     S_3+6 0.237733 0.727329 0.297334 0.066225
S24   S     S_3+6 0.400676 0.136045 0.369171 0.097451
S25   S     S_3+6 0.120168 0.627801 0.650048 0.109164
S26   S     S_3+6 0.901242 0.636239 0.369747 0.097270
S27   S     S_3+6 0.787406 0.697457 0.717108 0.089386
S28   S     S_3+6 0.914365 0.336627 0.642893 0.017979
S29   S     S_3+6 0.086307 0.336209 0.356581 0.018975
S30   S     S_3+6 0.412272 0.839435 0.642911 0.014274
S31   S     S_3+6 0.588242 0.839060 0.356488 0.014946
S32   S     S_3+6 0.764611 0.387472 0.222819 0.064385
Zn1   Zn    Zn3+2 0.715460 0.284550 0.500010 1.031353
Zn2   Zn    Zn3+2 0.038380 0.500000 0.576800 1.112707
Zn3   Zn    Zn3+2 0.461620 1.000000 0.423200 1.092297
Zn4   Zn    Zn3+2 0.538380 1.000000 0.576800 1.108045
Zn5   Zn    Zn3+2 0.284540 0.284550 0.499990 1.013462
Zn6   Zn    Zn3+2 0.215460 0.784550 0.500010 1.047584
Zn7   Zn    Zn3+2 0.784540 0.784550 0.499990 1.028574
Zn8   Zn    Zn3+2 0.784560 0.215470 0.499990 1.176428
Zn9   Zn    Zn3+2 0.215440 0.215470 0.500010 1.179240
Zn10  Zn    Zn3+2 0.284560 0.715470 0.499990 1.176862
Zn11  Zn    Zn3+2 0.715440 0.715470 0.500010 1.177249
Zn12  Zn    Zn3+2 0.961620 0.500000 0.423200 1.091094

loop_
_geom_bond_atom_site_label_1
_geom_bond_atom_site_label_2
_ccdc_geom_bond_type
C101  C107  S    
C21   C26   A    
H103  O108  S    
C63   S7    S    
C58   C186  S    
C45   C148  S    
C101  C113  A    
C41   C174  S    
C6    C196  A    
C51   S27   S    
C92   H139  S    
C74   C163  S    
C4    C194  A    
O136  S7    D    
C100  H18   S    
O57   Zn5   S    
C109  O57   A    
C75   H81   S    
C34   O85   A    
C49   C153  A    
C35   C124  A    
C154  C158  A    
N2    N6    A    
C184  C193  A    
C29   C33   A    
O130  S5    D    
O33   S20   D    
C42   O80   A    
H37   O21   S    
C102  H21   S    
C134  C143  A    
C152  C157  A    
N5    N16   A    
C67   C164  A    
C54   H13   S    
C150  C172  A    
H52   O28   S    
C88   H123  S    
C121  C147  A    
C76   C166  S    
C122  C148  A    
C77   H86   S    
O43   S24   D    
C104  H27   S    
C54   C59   A    
O1    Zn1   S    
O60   Zn5   S    
C105  H39   S    
C97   H4    S    
C107  H47   S    
C141  H1    S    
O131  S5    S    
C14   C182  A    
C38   O88   A    
C41   O78   A    
C190  C194  A    
C24   N10   A    
C165  C169  A    
C151  H109  S    
O133  S6    D    
C76   H84   S    
C27   C31   A    
H105  O115  S    
C28   C32   A    
O77   Zn5   S    
C65   C100  S    
C20   C189  S    
C13   C60   S    
C46   S15   S    
C167  C171  A    
C74   H78   S    
H33   O11   S    
C17   C21   A    
C64   S8    S    
C99   H11   S    
C19   C23   A    
O6    S11   D    
C19   C188  S    
C66   C153  A    
C181  C190  A    
O25   S17   S    
C12   C181  A    
O23   S17   D    
C156  C160  A    
C16   C20   A    
C72   H70   S    
C75   C165  S    
C68   C110  A    
H30   O144  S    
C154  H131  S    
O120  S2    D    
O104  S28   D    
C70   H63   S    
O106  S29   D    
O72   Zn8   S    
H14   O135  S    
C143  C147  A    
O84   Zn11  S    
C106  H43   S    
C13   N11   A    
C170  C174  A    
C71   H68   S    
C116  S24   S    
H46   O95   S    
C27   C97   S    
C87   H119  S    
O16   S15   D    
C75   H79   S    
C59   C63   A    
C180  N8    A    
O114  S31   D    
C84   H111  S    
C53   C58   A    
C16   C184  A    
C85   H114  S    
C83   H107  S    
C62   S6    S    
O54   Zn8   S    
O102  S27   S    
C30   C36   S    
C82   H99   S    
C84   C182  S    
O48   S25   S    
O47   S25   D    
C186  N9    A    
C42   C176  S    
C103  H25   S    
C80   H94   S    
C87   H122  S    
C49   C53   A    
C71   C156  S    
C51   C55   A    
O27   S18   D    
C77   H88   S    
O137  S7    D    
C81   H96   S    
O134  Zn3   S    
O39   S22   D    
C125  C129  A    
H57   O98   S    
C48   C52   A    
O82   Zn9   S    
O8    S11   S    
C105  H41   S    
C107  H45   S    
C69   C175  A    
C88   H125  S    
H38   O25   S    
O9    S13   D    
C86   H116  S    
C88   C191  S    
C137  C142  S    
C108  H50   S    
O56   Zn10  S    
O29   S19   D    
C67   C103  S    
O3    S10   D    
C119  C146  A    
C135  S11   S    
C3    C193  A    
C99   H9    S    
C144  H76   S    
O127  S4    D    
C188  O74   A    
C91   C193  S    
C94   H146  S    
C92   H138  S    
N14   N15   A    
C177  N5    A    
C18   C187  S    
C137  O59   A    
C83   C181  S    
C25   C29   A    
C23   S30   S    
O138  S7    S    
O140  S8    D    
C2    N1    A    
O87   Zn3   S    
C140  O62   A    
O107  S29   D    
O71   Zn7   S    
C110  C114  A    
C2    N13   A    
H55   O38   S    
C8    C12   A    
C47   O24   A    
C71   H66   S    
O89   S1    D    
C93   H140  S    
C115  S22   S    
H104  O111  S    
O74   Zn10  S    
N12   N13   A    
O115  S31   S    
O64   Zn9   S    
C26   C96   S    
C80   H92   S    
O66   Zn11  S    
C62   C66   A    
C155  C159  A    
C70   C155  S    
C47   O53   A    
C42   O84   A    
C98   H7    S    
C11   C33   A    
O79   Zn7   S    
C180  N3    A    
C140  O66   A    
O22   S17   D    
O95   S12   S    
C6    C94   S    
C23   C28   A    
C72   C157  S    
C114  S21   S    
C44   O2    A    
O37   S21   D    
C117  C122  A    
C5    C9    A    
C73   H72   S    
C61   C65   A    
C123  C127  A    
C168  C172  A    
C132  C136  A    
O20   S16   D    
C31   C34   S    
O46   Zn3   S    
C64   C69   A    
O144  S9    S    
O143  S9    D    
C87   C190  S    
C113  C117  A    
C102  H20   S    
C95   H149  S    
C166  C170  A    
C115  C119  A    
C150  C155  A    
C158  C162  A    
C109  C129  S    
C178  N6    A    
C159  C178  S    
C91   H129  S    
C112  C116  A    
O14   S14   D    
C86   H117  S    
C78   H89   S    
H61   O102  S    
C18   C22   A    
C131  O58   A    
C97   H5    S    
O94   S12   D    
C26   C30   A    
C77   C167  S    
C57   C101  A    
C171  C176  A    
O97   S23   D    
C78   C168  S    
O41   S22   S    
C163  C168  A    
C2    C56   S    
C84   H110  S    
O116  S32   D    
C45   O52   A    
C24   C59   S    
C112  S19   S    
C35   C79   A    
C89   C192  S    
C108  C110  S    
H135  O125  S    
C159  C163  A    
O5    S10   S    
C93   H141  S    
C191  C195  A    
C186  N12   A    
C102  H22   S    
C138  O60   A    
O111  S30   S    
C109  O55   A    
C103  H23   S    
C88   H124  S    
O51   S26   S    
C169  C173  A    
O28   S18   S    
C40   O77   A    
C77   H85   S    
O88   Zn4   S    
C104  H28   S    
O4    S10   D    
C145  H87   S    
C58   C62   A    
O70   Zn6   S    
C96   H151  S    
C97   H3    S    
C46   C125  A    
C130  C135  A    
O93   S12   D    
C183  C192  A    
C104  H29   S    
C24   N15   A    
C15   C19   A    
C95   H148  S    
C152  H120  S    
C50   C54   A    
O98   S23   S    
C89   H126  S    
C192  C196  A    
O73   Zn9   S    
O42   S24   D    
C1    O54   A    
C150  H98   S    
C3    C7    A    
C73   H74   S    
N3    N7    A    
C83   H106  S    
C20   C25   A    
C126  C130  A    
C44   C147  S    
O45   S25   D    
O103  S28   D    
C34   O90   A    
O49   S26   D    
O24   Zn2   S    
O96   S23   D    
C17   C185  S    
C22   S29   S    
C15   C183  A    
C12   C17   A    
C139  O61   A    
O75   Zn11  S    
H32   O8    S    
C4    C8    A    
C124  C128  A    
C44   O46   A    
O63   Zn8   S    
C70   H64   S    
O105  S28   S    
O35   Zn4   S    
C85   C183  S    
C106  H44   S    
C55   C60   A    
O17   S15   D    
C86   C184  S    
C80   C169  S    
H134  O121  S    
C120  O68   A    
C189  O71   A    
C71   H67   S    
C36   O86   A    
C100  H17   S    
C137  O63   A    
O12   S14   D    
O113  S31   D    
C40   O82   A    
C90   C106  S    
O122  S3    D    
O44   S24   S    
N1    N9    A    
C84   H112  S    
C29   C99   S    
O62   Zn7   S    
C85   H113  S    
C111  S18   S    
H16   O141  S    
C119  C124  A    
C50   C164  A    
C108  H49   S    
C33   C37   S    
O36   S21   D    
C89   H127  S    
H59   O48   S    
C93   H143  S    
C52   H142  S    
C9    C14   A    
O117  S32   D    
O142  S9    D    
C39   C172  S    
O10   S13   D    
C11   C16   A    
C113  S20   S    
C87   H121  S    
H53   O31   S    
C81   C170  S    
C178  N16   A    
C81   H95   S    
O85   Zn12  S    
C141  C146  A    
C1    C128  S    
O129  S5    D    
C105  H40   S    
C96   H150  S    
C107  H48   S    
O26   S18   D    
C182  C191  A    
O141  S8    S    
C131  C132  S    
O126  S4    D    
C95   H147  S    
O99   S27   D    
C28   C98   S    
C117  S25   S    
C76   H83   S    
C89   H128  S    
C14   C18   A    
C57   S16   S    
C6    C10   A    
C74   H75   S    
C46   C90   A    
C79   C111  A    
C25   S31   S    
O65   Zn10  S    
C74   H77   S    
C133  C141  A    
O112  Zn4   S    
C8    C30   A    
O108  S29   S    
C139  O65   A    
C43   C146  S    
O59   Zn1   S    
O109  S30   D    
C40   C173  S    
O31   S19   S    
C140  C175  S    
N4    N8    A    
H12   O131  S    
C72   H69   S    
O52   Zn2   S    
C118  C123  A    
C43   O134  A    
C160  C177  S    
C189  O75   A    
C129  C134  A    
O32   S20   D    
C70   H62   S    
O2    Zn4   S    
C106  H42   S    
C56   C61   A    
C73   H73   S    
C154  C176  A    
O132  S6    D    
C128  C133  A    
H58   O44   S    
C145  C149  A    
C131  O79   A    
C4    C92   S    
H31   O5    S    
O100  S27   D    
C123  C149  A    
C100  H19   S    
O76   Zn1   S    
C151  C173  A    
C75   H80   S    
C66   C102  S    
C90   C112  A    
C144  C148  A    
O38   S21   S    
O139  S8    D    
C82   H101  S    
C85   H115  S    
C83   H108  S    
C7    C11   A    
C108  H51   S    
C120  C130  S    
C53   H2    S    
C98   H8    S    
C10   C15   A    
C103  H26   S    
H133  O118  S    
H54   O34   S    
C80   H93   S    
O50   S26   D    
O11   S13   S    
O86   Zn2   S    
H36   O18   S    
C79   C105  S    
O67   Zn1   S    
C81   H97   S    
C127  C132  A    
O69   Zn5   S    
C121  C125  A    
O101  Zn12  S    
O83   Zn10  S    
C47   C149  S    
C13   N14   A    
C38   O123  A    
C143  H65   S    
C32   C38   S    
C161  C166  A    
C5    C195  A    
C152  C174  A    
C68   S17   S    
O123  Zn3   S    
O124  S3    D    
C91   H132  S    
C51   C175  A    
O55   Zn9   S    
C60   C64   A    
C86   H118  S    
O119  S2    D    
O34   S20   S    
O30   S19   D    
C35   S14   S    
O58   Zn11  S    
C63   C67   A    
O19   S16   D    
C120  O56   A    
C99   H10   S    
C94   H144  S    
H15   O138  S    
C195  S2    S    
C57   C126  A    
O125  S3    S    
O91   S1    D    
C94   H145  S    
C92   H137  S    
C37   O112  A    
O121  S2    S    
C48   S1    S    
C160  C165  A    
C138  O64   A    
C73   C158  S    
C72   H71   S    
H34   O15   S    
O135  S6    S    
C122  C126  A    
C185  O72   A    
C133  S9    S    
C187  O69   A    
C10   C32   A    
C177  N2    A    
O81   Zn8   S    
C43   O35   A    
C68   C127  A    
C61   S5    S    
C179  N4    A    
C48   C142  A    
H136  O128  S    
O128  S4    S    
C161  C180  S    
C196  S3    S    
C162  C179  S    
C114  C118  A    
O21   S16   S    
O7    S11   D    
C37   O87   A    
C135  C144  A    
H35   O92   S    
C179  N7    A    
C39   O81   A    
O40   S22   D    
O53   Zn12  S    
O68   Zn6   S    
O78   Zn6   S    
C78   H91   S    
O80   Zn7   S    
C138  C153  S    
C118  S26   S    
C69   C104  S    
O13   Zn12  S    
C3    S4    S    
C1    O1    A    
C96   H152  S    
C98   H6    S    
C136  C145  A    
H60   O51   S    
C157  C161  A    
C50   S23   S    
C41   O83   A    
C5    C93   S    
H56   O41   S    
C55   H24   S    
O110  S30   D    
C7    C95   S    
O92   S1    S    
C39   O76   A    
C76   H82   S    
C36   O101  A    
C22   C27   A    
C45   O13   A    
C134  S10   S    
H102  O105  S    
C82   H100  S    
O61   Zn6   S    
C194  S32   S    
C65   C142  A    
O15   S14   S    
C49   S12   S    
C78   H90   S    
C82   C171  S    
N10   N11   A    
O18   S15   S    
O118  S32   S    
C139  C164  S    
C9    C31   A    
C188  O70   A    
C162  C167  A    
C151  C156  A    
C21   S28   S    
C187  O73   A    
C111  C115  A    
C116  C121  A    
C185  O67   A    
C91   H130  S    
C52   C56   A    
C136  S13   S    
O90   Zn2   S    
