data_mof_unit_11888.cif
_audit_creation_date              2012-12-11T15:52:20-0500
_audit_creation_method            fapswitch 2.2
_symmetry_space_group_name_H-M    P1
_symmetry_Int_Tables_number       1
_space_group_crystal_system       triclinic
_cell_length_a                    11.372363
_cell_length_b                    11.294678
_cell_length_c                    18.846678
_cell_angle_alpha                 89.632243
_cell_angle_beta                  90.41802
_cell_angle_gamma                 120.950979
_cell_volume                      2076.03352799

loop_
_atom_site_label
_atom_site_type_symbol
_atom_type_description
_atom_site_fract_x
_atom_site_fract_y
_atom_site_fract_z
_atom_type_partial_charge
C1    C     C_R   0.519455 0.457974 0.148368 0.563976
C2    C     C_3   0.952936 0.680471 0.462041 -0.131349
C3    C     C_3   0.660196 0.961433 0.457193 -0.169360
C4    C     C_3   0.266143 0.339342 0.451992 -0.134038
C5    C     C_R   0.524070 0.454883 0.355170 0.555407
C6    C     C_R   0.578923 0.127358 0.360491 0.532343
C7    C     C_R   0.938580 0.480615 0.352711 0.538839
C8    C     C_R   0.456865 0.519197 0.646826 0.566595
C9    C     C_R   0.121663 0.576175 0.639275 0.526468
C10   C     C_R   0.484035 0.943352 0.648598 0.547046
C11   C     C_R   0.499819 0.969132 0.929796 -0.034848
C12   C     C_R   0.542611 0.063513 0.147841 0.566563
C13   C     C_R   0.033453 0.532189 0.930033 -0.032714
C14   C     C_R   0.452263 0.517145 0.934383 -0.031780
C15   C     C_R   0.001291 0.503807 0.078805 0.008706
C16   C     C_R   0.497960 0.996892 0.078767 0.011215
C17   C     C_R   0.492954 0.503720 0.081106 0.012626
C18   C     C_R   0.418328 0.012836 0.960943 0.044549
C19   C     C_R   0.985417 0.405437 0.962377 0.040094
C20   C     C_R   0.582211 0.594406 0.964169 0.051002
C21   C     C_R   0.966509 0.390725 0.034876 0.059940
C22   C     C_R   0.421414 0.031184 0.033556 0.058111
C23   C     C_R   0.936133 0.480325 0.147805 0.564675
C24   C     C_R   0.602622 0.584567 0.035674 0.058177
C25   C     C_R   0.561835 0.930315 0.049280 0.218295
C26   C     C_R   0.068435 0.636308 0.048400 0.217964
C27   C     C_R   0.358599 0.439635 0.053323 0.224589
C28   C     C_R   0.072329 0.649765 0.974293 0.197710
C29   C     C_R   0.575709 0.930345 0.975378 0.188079
C30   C     C_R   0.339614 0.434214 0.979615 0.186647
C31   C     C_3   0.417386 0.142659 0.946510 -0.240032
C32   C     C_3   0.854870 0.273859 0.947691 -0.242237
C33   C     C_3   0.709450 0.593911 0.945052 -0.227700
C34   C     C_R   0.429523 0.537862 0.860255 0.561583
C35   C     C_3   0.834407 0.256878 0.027233 -0.222168
C36   C     C_3   0.419775 0.161978 0.026087 -0.224937
C37   C     C_3   0.732448 0.584906 0.023685 -0.230144
C38   C     C_R   0.522728 0.033102 0.584910 0.072041
C39   C     C_R   0.087449 0.546697 0.564188 0.024057
C40   C     C_R   0.498692 0.495912 0.577735 0.054944
C41   C     C_R   0.009881 0.504150 0.420322 0.074074
C42   C     C_R   0.561407 0.113518 0.438948 0.019669
C43   C     C_R   0.518040 0.485702 0.429350 0.044974
C44   C     C_R   0.634018 0.049578 0.546355 0.093826
C45   C     C_R   0.070983 0.549109 0.854825 0.564380
C46   C     C_R   0.082547 0.646966 0.525396 -0.001515
C47   C     C_R   0.399890 0.384106 0.538328 0.048690
C48   C     C_R   0.051055 0.630792 0.453120 0.072324
C49   C     C_R   0.649240 0.084223 0.474858 -0.012708
C50   C     C_R   0.410901 0.380106 0.465942 0.020051
C51   C     C_R   0.443070 0.090513 0.476271 -0.016103
C52   C     C_R   0.991756 0.391352 0.463440 -0.000538
C53   C     C_R   0.617320 0.604584 0.466317 -0.048578
C54   C     C_R   0.012016 0.411871 0.537221 -0.053496
C55   C     C_R   0.432671 0.066338 0.550840 -0.034881
C56   C     C_R   0.479134 0.929441 0.854698 0.555906
C57   C     C_R   0.615116 0.602413 0.542353 -0.046640
C58   C     C_2   0.313677 0.023986 0.437326 0.228186
C59   C     C_2   0.960874 0.254788 0.435918 0.206325
C60   C     C_2   0.713044 0.734327 0.427330 0.206609
C61   C     C_2   0.932991 0.296981 0.586712 0.256710
C62   C     C_2   0.315060 0.052339 0.590236 0.281904
C63   C     C_2   0.737250 0.705815 0.583678 0.246302
C64   C     C_2   0.803152 0.982585 0.566348 0.192727
C65   C     C_2   0.848172 0.543695 0.574587 0.282515
C66   C     C_2   0.160660 0.197104 0.561403 0.196053
C67   C     C_3   0.665122 0.938242 0.535577 -0.120955
C68   C     C_2   0.007853 0.822876 0.432801 0.214297
C69   C     C_2   0.527069 0.850060 0.423288 0.274628
C70   C     C_2   0.260095 0.450972 0.411079 0.229044
C71   C     C_3   0.969612 0.673010 0.540341 -0.185106
C72   C     C_3   0.251292 0.338815 0.531666 -0.111881
Cl1   Cl    Cl    0.637749 0.859624 0.104297 -0.478641
Cl2   Cl    Cl    0.137554 0.785872 0.102244 -0.473823
Cl3   Cl    Cl    0.213153 0.355256 0.109160 -0.478764
Cl4   Cl    Cl    0.104013 0.810824 0.941081 -0.503890
Cl5   Cl    Cl    0.708416 0.905991 0.944256 -0.517657
Cl6   Cl    Cl    0.180939 0.301219 0.946030 -0.507027
Cr1   Cr    Cr6+3 0.769160 0.541570 0.250690 1.168692
Cr2   Cr    Cr6+3 0.458430 0.227590 0.250690 1.157701
Cr3   Cr    Cr6+3 0.772410 0.230840 0.250690 1.146329
Cr4   Cr    Cr6+3 0.541570 0.769160 0.749310 1.168558
Cr5   Cr    Cr6+3 0.227590 0.458430 0.749310 1.152848
Cr6   Cr    Cr6+3 0.230840 0.772410 0.749310 1.128170
H1    H     H_    0.320200 0.122157 0.921114 0.244997
H2    H     H_    0.841784 0.169227 0.048933 0.247626
H3    H     H_    0.323447 0.151362 0.046650 0.243372
H4    H     H_    0.823315 0.679712 0.044861 0.242897
H5    H     H_    0.584462 0.833149 0.552919 0.167262
H6    H     H_    0.008138 0.770425 0.570404 0.122924
H7    H     H_    0.231282 0.417491 0.552616 0.156531
H8    H     H_    0.847733 0.607594 0.443152 0.187134
H9    H     H_    0.752819 0.988524 0.426107 0.162708
H10   H     H_    0.202627 0.238264 0.426388 0.200642
H11   H     H_    0.257104 0.912768 0.436022 0.162423
H12   H     H_    0.873738 0.196264 0.922988 0.251345
H13   H     H_    0.929274 0.172538 0.472476 0.049905
H14   H     H_    0.792874 0.820866 0.454512 0.061484
H15   H     H_    0.966329 0.227017 0.597622 0.175126
H16   H     H_    0.212705 0.992501 0.568471 0.072445
H17   H     H_    0.824785 0.783380 0.556603 0.066795
H18   H     H_    0.885748 0.998194 0.532545 0.039544
H19   H     H_    0.842416 0.533726 0.631877 0.219203
H20   H     H_    0.112373 0.109413 0.526357 0.070583
H21   H     H_    0.035281 0.908302 0.468172 0.067523
H22   H     H_    0.525824 0.812741 0.370400 0.210532
H23   H     H_    0.788323 0.692928 0.920663 0.246376
H24   H     H_    0.238737 0.439489 0.354539 0.184149
H25   H     H_    0.744895 0.262851 0.045374 0.084517
H26   H     H_    0.515870 0.253740 0.045259 0.086758
H27   H     H_    0.725293 0.486354 0.039279 0.084699
H28   H     H_    0.512219 0.223125 0.919749 0.114298
H29   H     H_    0.777484 0.289956 0.919944 0.113058
H30   H     H_    0.687620 0.499950 0.915266 0.120169
O1    O     O_R   0.911480 0.572650 0.170990 -0.456331
O2    O     O_R   0.528970 0.640340 0.824320 -0.465075
O3    O     O_R   0.111370 0.471030 0.824320 -0.468734
O4    O     O_R   0.359660 0.888630 0.824320 -0.462938
O5    O     O_R   0.909980 0.572450 0.331530 -0.476684
O6    O     O_R   0.427550 0.337530 0.331530 -0.485586
O7    O     O_R   0.662470 0.090020 0.331530 -0.491617
O8    O     O_R   0.572450 0.909980 0.668470 -0.464103
O9    O     O_R   0.337530 0.427550 0.668470 -0.471780
O10   O     O_R   0.090020 0.662470 0.668470 -0.518387
O11   O     O_R   0.638950 0.528780 0.324500 -0.447493
O12   O     O_R   0.427350 0.338830 0.170990 -0.466633
O13   O     O_R   0.471220 0.110170 0.324500 -0.440897
O14   O     O_R   0.889830 0.361050 0.324500 -0.461913
O15   O     O_R   0.528780 0.638950 0.675500 -0.454510
O16   O     O_R   0.110170 0.471220 0.675500 -0.485056
O17   O     O_R   0.361050 0.889830 0.675500 -0.495022
O18   O     O_3   0.666667 0.333333 0.250560 -0.369899
O19   O     O_3   0.333333 0.666667 0.749440 -0.367762
O20   O     O_2   0.275781 0.089287 0.402709 -0.476492
O21   O     O_2   0.987502 0.236001 0.375952 -0.476300
O22   O     O_2   0.699482 0.753664 0.364877 -0.457651
O23   O     O_R   0.661170 0.088520 0.170990 -0.456080
O24   O     O_2   0.839234 0.289863 0.621254 -0.448002
O25   O     O_2   0.332483 0.106020 0.648451 -0.408965
O26   O     O_2   0.754504 0.694083 0.646788 -0.454200
O27   O     O_2   0.821458 0.990302 0.630504 -0.396263
O28   O     O_2   0.760149 0.448348 0.539214 -0.524525
O29   O     O_2   0.141588 0.178688 0.625183 -0.409787
O30   O     O_2   0.017005 0.842970 0.368818 -0.375421
O31   O     O_2   0.417951 0.811450 0.452728 -0.511806
O32   O     O_2   0.286145 0.557329 0.440077 -0.499510
O33   O     O_R   0.572650 0.911480 0.829010 -0.447483
O34   O     O_R   0.338830 0.427350 0.829010 -0.442801
O35   O     O_R   0.088520 0.661170 0.829010 -0.444472
O36   O     O_R   0.640340 0.528970 0.175680 -0.480875
O37   O     O_R   0.471030 0.111370 0.175680 -0.481993
O38   O     O_R   0.888630 0.359660 0.175680 -0.484199

loop_
_geom_bond_atom_site_label_1
_geom_bond_atom_site_label_2
_ccdc_geom_bond_type
C44   C49   A    
C40   C47   A    
C23   O38   A    
Cr2   O6    S    
C11   C18   A    
Cr2   O18   S    
Cr1   O1    S    
Cr2   O37   S    
C69   O31   D    
C63   O26   D    
C37   H4    S    
C33   H23   S    
C67   H5    S    
C63   H17   S    
C4    C70   S    
Cr4   O33   S    
C3    C49   S    
C9    O16   A    
C58   O20   D    
Cr3   O23   S    
C33   H30   S    
C31   H1    S    
C3    C69   S    
C25   Cl1   S    
C6    O13   A    
C2    C68   S    
C31   C36   S    
C35   H2    S    
C61   O24   D    
C39   C54   A    
C64   O27   D    
C34   O2    A    
C55   C62   S    
C9    C39   S    
C9    O10   A    
C32   H29   S    
C10   O17   A    
C34   O34   A    
C43   C53   A    
C66   C72   S    
C38   C55   A    
C20   C24   A    
Cr1   O5    S    
C31   H28   S    
C13   C28   A    
C70   O32   D    
C62   O25   D    
C60   O22   D    
C41   C52   A    
C45   O35   A    
C35   H25   S    
C42   C51   A    
Cr6   O35   S    
C15   C23   S    
C5    C43   S    
C27   C30   A    
C12   O37   A    
C61   H15   S    
C14   C30   A    
C27   Cl3   S    
C19   C32   S    
C26   C28   A    
C53   C60   S    
C52   C54   A    
C57   C63   S    
C47   C50   A    
C36   H3    S    
C25   C29   A    
C12   C16   S    
C46   C48   A    
Cr6   O19   S    
C17   C24   A    
C37   H27   S    
C13   C19   A    
C5    O6    A    
C17   C27   A    
C32   C35   S    
C14   C20   A    
C1    O12   A    
Cr5   O16   S    
C72   H7    S    
C53   C57   A    
Cr3   O18   S    
C15   C26   A    
C66   O29   D    
C2    C48   S    
C65   C71   S    
C33   C37   S    
C4    C50   S    
C64   H18   S    
C58   H11   S    
C64   C67   S    
C38   C44   A    
C52   C59   S    
C7    O5    A    
C66   H20   S    
C24   C37   S    
C1    O36   A    
C3    H9    S    
C51   C58   S    
Cr4   O15   S    
C2    H8    S    
C46   C71   S    
C39   C46   A    
C62   H16   S    
C20   C33   S    
C32   H12   S    
Cr1   O36   S    
Cr3   O14   S    
C36   H26   S    
C7    O14   A    
C4    H10   S    
C68   H21   S    
C65   H19   S    
C2    C71   S    
C28   Cl4   S    
C43   C50   A    
C4    C72   S    
C45   O3    A    
C16   C25   A    
C16   C22   A    
C40   C57   A    
C19   C21   A    
C18   C22   A    
C56   O4    A    
C3    C67   S    
C10   O8    A    
C54   C61   S    
C14   C34   S    
C69   H22   S    
C8    O9    A    
C21   C35   S    
Cr2   O13   S    
Cr6   O10   S    
Cr3   O38   S    
C22   C36   S    
Cr6   O17   S    
C1    C17   S    
C10   C38   S    
Cr5   O3    S    
C56   O33   A    
Cr4   O2    S    
C70   H24   S    
C13   C45   S    
C65   O28   D    
Cr3   O7    S    
C71   H6    S    
Cr2   O12   S    
Cr4   O19   S    
C59   H13   S    
Cr1   O18   S    
C59   O21   D    
C26   Cl2   S    
C41   C48   A    
C68   O30   D    
C51   C55   A    
C7    C41   S    
Cr1   O11   S    
C47   C72   S    
Cr5   O19   S    
C42   C49   A    
C23   O1    A    
Cr5   O34   S    
C30   Cl6   S    
C15   C21   A    
C29   Cl5   S    
C11   C29   A    
Cr6   O4    S    
C6    C42   S    
C60   H14   S    
C5    O11   A    
C8    O15   A    
C12   O23   A    
C44   C67   S    
C18   C31   S    
C8    C40   S    
C6    O7    A    
Cr5   O9    S    
Cr4   O8    S    
C11   C56   S    
