data_mof_unit_28894.cif
_audit_creation_date              2012-12-11T17:25:04-0500
_audit_creation_method            fapswitch 2.2
_symmetry_space_group_name_H-M    P1
_symmetry_Int_Tables_number       1
_space_group_crystal_system       triclinic
_cell_length_a                    6.954733
_cell_length_b                    20.526508
_cell_length_c                    24.511609
_cell_angle_alpha                 90.056481
_cell_angle_beta                  90.504197
_cell_angle_gamma                 89.524929
_cell_volume                      3498.93141013

loop_
_atom_site_label
_atom_site_type_symbol
_atom_type_description
_atom_site_fract_x
_atom_site_fract_y
_atom_site_fract_z
_atom_type_partial_charge
O1    O     O_R   0.507280 0.423750 0.460310 -0.537351
O2    O     O_R   0.171030 0.555650 0.437630 -0.537702
O3    O     O_R   0.004080 0.576250 0.539690 -0.537011
C1    C     C_R   0.339063 0.575678 0.421787 0.721635
O4    O     O_R   0.177330 0.422980 0.453960 -0.538901
O5    O     O_R   0.010420 0.442640 0.556140 -0.535659
C2    C     C_R   0.346130 0.399130 0.443221 0.691363
O6    O     O_R   0.500930 0.557360 0.443860 -0.536239
O7    O     O_3   0.340310 0.506600 0.533500 -0.363551
V1    V     V_3+5 0.064140 0.498780 0.493780 1.430467
O8    O     O_R   0.680890 0.444350 0.562370 -0.535018
C3    C     C_R   0.850600 0.424436 0.578167 0.732555
O9    O     O_R   0.674590 0.577020 0.546040 -0.534667
C4    C     C_R   0.842897 0.600890 0.556716 0.703539
V2    V     V_3+5 0.564550 0.501220 0.506220 1.442748
O10   O     O_3   0.838250 0.493400 0.466500 -0.369754
C5    C     C_R   0.974639 0.838420 0.911019 -0.048359
C6    C     C_R   0.848845 0.661493 0.588927 -0.048435
C7    C     C_R   0.005054 0.721356 0.907156 -0.149768
C8    C     C_R   0.014886 0.779193 0.936642 -0.169557
C9    C     C_R   0.934970 0.839617 0.854681 -0.195801
C10   C     C_R   0.945516 0.781918 0.822395 0.080353
C11   C     C_R   0.965819 0.722184 0.850834 0.127991
C12   C     C_R   0.926860 0.780728 0.763688 0.000484
C13   C     C_R   0.896249 0.719198 0.736260 0.000487
C14   C     C_R   0.881819 0.662026 0.769043 -0.043271
C15   C     C_R   0.932805 0.663557 0.824055 -0.226095
C16   C     C_R   0.941191 0.837901 0.730900 -0.043246
C17   C     C_R   0.890124 0.836364 0.675893 -0.226077
C18   C     C_R   0.857237 0.777730 0.649113 0.127971
C19   C     C_R   0.877663 0.718003 0.677553 0.080359
C20   C     C_R   0.818034 0.778546 0.592789 -0.149765
C21   C     C_R   0.808436 0.720706 0.563300 -0.169485
C22   C     C_R   0.888411 0.660308 0.645271 -0.195720
H1    H     H_    0.931457 0.618662 0.847474 0.128895
H2    H     H_    0.935005 0.614343 0.662101 0.121219
H3    H     H_    0.776620 0.722326 0.519967 0.106757
H4    H     H_    0.891370 0.881260 0.652474 0.128901
H5    H     H_    0.025329 0.675654 0.928649 0.115470
H6    H     H_    0.046765 0.777562 0.979972 0.106696
H7    H     H_    0.888467 0.885596 0.837867 0.121235
H8    H     H_    0.797645 0.824241 0.571295 0.115482
H9    H     H_    0.619056 0.207780 0.794436 0.113983
C23   C     C_R   0.729984 0.270631 0.732036 -0.146124
H10   H     H_    0.588066 0.286146 0.718598 0.113564
C24   C     C_R   0.894311 0.295005 0.706450 0.135574
C25   C     C_R   0.076530 0.273980 0.724692 -0.150494
H11   H     H_    0.205137 0.292126 0.705492 0.113986
C26   C     C_R   0.094209 0.229275 0.767892 -0.146120
H12   H     H_    0.236127 0.213760 0.781330 0.113560
C27   C     C_R   0.929883 0.204901 0.793478 0.135581
C28   C     C_R   0.747663 0.225926 0.775236 -0.150493
C29   C     C_1   0.876389 0.341090 0.661472 -0.045776
C30   C     C_1   0.947808 0.158817 0.838457 -0.045770
C31   C     C_1   0.961018 0.120612 0.876236 -0.173564
C32   C     C_1   0.863191 0.379298 0.623695 -0.173631
H13   H     H_    0.698956 0.703266 0.297023 0.112295
C33   C     C_R   0.596716 0.767938 0.233725 -0.155663
H14   H     H_    0.740592 0.781149 0.221564 0.110849
C34   C     C_R   0.436083 0.795030 0.206671 0.136079
C35   C     C_R   0.251294 0.776811 0.223418 -0.155516
H15   H     H_    0.125236 0.796993 0.203161 0.112303
C36   C     C_R   0.227474 0.732325 0.266463 -0.155665
H16   H     H_    0.083599 0.719110 0.278621 0.110845
C37   C     C_R   0.388109 0.705230 0.293515 0.136088
C38   C     C_R   0.572897 0.723452 0.276769 -0.155523
C39   C     C_1   0.459855 0.841026 0.161757 -0.059654
C40   C     C_1   0.364347 0.659206 0.338409 -0.059648
C41   C     C_1   0.348982 0.620983 0.376147 -0.192235
C42   C     C_1   0.475242 0.879211 0.123993 -0.192130
C43   C     C_R   0.472899 0.161540 0.089182 -0.042464
C44   C     C_R   0.352097 0.338532 0.410901 -0.042781
C45   C     C_R   0.533694 0.277100 0.094929 -0.160179
C46   C     C_R   0.525173 0.219921 0.064518 -0.167133
C47   C     C_R   0.429771 0.160592 0.145152 -0.214581
C48   C     C_R   0.440859 0.218257 0.177547 0.086654
C49   C     C_R   0.493467 0.276779 0.150943 0.138546
C50   C     C_R   0.404326 0.219932 0.235200 0.057847
C51   C     C_R   0.420952 0.280110 0.264903 0.057846
C52   C     C_R   0.473018 0.336563 0.235936 -0.186629
C53   C     C_R   0.508001 0.334744 0.180300 -0.200250
C54   C     C_R   0.352423 0.163467 0.264177 -0.186599
C55   C     C_R   0.317525 0.165283 0.319820 -0.200261
C56   C     C_R   0.331927 0.223260 0.349167 0.138523
C57   C     C_R   0.384356 0.281794 0.322552 0.086721
C58   C     C_R   0.291750 0.222941 0.405184 -0.160144
C59   C     C_R   0.300088 0.280134 0.435582 -0.167152
C60   C     C_R   0.395189 0.339479 0.354929 -0.214645
H17   H     H_    0.548193 0.379460 0.159996 0.124229
H18   H     H_    0.431810 0.386099 0.337978 0.094177
H19   H     H_    0.264572 0.278946 0.478525 0.107963
H20   H     H_    0.277500 0.120557 0.340134 0.124248
H21   H     H_    0.574619 0.321737 0.074663 0.115302
H22   H     H_    0.560716 0.221106 0.021578 0.108016
H23   H     H_    0.392862 0.113991 0.162087 0.094332
H24   H     H_    0.488776 0.383427 0.255103 0.123899
H25   H     H_    0.336827 0.116591 0.245021 0.123919
H26   H     H_    0.250989 0.178292 0.425463 0.115294
O11   O     O_R   0.323320 0.942780 0.056240 -0.536303
O12   O     O_R   0.647300 0.077050 0.046060 -0.538802
O13   O     O_R   0.813840 0.057330 0.943840 -0.535679
C61   C     C_R   0.478598 0.100953 0.056844 0.691803
O14   O     O_R   0.653250 0.944380 0.062400 -0.537693
O15   O     O_R   0.819830 0.923720 0.960300 -0.537072
C62   C     C_R   0.485188 0.924446 0.078305 0.721560
O16   O     O_R   0.317330 0.076390 0.039790 -0.537654
O17   O     O_3   0.483830 0.993470 0.966560 -0.363694
V3    V     V_3+5 0.760140 0.001210 0.006210 1.430479
O18   O     O_R   0.149290 0.922840 0.953850 -0.535073
C63   C     C_R   0.980877 0.899024 0.943227 0.703160
O19   O     O_R   0.143340 0.055500 0.937510 -0.535118
C64   C     C_R   0.973635 0.075478 0.921766 0.732516
V4    V     V_3+5 0.259690 0.998600 0.993650 1.443034
O20   O     O_3   0.986130 0.006520 0.033440 -0.369641
C65   C     C_1   0.791381 0.602577 0.750822 0.294735
N1    N     N_1   0.718279 0.554900 0.736693 -0.359887
C66   C     C_1   0.031588 0.897365 0.749103 0.294695
N2    N     N_1   0.104660 0.945053 0.763216 -0.359942

loop_
_geom_bond_atom_site_label_1
_geom_bond_atom_site_label_2
_ccdc_geom_bond_type
C13   C19   A    
O15   C63   A    
C36   C37   A    
C59   H19   S    
C31   C64   S    
C45   C46   A    
C46   H22   S    
O2    C1    A    
C7    C8    A    
C45   H21   S    
H13   C38   S    
C1    O6    A    
C5    C63   S    
C26   H12   S    
C47   H23   S    
C25   C26   A    
C43   C47   A    
O13   C64   A    
C55   H20   S    
C14   C15   A    
C9    C10   A    
C16   C17   A    
C56   C58   A    
C16   C66   S    
O5    C3    A    
C18   C19   A    
C8    H6    S    
H9    C28   S    
C29   C32   T    
C33   C34   A    
V2    O10   S    
C5    C8    A    
V3    O20   S    
C35   C36   A    
C4    C6    S    
C14   C65   S    
O17   V4    S    
C30   C31   T    
O8    V2    S    
C56   C57   A    
C33   C38   A    
C25   H11   S    
C34   C39   S    
C40   C41   T    
C26   C27   A    
C17   H4    S    
O17   V3    S    
O14   V3    S    
O1    V2    S    
C11   C15   A    
C52   H24   S    
O7    V1    S    
O18   V4    S    
C53   H17   S    
C23   C28   A    
O13   V3    S    
O1    C2    A    
O9    C4    A    
C1    C41   S    
C44   C60   A    
C23   C24   A    
O11   C62   A    
O12   V3    S    
O16   V4    S    
C27   C28   A    
C12   C13   A    
O19   V4    S    
C2    C44   S    
O4    C2    A    
C50   C51   A    
C15   H1    S    
C13   C14   A    
C21   H3    S    
C51   C52   A    
C34   C35   A    
C7    C11   A    
C47   C48   A    
O5    V1    S    
C17   C18   A    
C50   C54   A    
C55   C56   A    
C49   C53   A    
C37   C40   S    
O12   C61   A    
C19   C22   A    
O14   C62   A    
C48   C49   A    
C6    C22   A    
C3    C32   S    
O3    C4    A    
C7    H5    S    
C9    H7    S    
C43   C61   S    
C60   H18   S    
C37   C38   A    
O6    V2    S    
O9    V2    S    
C54   H25   S    
C10   C12   A    
O2    V1    S    
O15   V3    S    
C44   C59   A    
C23   H10   S    
V4    O20   S    
C57   C60   A    
C24   C25   A    
C20   H8    S    
O19   C64   A    
C58   C59   A    
C12   C16   A    
C48   C50   A    
C52   C53   A    
C42   C62   S    
O11   V4    S    
C43   C46   A    
O8    C3    A    
C39   C42   T    
C20   C21   A    
C27   C30   S    
C33   H14   S    
O4    V1    S    
O3    V1    S    
V1    O10   S    
C66   N2    T    
C18   C20   A    
C24   C29   S    
C51   C57   A    
C61   O16   A    
C22   H2    S    
O7    V2    S    
C35   H15   S    
C58   H26   S    
C6    C21   A    
C5    C9    A    
C36   H16   S    
C54   C55   A    
C45   C49   A    
C10   C11   A    
O18   C63   A    
C65   N1    T    
