data_mof_unit_68595.cif
_audit_creation_date              2013-03-05T16:02:50-0500
_audit_creation_method            fapswitch 2.2
_symmetry_space_group_name_H-M    P1
_symmetry_Int_Tables_number       1
_space_group_crystal_system       triclinic
_cell_length_a                    6.962528
_cell_length_b                    14.359726
_cell_length_c                    16.528622
_cell_angle_alpha                 90.035697
_cell_angle_beta                  89.873508
_cell_angle_gamma                 88.966117
_cell_volume                      1652.25811153

loop_
_atom_site_label
_atom_site_type_symbol
_atom_site_description
_atom_site_fract_x
_atom_site_fract_y
_atom_site_fract_z
_atom_type_partial_charge
O1    O     O_R   0.611670 0.415650 0.164070 -0.566659
O2    O     O_R   0.388330 0.915650 0.835930 -0.580474
O3    O     O_R   0.940950 0.405490 0.337780 -0.544798
O4    O     O_R   0.059050 0.905490 0.662220 -0.581909
O5    O     O_R   0.111350 0.584350 0.338470 -0.565936
O6    O     O_R   0.888650 0.084350 0.661530 -0.579195
C1    C     C_R   0.772359 0.382960 0.367263 1.025840
C2    C     C_R   0.227579 0.884336 0.632517 1.122229
O7    O     O_R   0.941380 0.404630 0.164680 -0.580996
O8    O     O_R   0.058620 0.904630 0.835320 -0.546624
O9    O     O_R   0.111780 0.583470 0.164130 -0.555253
O10   O     O_R   0.888220 0.083470 0.835870 -0.526052
C3    C     C_R   0.776746 0.386050 0.132604 0.987097
C4    C     C_R   0.231015 0.880129 0.862024 1.004950
O11   O     O_R   0.611240 0.416530 0.338400 -0.595770
O12   O     O_R   0.388760 0.916530 0.661600 -0.592287
O13   O     O_3   0.778020 0.558680 0.251290 -0.232187
O14   O     O_3   0.221980 0.058680 0.748710 -0.234891
V1    V     V_3+5 0.052840 0.489110 0.251260 1.358148
V2    V     V_3+5 0.947160 0.989110 0.748740 1.344369
O15   O     O_R   0.441500 0.594510 0.164760 -0.532882
O16   O     O_R   0.558500 0.094510 0.835240 -0.548404
C5    C     C_R   0.273226 0.614838 0.134113 1.013568
C6    C     C_R   0.723821 0.117791 0.863576 0.936752
O17   O     O_R   0.441080 0.595370 0.337860 -0.568889
O18   O     O_R   0.558920 0.095370 0.662140 -0.599828
C7    C     C_R   0.270857 0.616929 0.368101 1.244207
C8    C     C_R   0.728012 0.116929 0.632535 1.117467
V3    V     V_3+5 0.552850 0.510890 0.251270 1.343808
V4    V     V_3+5 0.447150 0.010890 0.748730 1.346175
O19   O     O_3   0.277800 0.441320 0.251250 -0.270342
O20   O     O_3   0.722200 0.941320 0.748750 -0.266025
C9    C     C_3   0.132749 0.654439 0.509740 -0.391910
C10   C     C_3   0.935764 0.178234 0.515906 -0.442632
H1    H     H_    0.992987 0.628641 0.487742 0.191105
H2    H     H_    0.061159 0.180468 0.557307 0.197285
H3    H     H_    0.209073 0.594737 0.538980 0.297009
H4    H     H_    0.943220 0.108600 0.487071 0.280043
C11   C     C_3   0.093169 0.733036 0.573539 0.309653
C12   C     C_3   0.954891 0.255320 0.450000 0.336127
H5    H     H_    0.943497 0.759510 0.565515 0.089661
H6    H     H_    0.070438 0.302191 0.469306 0.208861
C13   C     C_3   0.166827 0.785870 0.409664 0.249891
C14   C     C_3   0.724195 0.289250 0.595228 0.154548
C15   C     C_3   0.457164 0.712019 0.471034 -0.544051
C16   C     C_3   0.582775 0.172119 0.499081 -0.344281
C17   C     C_3   0.256102 0.690229 0.437696 -0.299589
C18   C     C_3   0.742444 0.187978 0.562582 -0.325043
H7    H     H_    0.540006 0.750181 0.424589 0.252188
H8    H     H_    0.439786 0.182366 0.528300 0.200131
H9    H     H_    0.541338 0.646997 0.481658 0.219689
H10   H     H_    0.594245 0.098362 0.479299 0.272338
C19   C     C_3   0.233495 0.816082 0.560070 -0.356201
C20   C     C_3   0.760336 0.312338 0.439173 -0.455917
C21   C     C_3   0.173707 0.865283 0.476413 0.242528
C22   C     C_3   0.709753 0.363584 0.523621 0.368059
C23   C     C_3   0.443032 0.770394 0.550114 0.890659
C24   C     C_3   0.600658 0.236556 0.423138 0.895400
H11   H     H_    0.251809 0.812905 0.360485 0.221597
H12   H     H_    0.592755 0.291877 0.632019 0.203498
H13   H     H_    0.360771 0.563262 0.768925 0.200580
H14   H     H_    0.007701 0.071986 0.210116 0.204709
C25   C     C_R   0.308994 0.948577 0.031421 0.291154
C26   C     C_R   0.741123 0.447868 0.948266 0.272185
C27   C     C_R   0.371943 0.976629 0.107348 -0.296651
C28   C     C_R   0.712334 0.465419 0.865364 -0.207403
C29   C     C_R   0.400597 0.913234 0.167694 -0.224372
C30   C     C_R   0.630129 0.400111 0.815674 -0.191971
C31   C     C_R   0.357297 0.820613 0.155285 0.382117
C32   C     C_R   0.589783 0.312740 0.846077 0.249065
C33   C     C_R   0.299772 0.785537 0.079326 -0.041927
C34   C     C_R   0.679053 0.283581 0.919030 -0.008071
C35   C     C_R   0.281708 0.851243 0.013891 -0.040923
C36   C     C_R   0.729179 0.353260 0.977958 -0.028989
C37   C     C_R   0.266076 0.687244 0.066709 -0.203954
C38   C     C_R   0.720054 0.187522 0.932661 -0.139813
C39   C     C_R   0.259576 0.655363 0.985928 0.169298
C40   C     C_R   0.771380 0.159451 0.011444 0.182412
C41   C     C_R   0.282082 0.719275 0.921247 -0.005993
C42   C     C_R   0.829244 0.226176 0.069568 -0.047167
C43   C     C_R   0.254014 0.816510 0.933805 -0.196904
C44   C     C_R   0.781708 0.322832 0.058580 -0.204418
C45   C     C_R   0.246925 0.559433 0.967144 -0.067333
C46   C     C_R   0.763629 0.065056 0.034544 -0.051523
C47   C     C_R   0.258228 0.529536 0.886992 -0.155168
C48   C     C_R   0.833390 0.036015 0.109425 -0.167582
C49   C     C_R   0.319914 0.590915 0.827541 -0.128179
C50   C     C_R   0.928869 0.098620 0.158416 -0.132598
C51   C     C_R   0.360610 0.683251 0.848374 0.282187
C52   C     C_R   0.942671 0.192328 0.135311 0.281687
H15   H     H_    0.391509 0.049589 0.121252 0.222780
H16   H     H_    0.731808 0.534301 0.840754 0.234411
H17   H     H_    0.442050 0.937653 0.227095 0.228137
H18   H     H_    0.578115 0.421546 0.756744 0.213698
H19   H     H_    0.221690 0.507596 0.013285 0.115298
H20   H     H_    0.707042 0.012917 0.994144 0.129895
H21   H     H_    0.238742 0.456791 0.872542 0.180388
H22   H     H_    0.828881 0.963171 0.126043 0.178375
O21   O     O_3   0.583811 0.839359 0.545971 -0.713543
H23   H     H_    0.656509 0.839614 0.597536 0.358043
O22   O     O_3   0.419205 0.279139 0.410102 -0.752283
H24   H     H_    0.394083 0.283861 0.351259 0.364541
N1    N     N_R   0.317436 0.936851 0.458506 0.251634
O23   O     O_R   0.306192 0.014985 0.498086 -0.446025
O24   O     O_R   0.449637 0.926952 0.403132 -0.337202
N2    N     N_R   0.513020 0.404633 0.519895 0.259287
O25   O     O_R   0.482840 0.480776 0.479361 -0.415098
O26   O     O_R   0.368094 0.369178 0.558296 -0.386634
N3    N     N_R   0.260656 0.021847 0.976650 0.227243
O27   O     O_R   0.086768 0.025869 0.950404 -0.420662
O28   O     O_R   0.354299 0.099145 0.979380 -0.379957
N4    N     N_R   0.783298 0.527762 0.997156 0.207481
O29   O     O_R   0.859922 0.599712 0.962990 -0.396574
O30   O     O_R   0.677296 0.545101 0.059542 -0.417286
N5    N     N_R   0.346949 0.765612 0.224371 0.177202
O31   O     O_R   0.177253 0.739048 0.246040 -0.443290
O32   O     O_R   0.494874 0.758034 0.272010 -0.416560
N6    N     N_R   0.423293 0.266365 0.815680 0.235686
O33   O     O_R   0.369273 0.278103 0.741103 -0.408581
O34   O     O_R   0.298283 0.234871 0.866952 -0.309611
N7    N     N_R   0.532956 0.723588 0.815848 0.242735
O35   O     O_R   0.624455 0.681229 0.757590 -0.391449
O36   O     O_R   0.632624 0.778932 0.861157 -0.363558
N8    N     N_R   0.110507 0.241406 0.160448 0.248041
O37   O     O_R   0.208369 0.287192 0.106810 -0.368717
O38   O     O_R   0.192706 0.221192 0.228884 -0.398161
O39   O     O_3   0.110299 0.697090 0.652402 -0.688516
H25   H     H_    0.998325 0.656478 0.661309 0.367590
O40   O     O_3   0.012285 0.214937 0.376140 -0.665210
H26   H     H_    0.131088 0.177602 0.386377 0.384277
O41   O     O_3   0.980742 0.772553 0.378080 -0.621436
H27   H     H_    0.892278 0.758327 0.423176 0.328936
O42   O     O_3   0.871989 0.307954 0.651001 -0.692219
H28   H     H_    0.994693 0.313993 0.621227 0.380068
N9    N     N_R   0.985396 0.915196 0.473787 0.245923
O43   O     O_R   0.893443 0.941543 0.538080 -0.416736
O44   O     O_R   0.931392 0.952653 0.405517 -0.289066
N10   N     N_R   0.840292 0.440960 0.541454 0.229186
O45   O     O_R   0.990829 0.457247 0.497499 -0.445930
O46   O     O_R   0.804323 0.494979 0.603174 -0.370976
O47   O     O_3   0.480128 0.710542 0.616000 -0.687354
H29   H     H_    0.611540 0.683564 0.608731 0.339414
O48   O     O_3   0.649261 0.179133 0.356207 -0.679774
H30   H     H_    0.665780 0.219377 0.307985 0.301828

loop_
_geom_bond_atom_site_label_1
_geom_bond_atom_site_label_2
_geom_bond_distance
_ccdc_geom_bond_type
C28   C30   1.379166 A    
C12   O40   1.405317 S    
C25   C27   1.391938 A    
O15   V3    2.015168 S    
O22   H24   0.990715 S    
C21   N1    1.476950 S    
O13   V3    1.722677 S    
O4    C2    1.301754 A    
V1    O19   1.698651 S    
N4    O30   1.288283 A    
N9    O43   1.292303 A    
C11   H5    1.111057 S    
O18   C8    1.316109 A    
C15   C23   1.554328 S    
C9    C11   1.564531 S    
C51   N7    1.444670 S    
C10   C12   1.560727 S    
C38   C40   1.408325 A    
O3    C1    1.315812 A    
N3    O28   1.298214 A    
V2    O20   1.721335 S    
C40   C42   1.420499 A    
C26   N4    1.437867 S    
N2    O25   1.296834 A    
C15   H9    1.107696 S    
O12   V4    2.023683 S    
O48   H30   0.992483 S    
C23   O21   1.407472 S    
C16   H10   1.109709 S    
N9    O44   1.303590 A    
C46   H20   1.082983 S    
C15   C17   1.542805 S    
C31   C33   1.413898 A    
O7    C3    1.296053 A    
N6    O33   1.299744 A    
H13   C49   1.082344 S    
O13   V1    2.142497 S    
O5    C7    1.308798 A    
C24   O48   1.416135 S    
O7    V1    2.039237 S    
O6    C8    1.297395 A    
O8    V2    2.023578 S    
C27   C29   1.363396 A    
O3    V1    2.030950 S    
O14   V4    1.699990 S    
C10   H2    1.111385 S    
C13   H11   1.080791 S    
C39   C41   1.419666 A    
C45   H19   1.082322 S    
C2    O12   1.313395 A    
C16   C24   1.565935 S    
C8    C18   1.546771 S    
C36   C44   1.448283 A    
C48   H22   1.082638 S    
C35   C43   1.428943 A    
N4    O29   1.300107 A    
O11   V3    2.015043 S    
C16   C18   1.550278 S    
C19   C21   1.605469 S    
O17   V3    2.021003 S    
C20   C22   1.612759 S    
C33   C37   1.450011 A    
C11   O39   1.406802 S    
C48   C50   1.388821 A    
C42   C44   1.432812 A    
O8    C4    1.321599 A    
C33   C35   1.439933 A    
C19   C23   1.596933 S    
C6    C38   1.518132 S    
C28   H16   1.080436 S    
C1    O11   1.304429 A    
C25   C35   1.443227 A    
N5    O32   1.300870 A    
H14   C50   1.082885 S    
C3    C44   1.523004 S    
C39   C45   1.416239 A    
C9    H3    1.111821 S    
C29   C31   1.384296 A    
C26   C28   1.407517 A    
C25   N3    1.424632 S    
C22   N10   1.478068 S    
C14   C22   1.596422 S    
O21   H23   0.992259 S    
C15   H7    1.110078 S    
O9    V1    2.024421 S    
O10   V2    2.013277 S    
O1    V3    2.022415 S    
C34   C38   1.421758 A    
N1    O24   1.302510 A    
C24   O22   1.410657 S    
C37   C39   1.412325 A    
C22   N2    1.482826 S    
N7    O35   1.298320 A    
N10   O46   1.302301 A    
C13   O41   1.414053 S    
C34   C36   1.443794 A    
C45   C47   1.393993 A    
C50   C52   1.403894 A    
O18   V4    2.038850 S    
C12   C20   1.580680 S    
O15   C5    1.305733 A    
O42   H28   0.990182 S    
C9    C17   1.559454 S    
O16   C6    1.293105 A    
O1    C3    1.323487 A    
O39   H25   0.992767 S    
N8    O38   1.299459 A    
O40   H26   0.992467 S    
C20   C24   1.592191 S    
C13   C21   1.587612 S    
C14   O42   1.412327 S    
C27   H15   1.083515 S    
C16   H8    1.112902 S    
C31   N5    1.391300 S    
O16   V4    2.030719 S    
C10   H4    1.107759 S    
C52   N8    1.437478 S    
C5    C37   1.524650 S    
C12   H6    1.105642 S    
C2    C19   1.546950 S    
O5    V1    2.033322 S    
O17   C7    1.316921 A    
O6    V2    2.024623 S    
O10   C6    1.319026 A    
C41   C43   1.421428 A    
C7    C17   1.560693 S    
C4    C43   1.504931 S    
C23   O47   1.409152 S    
O2    V4    2.033595 S    
C49   C51   1.403696 A    
V3    O19   2.175878 S    
C14   C18   1.553760 S    
O47   H29   0.994150 S    
V4    O20   2.143915 S    
C11   C19   1.570876 S    
N2    O26   1.302444 A    
C14   H12   1.097726 S    
C21   N9    1.483581 S    
O9    C5    1.314788 A    
C9    H1    1.109399 S    
O14   V2    2.174455 S    
C42   C52   1.425243 A    
O41   H27   0.989641 S    
O2    C4    1.290049 A    
N6    O34   1.300658 A    
N7    O36   1.302083 A    
C47   H21   1.082387 S    
N10   O45   1.298765 A    
O4    V2    2.013198 S    
C40   C46   1.410400 A    
C47   C49   1.392757 A    
C32   N6    1.438619 S    
C10   C18   1.554014 S    
C30   C32   1.385056 A    
C30   H18   1.082843 S    
N1    O23   1.299473 A    
C29   H17   1.083842 S    
C26   C36   1.448498 A    
C46   C48   1.391999 A    
C41   C51   1.415423 A    
C32   C34   1.417804 A    
C1    C20   1.565977 S    
N3    O27   1.287304 A    
C13   C17   1.567953 S    
N5    O31   1.297812 A    
N8    O37   1.302589 A    
