data_mof_unit_7225.cif
_audit_creation_date              2012-12-10T19:01:21-0500
_audit_creation_method            fapswitch 2.2
_symmetry_space_group_name_H-M    P1
_symmetry_Int_Tables_number       1
_space_group_crystal_system       triclinic
_cell_length_a                    9.584347
_cell_length_b                    10.837032
_cell_length_c                    15.665143
_cell_angle_alpha                 88.849207
_cell_angle_beta                  73.779477
_cell_angle_gamma                 89.559765
_cell_volume                      1561.98722603

loop_
_atom_site_label
_atom_site_type_symbol
_atom_type_description
_atom_site_fract_x
_atom_site_fract_y
_atom_site_fract_z
_atom_type_partial_charge
C1    C     C_R   0.999862 0.262586 0.500876 0.795101
C2    C     C_R   0.672382 0.492477 0.905995 0.092591
C3    C     C_R   0.771744 0.529736 0.952799 0.167752
C4    C     C_R   0.522784 0.474112 0.952754 0.068315
C5    C     C_R   0.477122 0.488123 0.046729 0.068533
C6    C     C_R   0.581326 0.523011 0.090248 -0.213187
C7    C     C_R   0.724734 0.544585 0.044099 -0.237080
C8    C     C_R   0.416566 0.446117 0.908713 -0.217342
C9    C     C_R   0.270621 0.434775 0.954825 -0.238352
C10   C     C_R   0.224530 0.449522 0.046458 0.167575
C11   C     C_R   0.327496 0.472481 0.093698 0.093753
C12   C     C_R   0.917699 0.499940 0.671531 0.784913
C13   C     C_R   0.075970 0.441488 0.091612 -0.209193
C14   C     C_R   0.027613 0.460370 0.182979 -0.182096
C15   C     C_R   0.276566 0.479531 0.186688 -0.246882
C16   C     C_R   0.129949 0.063731 0.473440 0.127505
C17   C     C_R   0.999683 0.129430 0.498827 -0.102069
C18   C     C_R   0.867538 0.064952 0.519410 -0.201200
C19   C     C_R   0.867351 0.936623 0.521798 -0.148574
C20   C     C_R   0.999036 0.871070 0.500582 -0.099435
C21   C     C_R   0.129844 0.936311 0.473902 0.113053
C22   C     C_3   0.258150 0.929608 0.510612 -0.443468
C23   C     C_R   0.999053 0.737488 0.501643 0.823820
C24   C     C_3   0.257994 0.069430 0.509801 -0.453255
C25   C     C_R   0.607584 0.518700 0.422824 0.188264
C26   C     C_R   0.540234 0.469809 0.574627 -0.055469
C27   C     C_R   0.391867 0.470280 0.574715 -0.074358
C28   C     C_R   0.460935 0.516879 0.422893 0.194525
C29   C     C_3   0.477674 0.623835 0.360412 -0.488430
C30   C     C_3   0.636860 0.626366 0.358063 0.069474
C31   C     C_R   0.082267 0.494882 0.328351 0.809601
C32   C     C_R   0.871284 0.504320 0.768694 -0.041981
C33   C     C_R   0.128231 0.480108 0.231133 -0.046468
C34   C     C_R   0.917593 0.553614 0.907677 -0.214262
C35   C     C_R   0.967210 0.540917 0.816115 -0.202906
C36   C     C_R   0.726460 0.477745 0.813668 -0.245507
Cu1   Cu    Cu3+1 0.140670 0.499980 0.500000 0.946271
Cu2   Cu    Cu3+1 0.859330 0.500020 0.500000 0.977429
H1    H     H_    0.799171 0.574406 0.080442 0.147094
H2    H     H_    0.997159 0.421290 0.056068 0.140342
H3    H     H_    0.764342 0.113203 0.537948 0.168757
H4    H     H_    0.764271 0.889187 0.543870 0.198795
H5    H     H_    0.231591 0.887757 0.578669 0.203500
H6    H     H_    0.355783 0.890930 0.462612 0.228214
H7    H     H_    0.230996 0.109087 0.577437 0.198039
H8    H     H_    0.354672 0.110364 0.461022 0.211108
H9    H     H_    0.566667 0.446133 0.635537 0.127014
H10   H     H_    0.309585 0.447572 0.635679 0.132546
H11   H     H_    0.460728 0.600291 0.296283 0.155840
H12   H     H_    0.350623 0.480745 0.226478 0.143677
H13   H     H_    0.412560 0.704303 0.391830 0.232913
H14   H     H_    0.710165 0.601400 0.292179 0.119680
H15   H     H_    0.912316 0.455979 0.216082 0.144434
H16   H     H_    0.193001 0.415258 0.918117 0.146728
H17   H     H_    0.992831 0.584414 0.943089 0.142286
H18   H     H_    0.079521 0.562339 0.782314 0.151382
H19   H     H_    0.658560 0.445671 0.774583 0.136749
H20   H     H_    0.555742 0.538666 0.160066 0.132606
H21   H     H_    0.441040 0.435419 0.837942 0.132736
N1    N     N_R   0.648210 0.500930 0.499430 -0.164445
N2    N     N_R   0.352300 0.500890 0.499430 -0.172662
O1    O     O_R   0.118810 0.319640 0.500000 -0.579516
O2    O     O_R   0.881230 0.319680 0.499990 -0.587731
O3    O     O_R   0.055580 0.499970 0.629840 -0.597381
O4    O     O_R   0.818000 0.500010 0.629830 -0.595985
O5    O     O_R   0.118770 0.680320 0.500010 -0.584582
O6    O     O_R   0.881190 0.680360 0.500000 -0.528016
O7    O     O_R   0.182000 0.499990 0.370170 -0.586526
O8    O     O_R   0.944420 0.500030 0.370160 -0.577813
Br1   Br    Br    0.682411 0.782797 0.400699 -0.546744

loop_
_geom_bond_atom_site_label_1
_geom_bond_atom_site_label_2
_ccdc_geom_bond_type
C27   H10   S    
C2    C4    A    
C19   H4    S    
C16   C21   A    
C9    H16   S    
C25   N1    A    
C9    C10   A    
C6    H20   S    
C1    C17   S    
C22   H5    S    
C20   C23   S    
C4    C8    A    
C24   H8    S    
Cu1   O5    S    
Cu1   O3    S    
C14   C33   A    
C31   C33   S    
C2    C3    A    
Cu2   O8    S    
C34   H17   S    
C16   C24   S    
C29   H11   S    
C13   C14   A    
C12   C32   S    
C25   C28   A    
C26   C27   A    
C29   C30   S    
C26   N1    A    
C30   H14   S    
C26   H9    S    
Cu2   N1    S    
C24   H7    S    
C1    O2    A    
C23   O5    A    
C28   C29   S    
C30   Br1   S    
Cu1   Cu2   S    
C5    C11   A    
C6    C7    A    
C3    C7    A    
C8    H21   S    
C29   H13   S    
C5    C6    A    
C12   O3    A    
Cu2   O2    S    
C15   H12   S    
C16   C17   A    
C10   C11   A    
C28   N2    A    
C2    C36   A    
Cu2   O6    S    
Cu1   O7    S    
C32   C36   A    
C31   O8    A    
C14   H15   S    
C18   C19   A    
C20   C21   A    
C36   H19   S    
C1    O1    A    
C17   C18   A    
C34   C35   A    
C12   O4    A    
C18   H3    S    
C23   O6    A    
C25   C30   S    
Cu1   O1    S    
C4    C5    A    
C13   H2    S    
C7    H1    S    
Cu1   N2    S    
C27   N2    A    
C3    C34   A    
C35   H18   S    
C21   C22   S    
Cu2   O4    S    
C11   C15   A    
C31   O7    A    
C15   C33   A    
C22   H6    S    
C32   C35   A    
C19   C20   A    
C22   C24   S    
C8    C9    A    
C10   C13   A    
