data_mof_unit_49230.cif
_audit_creation_date              2012-12-10T17:55:53-0500
_audit_creation_method            fapswitch 2.2
_symmetry_space_group_name_H-M    P1
_symmetry_Int_Tables_number       1
_space_group_crystal_system       triclinic
_cell_length_a                    11.019928
_cell_length_b                    10.787085
_cell_length_c                    9.58341
_cell_angle_alpha                 88.99898
_cell_angle_beta                  102.745164
_cell_angle_gamma                 91.808093
_cell_volume                      1110.5209815

loop_
_atom_site_label
_atom_site_type_symbol
_atom_type_description
_atom_site_fract_x
_atom_site_fract_y
_atom_site_fract_z
_atom_type_partial_charge
C1    C     C_R   0.499144 0.262739 0.500762 0.750091
C2    C     C_R   0.500840 0.737276 0.499235 0.745242
C3    C     C_R   0.262375 0.500365 0.441262 0.732124
C4    C     C_R   0.737672 0.500554 0.558743 0.733691
C5    C     C_R   0.431417 0.414092 0.060555 0.040616
C6    C     C_R   0.568572 0.585901 0.939426 0.034952
C7    C     C_R   0.430459 0.412745 0.912047 0.074063
C8    C     C_R   0.569502 0.587286 0.087919 0.100483
C9    C     C_2   0.125956 0.498666 0.406475 -0.201068
C10   C     C_2   0.874031 0.498765 0.593654 -0.196334
C11   C     C_2   0.068571 0.535152 0.508694 -0.097449
C12   C     C_2   0.933641 0.535281 0.490685 -0.089488
C13   C     C_R   0.401582 0.063250 0.407238 -0.036141
C14   C     C_R   0.598337 0.936811 0.592783 -0.032592
C15   C     C_R   0.405037 0.933156 0.404146 -0.023592
C16   C     C_R   0.594927 0.066901 0.595831 -0.024086
C17   C     C_R   0.502193 0.871666 0.497683 -0.190050
C18   C     C_R   0.497758 0.128375 0.502316 -0.188642
Cu1   Cu    Cu3+1 0.500000 0.500020 0.640660 0.964657
Cu2   Cu    Cu3+1 0.500000 0.499980 0.359340 0.974190
H1    H     H_    0.880884 0.568272 0.388154 0.183839
H2    H     H_    0.123388 0.568003 0.610473 0.199584
H3    H     H_    0.376025 0.346841 0.106465 0.178574
H4    H     H_    0.623897 0.653174 0.893466 0.181226
N1    N     N_R   0.500030 0.500030 0.852080 -0.230682
N2    N     N_R   0.499970 0.499970 0.147920 -0.225970
O1    O     O_R   0.499990 0.319660 0.618740 -0.593023
O2    O     O_R   0.500010 0.680340 0.381260 -0.588387
O3    O     O_R   0.499990 0.319630 0.381170 -0.563053
O4    O     O_R   0.500010 0.680370 0.618830 -0.569383
O5    O     O_R   0.320690 0.500020 0.575130 -0.592882
O6    O     O_R   0.679310 0.499980 0.424870 -0.581941
O7    O     O_R   0.320680 0.499990 0.337560 -0.588561
O8    O     O_R   0.679320 0.500010 0.662440 -0.589197
C19   C     C_2   0.937262 0.451307 0.737997 0.404089
H5    H     H_    0.886024 0.443554 0.822479 0.119454
O9    O     O_2   0.044115 0.415958 0.763455 -0.534144
C20   C     C_2   0.059976 0.451445 0.263198 0.409167
H6    H     H_    0.110980 0.442985 0.179193 0.109745
O10   O     O_2   0.950795 0.417132 0.238157 -0.515223
C21   C     C_2   0.351627 0.314870 0.826223 0.470637
H7    H     H_    0.318835 0.323075 0.712509 0.123881
O11   O     O_2   0.319710 0.221253 0.883879 -0.495860
C22   C     C_2   0.648187 0.685306 0.173659 0.408492
H8    H     H_    0.679937 0.677741 0.287521 0.106671
O12   O     O_2   0.681050 0.778381 0.115816 -0.505139
C23   C     C_2   0.294144 0.132968 0.321997 0.429363
H9    H     H_    0.268076 0.219428 0.362033 0.028370
O13   O     O_2   0.235670 0.097565 0.205610 -0.440198
C24   C     C_2   0.705732 0.867142 0.678110 0.423998
H10   H     H_    0.731998 0.780804 0.637989 0.025303
O14   O     O_2   0.763922 0.902450 0.794670 -0.443365
C25   C     C_2   0.303481 0.858638 0.312398 0.515168
H11   H     H_    0.246109 0.795439 0.361434 0.010258
O15   O     O_2   0.289106 0.861449 0.182405 -0.443444
C26   C     C_2   0.696603 0.141425 0.687419 0.513578
H12   H     H_    0.754077 0.204379 0.638236 0.025306
O16   O     O_2   0.710987 0.138881 0.817416 -0.436914

loop_
_geom_bond_atom_site_label_1
_geom_bond_atom_site_label_2
_ccdc_geom_bond_type
C24   O14   D    
C11   C12   S    
C16   C26   S    
C15   C17   A    
C10   C19   S    
C3    C9    S    
Cu1   O1    S    
C21   H7    S    
C11   H2    S    
C19   H5    S    
C7    N1    A    
C13   C15   A    
C2    O4    A    
Cu1   O5    S    
C1    O3    A    
C24   H10   S    
C6    H4    S    
C23   O13   D    
C14   C24   S    
C25   H11   S    
C26   H12   S    
C2    C17   S    
C20   O10   D    
C21   O11   D    
C14   C17   A    
C8    C22   S    
C1    C18   S    
C4    O6    A    
Cu2   N2    S    
C13   C18   A    
C6    C8    A    
C3    O5    A    
C10   C12   D    
C16   C18   A    
C9    C20   S    
C19   O9    D    
C22   O12   D    
C4    O8    A    
Cu2   O3    S    
C9    C11   D    
C20   H6    S    
Cu1   N1    S    
C14   C16   A    
C6    N1    A    
Cu2   O7    S    
C25   O15   D    
C4    C10   S    
C5    N2    A    
C23   H9    S    
C15   C25   S    
C8    N2    A    
C22   H8    S    
C1    O1    A    
Cu2   O6    S    
C5    C7    A    
C3    O7    A    
C2    O2    A    
Cu2   O2    S    
Cu1   O4    S    
C13   C23   S    
C12   H1    S    
Cu1   Cu2   S    
C7    C21   S    
C26   O16   D    
Cu1   O8    S    
C5    H3    S    
