data_mof_unit_25528.cif
_audit_creation_date              2012-12-10T19:51:45-0500
_audit_creation_method            fapswitch 2.2
_symmetry_space_group_name_H-M    P1
_symmetry_Int_Tables_number       1
_space_group_crystal_system       triclinic
_cell_length_a                    14.268726
_cell_length_b                    13.619732
_cell_length_c                    15.024419
_cell_angle_alpha                 90.199249
_cell_angle_beta                  89.555007
_cell_angle_gamma                 85.603762
_cell_volume                      2911.08612747

loop_
_atom_site_label
_atom_site_type_symbol
_atom_type_description
_atom_site_fract_x
_atom_site_fract_y
_atom_site_fract_z
_atom_type_partial_charge
C1    C     C_R   0.499986 0.502099 0.327402 0.857238
C2    C     C_R   0.791853 0.568524 0.548173 0.119967
C3    C     C_R   0.199669 0.587614 0.507054 -0.068210
C4    C     C_R   0.800337 0.432691 0.449708 -0.035618
C5    C     C_R   0.100080 0.592680 0.504641 -0.068771
C6    C     C_R   0.900022 0.432221 0.445514 -0.058023
C7    C     C_R   0.052980 0.503875 0.503590 0.060775
C8    C     C_R   0.946767 0.499843 0.499636 0.060660
C9    C     C_R   0.515033 0.314740 0.497753 0.907111
C10   C     C_R   0.485028 0.685252 0.500716 0.898733
C11   C     C_1   0.476457 0.788027 0.506189 -0.177273
C12   C     C_R   0.499507 0.498334 0.671666 0.875012
C13   C     C_1   0.523817 0.212515 0.485317 -0.167177
C14   C     C_2   0.469536 0.978194 0.516242 -0.180790
C15   C     C_2   0.529223 0.023070 0.465609 -0.188624
C16   C     C_1   0.529335 0.126013 0.474254 -0.003450
C17   C     C_1   0.470810 0.875061 0.511498 -0.004186
C18   C     C_R   0.569744 0.511741 0.085761 -0.196796
C19   C     C_R   0.443303 0.437725 0.906291 -0.203118
C20   C     C_R   0.578783 0.512287 0.177371 -0.016583
C21   C     C_R   0.450637 0.428727 0.814663 -0.013233
C22   C     C_R   0.497253 0.507175 0.230512 -0.105225
C23   C     C_R   0.399571 0.510317 0.097915 0.016052
C24   C     C_R   0.496484 0.499989 0.767007 -0.075178
C25   C     C_R   0.408699 0.505738 0.189736 -0.258152
C26   C     C_R   0.531666 0.579956 0.810149 -0.278335
C27   C     C_R   0.673712 0.526179 0.211518 0.154822
C28   C     C_R   0.692055 0.615659 0.252242 -0.076118
C29   C     C_R   0.784669 0.637500 0.267661 -0.156170
C30   C     C_R   0.859242 0.571131 0.241121 -0.112645
C31   C     C_R   0.841447 0.481443 0.201874 -0.132975
C32   C     C_R   0.749112 0.458591 0.187676 -0.188387
C33   C     C_R   0.414652 0.341246 0.772201 0.124873
C34   C     C_R   0.523977 0.589588 0.901898 0.023829
C35   C     C_R   0.319385 0.323463 0.781367 -0.128001
C36   C     C_R   0.286926 0.236295 0.748447 -0.159285
C37   C     C_R   0.349456 0.165954 0.707288 -0.111152
C38   C     C_R   0.444348 0.183199 0.698146 -0.129915
C39   C     C_R   0.476869 0.270890 0.729780 -0.162601
C40   C     C_R   0.304450 0.507778 0.058487 0.112692
C41   C     C_R   0.270082 0.580388 0.998192 -0.132246
C42   C     C_R   0.181386 0.575753 0.960211 -0.142479
C43   C     C_R   0.126052 0.498988 0.982239 -0.118388
C44   C     C_R   0.159268 0.426764 0.042397 -0.147844
C45   C     C_R   0.481624 0.514706 0.046181 0.046570
C46   C     C_R   0.247901 0.431141 0.080639 -0.187193
C47   C     C_R   0.566598 0.672721 0.946398 0.113519
C48   C     C_R   0.512492 0.738417 0.002058 -0.130054
C49   C     C_R   0.554706 0.812827 0.047674 -0.142119
C50   C     C_R   0.651083 0.822252 0.038144 -0.112163
C51   C     C_R   0.705398 0.757366 0.982849 -0.129497
C52   C     C_R   0.663471 0.682826 0.937184 -0.197192
C53   C     C_R   0.253711 0.322196 0.458282 0.178061
C54   C     C_R   0.289457 0.320249 0.370868 -0.086919
C55   C     C_R   0.321443 0.230989 0.330869 -0.187184
C56   C     C_R   0.479558 0.516948 0.949848 0.039781
C57   C     C_R   0.315376 0.142711 0.376879 -0.086474
C58   C     C_R   0.277787 0.143730 0.463074 -0.128081
C59   C     C_R   0.247134 0.233008 0.503735 -0.167967
C60   C     C_R   0.742020 0.659542 0.581927 0.186195
C61   C     C_R   0.735096 0.742339 0.526110 -0.106747
C62   C     C_R   0.703309 0.834683 0.559805 -0.137160
C63   C     C_R   0.678239 0.845246 0.649472 -0.095514
C64   C     C_R   0.686688 0.763697 0.705764 -0.183641
C65   C     C_R   0.719498 0.671036 0.672481 -0.172805
C66   C     C_R   0.049455 0.691570 0.499771 0.106868
C67   C     C_R   0.109595 0.415655 0.505591 -0.302381
C68   C     C_R   0.991232 0.717142 0.427296 -0.129052
C69   C     C_R   0.944060 0.810814 0.422668 -0.160877
C70   C     C_R   0.954573 0.879539 0.490416 -0.102868
C71   C     C_R   0.012934 0.854957 0.562516 -0.124830
C72   C     C_R   0.060677 0.761539 0.567071 -0.183197
C73   C     C_R   0.951599 0.361183 0.383681 0.114811
C74   C     C_R   0.020561 0.391885 0.324652 -0.142032
C75   C     C_R   0.071680 0.323582 0.270059 -0.161645
C76   C     C_R   0.053973 0.224247 0.272910 -0.097359
C77   C     C_R   0.984794 0.193043 0.330252 -0.131965
C78   C     C_R   0.890082 0.564395 0.553121 -0.304558
C79   C     C_R   0.933696 0.261032 0.385316 -0.185884
C80   C     C_R   0.207357 0.414432 0.494197 0.126736
H1    H     H_    0.577207 0.983394 0.419128 0.145338
H2    H     H_    0.764415 0.381433 0.409497 0.140108
H3    H     H_    0.634963 0.669919 0.268621 0.110630
H4    H     H_    0.798674 0.707313 0.297207 0.110090
H5    H     H_    0.930863 0.589815 0.249207 0.112091
H6    H     H_    0.899165 0.430668 0.180137 0.144208
H7    H     H_    0.736365 0.390371 0.154203 0.127423
H8    H     H_    0.270694 0.376589 0.814837 0.138384
H9    H     H_    0.213493 0.222794 0.755662 0.122473
H10   H     H_    0.324311 0.097999 0.682867 0.110484
H11   H     H_    0.493118 0.128155 0.667662 0.130457
H12   H     H_    0.421941 0.017924 0.562770 0.147508
H13   H     H_    0.550850 0.282670 0.723592 0.117287
H14   H     H_    0.311701 0.640416 0.980323 0.115816
H15   H     H_    0.155575 0.631702 0.913598 0.125131
H16   H     H_    0.057465 0.495439 0.952661 0.121381
H17   H     H_    0.116431 0.367131 0.059083 0.123547
H18   H     H_    0.273058 0.374006 0.126484 0.117004
H19   H     H_    0.438019 0.731767 0.010733 0.112642
H20   H     H_    0.512736 0.862961 0.090721 0.122928
H21   H     H_    0.683693 0.879689 0.073743 0.117033
H22   H     H_    0.780117 0.764436 0.975768 0.126973
H23   H     H_    0.632338 0.512214 0.044324 0.149566
H24   H     H_    0.706720 0.631959 0.895786 0.126160
H25   H     H_    0.289246 0.387314 0.332665 0.121715
H26   H     H_    0.348908 0.230120 0.263496 0.124157
H27   H     H_    0.338973 0.073460 0.345482 0.130204
H28   H     H_    0.270978 0.075230 0.497901 0.122615
H29   H     H_    0.215414 0.232546 0.569353 0.123886
H30   H     H_    0.756139 0.735514 0.456871 0.113527
H31   H     H_    0.699156 0.898155 0.516591 0.124653
H32   H     H_    0.653474 0.916831 0.675576 0.128364
H33   H     H_    0.669149 0.773055 0.775456 0.148901
H34   H     H_    0.412663 0.380485 0.944349 0.149269
H35   H     H_    0.729303 0.609078 0.717318 0.127007
H36   H     H_    0.982879 0.664619 0.374546 0.115449
H37   H     H_    0.899259 0.830163 0.366649 0.112823
H38   H     H_    0.917699 0.951881 0.486921 0.113938
H39   H     H_    0.021250 0.908321 0.614853 0.121566
H40   H     H_    0.105532 0.743332 0.623411 0.124425
H41   H     H_    0.035872 0.468393 0.321795 0.123015
H42   H     H_    0.125694 0.347618 0.226184 0.125575
H43   H     H_    0.094041 0.171439 0.230869 0.119260
H44   H     H_    0.971256 0.115969 0.332602 0.123091
H45   H     H_    0.345204 0.502921 0.229263 0.163233
H46   H     H_    0.881601 0.235150 0.430562 0.120698
H47   H     H_    0.562554 0.636330 0.771898 0.154007
H48   H     H_    0.077040 0.346451 0.507244 0.161223
H49   H     H_    0.921939 0.615941 0.596369 0.164989
H50   H     H_    0.234786 0.655073 0.509957 0.151590
N1    N     N_R   0.252470 0.500000 0.499980 -0.117425
N2    N     N_R   0.747530 0.500000 0.500020 -0.114787
O1    O     O_R   0.579480 0.500010 0.369070 -0.615256
O2    O     O_R   0.420520 0.499990 0.630930 -0.602576
O3    O     O_R   0.420520 0.500010 0.369060 -0.633133
O4    O     O_R   0.579480 0.499990 0.630940 -0.622024
O5    O     O_R   0.590920 0.359650 0.500030 -0.628817
O6    O     O_R   0.409080 0.640350 0.499970 -0.629466
O7    O     O_R   0.431960 0.359650 0.500020 -0.596439
O8    O     O_R   0.568040 0.640350 0.499980 -0.608186
Zn1   Zn    Zn3+2 0.606140 0.500000 0.500010 0.945862
Zn2   Zn    Zn3+2 0.393860 0.500000 0.499990 0.948398

loop_
_geom_bond_atom_site_label_1
_geom_bond_atom_site_label_2
_ccdc_geom_bond_type
C19   C56   A    
C36   H9    S    
C66   C68   A    
C34   C56   A    
C23   C45   A    
C75   H42   S    
C41   C42   A    
C35   C36   A    
C43   C44   A    
C53   C59   A    
C7    C8    S    
C15   H1    S    
C53   C54   A    
C51   H22   S    
C40   C46   A    
C37   C38   A    
C37   H10   S    
C3    N1    A    
C28   C29   A    
C19   C21   A    
C78   H49   S    
C24   C26   A    
C30   C31   A    
O7    Zn2   S    
C2    C60   S    
C21   C33   S    
C23   C40   S    
C3    H50   S    
C44   H17   S    
C73   C74   A    
C63   H32   S    
C25   H45   S    
C39   H13   S    
C9    C13   S    
C59   H29   S    
C9    O5    A    
C26   C34   A    
O3    Zn2   S    
C66   C72   A    
C62   H31   S    
C41   H14   S    
C45   C56   S    
C68   C69   A    
C22   C25   A    
C2    N2    A    
C70   C71   A    
C58   H28   S    
C26   H47   S    
C46   H18   S    
C1    C22   S    
C80   N1    A    
C12   O2    A    
C28   H3    S    
C8    C78   A    
C65   H35   S    
C14   C17   S    
C61   C62   A    
C10   O8    A    
C1    O1    A    
C61   H30   S    
C44   C46   A    
C43   H16   S    
C77   C79   A    
C74   C75   A    
C55   H26   S    
C42   H15   S    
C53   C80   S    
C76   C77   A    
C29   H4    S    
C4    N2    A    
O6    Zn2   S    
C5    C7    A    
C6    C8    A    
C19   H34   S    
C58   C59   A    
C32   H7    S    
C38   H11   S    
C51   C52   A    
C60   C61   A    
C75   C76   A    
C29   C30   A    
C2    C78   A    
O2    Zn2   S    
C35   H8    S    
C47   C48   A    
C72   H40   S    
C62   C63   A    
C50   C51   A    
C73   C79   A    
C33   C39   A    
O8    Zn1   S    
C30   H5    S    
C14   H12   S    
N1    Zn2   S    
C68   H36   S    
C4    C6    A    
C48   C49   A    
C57   H27   S    
C79   H46   S    
C20   C22   A    
C60   C65   A    
C55   C57   A    
C21   C24   A    
C42   C43   A    
C18   C45   A    
C6    C73   S    
N2    Zn1   S    
C48   H19   S    
O5    Zn1   S    
C54   C55   A    
C52   H24   S    
C64   H33   S    
C54   H25   S    
C27   C32   A    
C76   H43   S    
C31   C32   A    
C67   C80   A    
C5    C66   S    
C3    C5    A    
C11   C17   T    
C47   C52   A    
C20   C27   S    
C12   C24   S    
O1    Zn1   S    
C71   H39   S    
C64   C65   A    
C71   C72   A    
C77   H44   S    
C67   H48   S    
C49   H20   S    
C9    O7    A    
C57   C58   A    
C38   C39   A    
C70   H38   S    
C69   H37   S    
C33   C35   A    
O4    Zn1   S    
C18   C20   A    
C18   H23   S    
C23   C25   A    
C69   C70   A    
C10   C11   S    
C7    C67   A    
C63   C64   A    
C74   H41   S    
C4    H2    S    
C50   H21   S    
C36   C37   A    
C49   C50   A    
C12   O4    A    
C13   C16   T    
C27   C28   A    
C31   H6    S    
C14   C15   D    
C40   C41   A    
C34   C47   S    
C10   O6    A    
C1    O3    A    
C15   C16   S    
