data_mof_unit_35971.cif
_audit_creation_date              2013-03-05T15:51:39-0500
_audit_creation_method            fapswitch 2.2
_symmetry_space_group_name_H-M    P1
_symmetry_Int_Tables_number       1
_space_group_crystal_system       triclinic
_cell_length_a                    10.629856
_cell_length_b                    10.85875
_cell_length_c                    9.597206
_cell_angle_alpha                 90.074351
_cell_angle_beta                  89.986686
_cell_angle_gamma                 92.741796
_cell_volume                      1106.50712708

loop_
_atom_site_label
_atom_site_type_symbol
_atom_site_description
_atom_site_fract_x
_atom_site_fract_y
_atom_site_fract_z
_atom_type_partial_charge
O1    O     O_R   0.499990 0.319640 0.618810 -0.596449
O2    O     O_R   0.500000 0.319660 0.381240 -0.546879
C1    C     C_R   0.509613 0.262947 0.501072 0.815299
O3    O     O_R   0.316850 0.499960 0.618770 -0.593340
O4    O     O_R   0.316860 0.499980 0.381190 -0.513511
C2    C     C_R   0.259514 0.499653 0.500186 0.862634
Cu1   Cu    Cu3+1 0.499990 0.499990 0.640660 0.931797
Cu2   Cu    Cu3+1 0.500010 0.500010 0.359340 1.006739
O5    O     O_R   0.500000 0.680340 0.618760 -0.623220
O6    O     O_R   0.500010 0.680360 0.381190 -0.595145
O7    O     O_R   0.683140 0.500020 0.618810 -0.600194
O8    O     O_R   0.683150 0.500040 0.381230 -0.612009
C3    C     C_R   0.492079 0.737254 0.500943 0.799113
C4    C     C_R   0.740459 0.500641 0.499862 0.776367
C5    C     C_3   0.036232 0.396723 0.438099 -0.170916
C6    C     C_3   0.958481 0.496225 0.366746 -0.160792
H1    H     H_    0.923099 0.494445 0.257846 0.182621
H2    H     H_    0.068754 0.311457 0.388528 0.198413
C7    C     C_3   0.877155 0.501063 0.499218 -0.055158
C8    C     C_3   0.952316 0.401341 0.569936 -0.154110
C9    C     C_3   0.040555 0.504588 0.632984 -0.158882
C10   C     C_3   0.962756 0.604592 0.562602 -0.241050
C11   C     C_3   0.045545 0.596937 0.432332 0.378507
C12   C     C_3   0.122667 0.499706 0.501131 -0.087962
H3    H     H_    0.910296 0.320472 0.626896 0.147339
H4    H     H_    0.076246 0.507375 0.741736 0.178941
H5    H     H_    0.930333 0.690179 0.611622 0.147264
C13   C     C_R   0.553218 0.117662 0.764328 -0.164039
C14   C     C_R   0.525223 0.057200 0.889314 -0.122769
H6    H     H_    0.549714 0.100957 0.987703 0.151839
C15   C     C_R   0.462451 0.942195 0.887382 -0.113944
C16   C     C_R   0.439224 0.882573 0.760698 -0.138252
C17   C     C_R   0.480123 0.937281 0.633228 0.088834
C18   C     C_R   0.518530 0.063214 0.634483 0.087544
C19   C     C_R   0.520133 0.128791 0.505972 -0.129569
C20   C     C_R   0.515487 0.063611 0.380141 -0.160205
H7    H     H_    0.507015 0.888873 0.280738 0.167029
C21   C     C_R   0.503326 0.936416 0.379885 -0.169806
C22   C     C_R   0.485766 0.871660 0.505012 -0.071509
C23   C     C_R   0.668164 0.663729 0.144285 -0.138737
H8    H     H_    0.675872 0.671704 0.254139 0.196357
C24   C     C_R   0.749862 0.744188 0.072107 -0.178877
H9    H     H_    0.813703 0.807067 0.128354 0.183271
C25   C     C_R   0.749725 0.744308 0.928508 -0.191358
H10   H     H_    0.813418 0.807300 0.872372 0.158739
C26   C     C_R   0.667921 0.663936 0.856193 -0.121490
H11   H     H_    0.675413 0.671977 0.746344 0.195285
C27   C     C_R   0.582761 0.580363 0.925355 0.184306
C28   C     C_R   0.582910 0.580202 0.074951 0.135388
N1    N     N_R   0.501210 0.501210 0.147910 -0.260129
C29   C     C_R   0.419523 0.424631 0.072729 0.425576
H12   H     H_    0.355577 0.363098 0.868684 0.175944
C30   C     C_R   0.420708 0.424530 0.925009 -0.127464
N2    N     N_R   0.501250 0.501290 0.852040 -0.231131
H13   H     H_    0.434459 0.897703 0.984197 0.158180
H14   H     H_    0.386315 0.795290 0.764771 0.179042
N3    N     N_R   0.328416 0.345817 0.141884 0.138778
O9    O     O_R   0.348919 0.229166 0.152573 -0.394253
O10   O     O_R   0.213035 0.380055 0.149450 -0.370583
N4    N     N_R   0.099942 0.703824 0.358506 0.120683
O11   O     O_R   0.075961 0.719416 0.226986 -0.357326
O12   O     O_R   0.172929 0.784090 0.424049 -0.378339
H15   H     H_    0.522625 0.110841 0.281050 0.192919
H16   H     H_    0.605998 0.204860 0.771674 0.164649

loop_
_geom_bond_atom_site_label_1
_geom_bond_atom_site_label_2
_geom_bond_distance
_ccdc_geom_bond_type
C4    C7    1.452855 S    
C5    H2    1.110177 S    
C27   N2    1.382247 A    
C11   C12   1.519088 S    
C23   H8    1.060599 S    
H7    C21   1.083560 S    
C29   N3    1.425738 S    
O4    Cu2   1.958055 S    
C20   H15   1.081986 S    
C15   C16   1.393241 A    
C19   C20   1.398642 A    
C1    C19   1.467191 S    
Cu2   O8    1.958088 S    
C2    C12   1.454715 S    
C16   C17   1.419652 A    
C7    C8    1.535074 S    
C20   C21   1.381045 A    
C17   C18   1.408324 A    
C13   C18   1.419805 A    
Cu1   Cu2   2.699886 S    
C14   C15   1.387563 A    
C26   H11   1.060627 S    
C30   N2    1.360557 A    
C8    C9    1.549437 S    
Cu1   O7    1.958054 S    
C11   N4    1.456437 S    
N3    O9    1.299718 A    
C17   C22   1.423831 A    
C24   C25   1.378150 A    
N4    O11   1.300651 A    
C6    C7    1.539519 S    
C15   H13   1.082841 S    
O4    C2    1.294339 A    
C13   H16   1.079497 S    
C23   C24   1.387823 A    
C13   C14   1.393427 A    
C9    H4    1.110492 S    
O8    C4    1.291255 A    
O2    C1    1.311576 A    
C6    C11   1.533080 S    
C10   H5    1.110536 S    
O3    Cu1   1.958088 S    
C5    C8    1.550068 S    
C18   C19   1.424639 A    
O7    C4    1.293741 A    
C26   C27   1.416437 A    
C3    C22   1.464694 S    
O3    C2    1.291050 A    
N3    O10   1.300483 A    
C24   H9    1.083051 S    
C29   C30   1.417752 A    
C14   H6    1.082722 S    
C23   C28   1.416610 A    
Cu2   N1    2.029229 S    
C7    C10   1.537022 S    
C21   C22   1.400333 A    
H12   C30   1.082393 S    
N4    O12   1.300538 A    
C28   N1    1.382120 A    
C8    H3    1.110439 S    
C9    C12   1.539380 S    
Cu1   O5    1.969887 S    
O5    C3    1.293975 A    
C10   C11   1.533186 S    
C27   C28   1.435708 A    
O1    Cu1   1.969300 S    
Cu1   N2    2.028732 S    
N1    C29   1.376850 A    
C9    C10   1.551598 S    
C5    C12   1.536506 S    
C16   H14   1.079462 S    
Cu2   O6    1.969300 S    
O2    Cu2   1.969889 S    
C25   H10   1.083053 S    
C5    C6    1.551462 S    
C25   C26   1.387649 A    
C6    H1    1.110664 S    
O1    C1    1.292444 A    
O6    C3    1.308724 A    
