data_mof_unit_19021.cif
_audit_creation_date              2012-12-10T17:18:59-0500
_audit_creation_method            fapswitch 2.2
_symmetry_space_group_name_H-M    P1
_symmetry_Int_Tables_number       1
_space_group_crystal_system       triclinic
_cell_length_a                    10.255498
_cell_length_b                    10.669129
_cell_length_c                    13.605689
_cell_angle_alpha                 92.759585
_cell_angle_beta                  100.930853
_cell_angle_gamma                 96.585918
_cell_volume                      1448.30847698

loop_
_atom_site_label
_atom_site_type_symbol
_atom_type_description
_atom_site_fract_x
_atom_site_fract_y
_atom_site_fract_z
_atom_type_partial_charge
C1    C     C_R   0.055305 0.733671 0.497264 0.885835
C2    C     C_R   0.948579 0.267200 0.510794 0.885745
C3    C     C_R   0.495923 0.662230 0.109334 -0.182991
C4    C     C_R   0.576102 0.538275 0.870730 -0.220141
C5    C     C_R   0.363388 0.683346 0.078697 -0.219238
C6    C     C_R   0.706661 0.512412 0.901165 -0.248315
C7    C     C_2   0.094230 0.869903 0.509475 -0.097919
C8    C     C_2   0.926483 0.134939 0.532463 -0.100218
C9    C     C_2   0.021686 0.938713 0.558432 -0.136123
C10   C     C_2   0.034674 0.074478 0.556328 -0.132426
C11   C     C_2   0.430542 0.524897 0.495495 -0.074033
C12   C     C_2   0.567335 0.495175 0.483537 -0.067085
C13   C     C_R   0.094919 0.515837 0.685878 0.863977
C14   C     C_R   0.906993 0.490058 0.314193 0.874617
C15   C     C_R   0.153501 0.546167 0.792001 -0.065135
C16   C     C_R   0.862503 0.501480 0.206963 -0.070723
C17   C     C_R   0.157271 0.653235 0.953557 -0.198568
C18   C     C_R   0.886085 0.471933 0.034317 -0.209787
C19   C     C_R   0.087941 0.608809 0.857409 -0.224294
C20   C     C_R   0.935714 0.463691 0.136147 -0.194441
C21   C     C_R   0.286645 0.527506 0.823503 -0.201811
C22   C     C_R   0.744837 0.554590 0.176111 -0.219103
C23   C     C_R   0.361164 0.581825 0.914895 0.087677
C24   C     C_R   0.691822 0.562020 0.074655 0.087652
C25   C     C_R   0.293697 0.640044 0.982789 0.160073
C26   C     C_R   0.762611 0.516832 0.002965 0.172610
C27   C     C_R   0.499840 0.573701 0.941732 0.068023
C28   C     C_R   0.563967 0.601177 0.043022 0.064449
H1    H     H_    0.314217 0.730127 0.131264 0.155901
H2    H     H_    0.761064 0.482175 0.845136 0.150860
H3    H     H_    0.691863 0.583661 0.232618 0.191840
H4    H     H_    0.331555 0.470044 0.775020 0.168408
H5    H     H_    0.029030 0.425084 0.159195 0.171384
H6    H     H_    0.984758 0.625214 0.833876 0.161042
H7    H     H_    0.105126 0.699559 0.004289 0.150729
H8    H     H_    0.941295 0.438321 0.980048 0.154004
H9    H     H_    0.543793 0.697523 0.184696 0.159263
H10   H     H_    0.537289 0.531263 0.790871 0.175629
H11   H     H_    0.135284 0.123406 0.562824 0.176235
H12   H     H_    0.940348 0.894135 0.590716 0.188015
H13   H     H_    0.668710 0.618401 0.595396 0.162423
H14   H     H_    0.333829 0.358655 0.430829 0.174675
N1    N     N_2   0.322180 0.446120 0.460900 -0.223630
N2    N     N_2   0.677820 0.553880 0.539100 -0.226156
O1    O     O_R   0.935190 0.693030 0.507870 -0.611880
O2    O     O_R   0.064810 0.306970 0.492130 -0.620694
O3    O     O_R   0.142080 0.658430 0.482770 -0.592277
O4    O     O_R   0.857920 0.341570 0.517230 -0.565094
O5    O     O_R   0.969700 0.527180 0.651960 -0.626662
O6    O     O_R   0.030300 0.472820 0.348040 -0.606546
O7    O     O_R   0.176600 0.492580 0.626860 -0.571104
O8    O     O_R   0.823400 0.507420 0.373140 -0.597268
Zn1   Zn    Zn3+2 0.861850 0.523100 0.516760 0.966255
Zn2   Zn    Zn3+2 0.138150 0.476900 0.483240 0.971177
N3    N     N_3   0.793658 0.070617 0.524527 -0.431218
H15   H     H_    0.745186 0.120366 0.571860 0.225048
H16   H     H_    0.742574 0.073812 0.450758 0.214274
N4    N     N_3   0.201318 0.928840 0.466114 -0.440962
H17   H     H_    0.229014 0.863636 0.416547 0.226302
H18   H     H_    0.284031 0.953787 0.524453 0.211372
C29   C     C_2   0.572600 0.399710 0.402884 0.992469
O9    O     O_2   0.536896 0.422426 0.315349 -0.657245
O10   O     O_R   0.605296 0.279996 0.426492 -0.815598
H19   H     H_    0.600495 0.221829 0.364406 0.324564
C30   C     C_2   0.421016 0.650941 0.541029 0.972673
O11   O     O_2   0.449782 0.744908 0.497741 -0.663843
O12   O     O_R   0.388007 0.663486 0.635585 -0.808971
H20   H     H_    0.386624 0.754916 0.658949 0.326299

loop_
_geom_bond_atom_site_label_1
_geom_bond_atom_site_label_2
_ccdc_geom_bond_type
C5    C25   A    
C11   C12   S    
C14   O8    A    
C11   N1    D    
C23   C27   A    
C11   C30   S    
C9    C10   S    
N1    Zn2   S    
C18   C20   A    
C29   O9    D    
C18   C26   A    
C13   C15   S    
C16   C20   A    
O7    Zn2   S    
C17   C25   A    
H13   N2    S    
O2    Zn2   S    
N3    H15   S    
C23   C25   A    
C6    C26   A    
O1    Zn1   S    
C12   N2    D    
C14   O6    A    
C7    N4    S    
C2    O2    A    
C15   C19   A    
C12   C29   S    
C1    O1    A    
O6    Zn2   S    
O3    Zn2   S    
O5    Zn1   S    
C20   H5    S    
C8    N3    S    
C4    C6    A    
C3    C28   A    
C17   C19   A    
C4    H10   S    
C14   C16   S    
N3    H16   S    
C21   C23   A    
C13   O5    A    
O4    Zn1   S    
C21   H4    S    
C22   C24   A    
C30   O12   S    
C22   H3    S    
N4    H18   S    
O12   H20   S    
C5    H1    S    
C24   C28   A    
C15   C21   A    
C4    C27   A    
O8    Zn1   S    
C3    H9    S    
C8    C10   D    
C30   O11   D    
H14   N1    S    
C27   C28   A    
C7    C9    D    
C1    O3    A    
C1    C7    S    
C16   C22   A    
C9    H12   S    
C17   H7    S    
C2    O4    A    
N4    H17   S    
C13   O7    A    
C18   H8    S    
N2    Zn1   S    
C6    H2    S    
C29   O10   S    
C2    C8    S    
O10   H19   S    
C24   C26   A    
C10   H11   S    
C3    C5    A    
C19   H6    S    
