data_mof_unit_21318.cif
_audit_creation_date              2012-12-11T14:39:24-0500
_audit_creation_method            fapswitch 2.2
_symmetry_space_group_name_H-M    P1
_symmetry_Int_Tables_number       1
_space_group_crystal_system       monoclinic
_cell_length_a                    7.220981
_cell_length_b                    14.092364
_cell_length_c                    16.312821
_cell_angle_alpha                 90.0
_cell_angle_beta                  97.417645
_cell_angle_gamma                 90.0
_cell_volume                      1646.11214021

loop_
_atom_site_label
_atom_site_type_symbol
_atom_type_description
_atom_site_fract_x
_atom_site_fract_y
_atom_site_fract_z
_atom_type_partial_charge
O1    O     O_R   0.525340 0.338340 0.164530 -0.566391
O2    O     O_R   0.474660 0.661660 0.835470 -0.566391
O3    O     O_R   0.974660 0.838340 0.835470 -0.566391
O4    O     O_R   0.025340 0.161660 0.164530 -0.566391
O5    O     O_R   0.253520 0.352000 0.336710 -0.541366
O6    O     O_R   0.746480 0.648000 0.663290 -0.541365
O7    O     O_R   0.246480 0.852000 0.663290 -0.541365
O8    O     O_R   0.753520 0.148000 0.336710 -0.541366
O9    O     O_R   0.083330 0.168380 0.337300 -0.536101
O10   O     O_R   0.916670 0.831620 0.662700 -0.536101
O11   O     O_R   0.416670 0.668380 0.662700 -0.536101
O12   O     O_R   0.583330 0.331620 0.337300 -0.536101
C1    C     C_R   0.432346 0.368752 0.363630 0.660912
C2    C     C_R   0.567654 0.631247 0.636370 0.660912
C3    C     C_R   0.067654 0.868753 0.636370 0.660913
C4    C     C_R   0.932346 0.131247 0.363630 0.660912
O13   O     O_R   0.195840 0.349670 0.165140 -0.500946
O14   O     O_R   0.804160 0.650330 0.834860 -0.500946
O15   O     O_R   0.304160 0.849670 0.834860 -0.500946
O16   O     O_R   0.695840 0.150330 0.165140 -0.500946
C5    C     C_R   0.357090 0.372123 0.137797 0.620556
C6    C     C_R   0.642910 0.627877 0.862203 0.620556
C7    C     C_R   0.142910 0.872123 0.862203 0.620556
C8    C     C_R   0.857090 0.127877 0.137797 0.620556
O17   O     O_3   0.387830 0.193120 0.250910 -0.370419
O18   O     O_3   0.612170 0.806880 0.749090 -0.370419
O19   O     O_3   0.112170 0.693120 0.749090 -0.370419
O20   O     O_3   0.887830 0.306880 0.250910 -0.370419
V1    V     V_3+5 0.113010 0.264540 0.250910 1.555608
V2    V     V_3+5 0.886990 0.735460 0.749090 1.555608
V3    V     V_3+5 0.386990 0.764540 0.749090 1.555608
V4    V     V_3+5 0.613010 0.235460 0.250910 1.555608
C9    C     C_R   0.068019 0.196309 0.527816 -0.333975
C10   C     C_R   0.931981 0.803691 0.472184 -0.333976
C11   C     C_R   0.431981 0.696309 0.472184 -0.333975
C12   C     C_R   0.568019 0.303691 0.527816 -0.333975
C13   C     C_R   0.132604 0.229668 0.606761 0.560312
C14   C     C_R   0.867396 0.770332 0.393239 0.560312
C15   C     C_R   0.367396 0.729668 0.393239 0.560311
C16   C     C_R   0.632604 0.270332 0.606761 0.560311
C17   C     C_R   0.165122 0.166575 0.672588 0.708676
C18   C     C_R   0.834878 0.833425 0.327412 0.708676
C19   C     C_R   0.334877 0.666575 0.327412 0.708676
C20   C     C_R   0.665122 0.333425 0.672588 0.708676
C21   C     C_R   0.132618 0.069836 0.659837 -0.266556
C22   C     C_R   0.867382 0.930164 0.340163 -0.266556
C23   C     C_R   0.367382 0.569836 0.340163 -0.266556
C24   C     C_R   0.632618 0.430164 0.659837 -0.266556
C25   C     C_R   0.067797 0.033986 0.580198 0.002032
C26   C     C_R   0.932203 0.966014 0.419802 0.002031
C27   C     C_R   0.432203 0.533986 0.419802 0.002032
C28   C     C_R   0.567797 0.466014 0.580198 0.002032
C29   C     C_R   0.035167 0.098293 0.512969 0.016876
C30   C     C_R   0.964833 0.901707 0.487031 0.016876
C31   C     C_R   0.464833 0.598293 0.487031 0.016876
C32   C     C_R   0.535167 0.401707 0.512969 0.016876
C33   C     C_R   0.032366 0.935947 0.567013 -0.033512
C34   C     C_R   0.967634 0.064053 0.432987 -0.033512
C35   C     C_R   0.467634 0.435947 0.432987 -0.033512
C36   C     C_R   0.532366 0.564053 0.567013 -0.033512
H1    H     H_    0.042779 0.248343 0.478893 0.161473
H2    H     H_    0.957221 0.751657 0.521107 0.161473
H3    H     H_    0.457221 0.748343 0.521107 0.161473
H4    H     H_    0.542779 0.251657 0.478893 0.161473
C37   C     C_2   0.150650 0.942991 0.929880 0.501634
C38   C     C_2   0.849350 0.057009 0.070120 0.501634
C39   C     C_2   0.349350 0.442991 0.070120 0.501634
C40   C     C_2   0.650650 0.557009 0.929880 0.501634
C41   C     C_2   0.997456 0.965013 0.965913 -0.145969
C42   C     C_2   0.002544 0.034987 0.034086 -0.145969
C43   C     C_2   0.502544 0.465013 0.034086 -0.145969
C44   C     C_2   0.497456 0.534987 0.965913 -0.145969
F1    F     F_    0.772732 0.800806 0.250552 -0.579035
F2    F     F_    0.227267 0.199194 0.749448 -0.579035
F3    F     F_    0.727268 0.300806 0.749448 -0.579035
F4    F     F_    0.272732 0.699194 0.250552 -0.579035
F5    F     F_    0.162264 0.323886 0.619411 -0.660341
F6    F     F_    0.837735 0.676114 0.380589 -0.660341
F7    F     F_    0.337735 0.823886 0.380589 -0.660341
F8    F     F_    0.662265 0.176114 0.619411 -0.660341
H5    H     H_    0.157609 0.023701 0.713129 0.148384
H6    H     H_    0.842391 0.976299 0.286871 0.148384
H7    H     H_    0.342390 0.523701 0.286871 0.148384
H8    H     H_    0.657610 0.476299 0.713129 0.148384
H9    H     H_    0.134900 0.069429 0.054821 0.181014
H10   H     H_    0.865100 0.930570 0.945179 0.181014
H11   H     H_    0.365100 0.569429 0.945179 0.181014
H12   H     H_    0.634900 0.430571 0.054821 0.181014
F9    F     F_    0.683061 0.014495 0.043923 -0.582865
F10   F     F_    0.316939 0.985505 0.956077 -0.582865
F11   F     F_    0.816939 0.514495 0.956077 -0.582865
F12   F     F_    0.183061 0.485505 0.043923 -0.582865

loop_
_geom_bond_atom_site_label_1
_geom_bond_atom_site_label_2
_ccdc_geom_bond_type
O1    C5    A    
C20   F3    S    
O13   V1    S    
O3    C7    A    
O15   V3    S    
C26   C30   A    
O20   V1    S    
O9    C4    A    
C14   C18   A    
O10   C3    A    
O4    C8    A    
O11   C2    A    
C25   C29   A    
C10   H2    S    
C40   F11   S    
C25   C33   A    
C18   C22   A    
C28   C36   A    
C17   F2    S    
C22   H6    S    
O16   C8    A    
O2    C6    A    
C16   F8    S    
O14   V2    S    
C23   H7    S    
C16   C20   A    
O5    C1    A    
O4    V1    S    
O9    V1    S    
O17   V4    S    
O7    C3    A    
O11   V3    S    
O18   V3    S    
O8    C4    A    
C10   C14   A    
C31   C36   A    
C5    C39   S    
O19   V2    S    
C3    C33   S    
C38   F9    S    
O5    V1    S    
C9    C29   A    
C37   F10   S    
O7    V3    S    
C11   C31   A    
C26   C34   A    
C12   C16   A    
O15   C7    A    
C23   C27   A    
C14   F6    S    
C27   C31   A    
C13   F5    S    
O1    V4    S    
O13   C5    A    
C24   H8    S    
O2    V3    S    
O8    V4    S    
O3    V2    S    
C11   C15   A    
C12   C32   A    
O6    C2    A    
O10   V2    S    
C21   C25   A    
C40   C44   D    
C4    C34   S    
C6    C40   S    
O6    V2    S    
C10   C30   A    
C27   C35   A    
C44   H11   S    
O16   V4    S    
C19   F4    S    
C18   F1    S    
O14   C6    A    
C21   H5    S    
C15   C19   A    
C29   C34   A    
C1    C35   S    
C8    C38   S    
C2    C36   S    
C22   C26   A    
C32   C35   A    
C7    C37   S    
C43   C44   S    
C38   C42   D    
C37   C41   D    
C39   F12   S    
C39   C43   D    
C13   C17   A    
C41   C42   S    
C9    C13   A    
C43   H12   S    
C28   C32   A    
C24   C28   A    
O12   C1    A    
C9    H1    S    
C17   C21   A    
C11   H3    S    
C12   H4    S    
C42   H9    S    
C19   C23   A    
O12   V4    S    
C41   H10   S    
C20   C24   A    
C15   F7    S    
C30   C33   A    
