data_mof_unit_57868.cif
_audit_creation_date              2012-12-10T17:35:35-0500
_audit_creation_method            fapswitch 2.2
_symmetry_space_group_name_H-M    P1
_symmetry_Int_Tables_number       1
_space_group_crystal_system       triclinic
_cell_length_a                    10.710559
_cell_length_b                    12.32501
_cell_length_c                    13.181108
_cell_angle_alpha                 116.530779
_cell_angle_beta                  77.568168
_cell_angle_gamma                 101.259944
_cell_volume                      1510.46314122

loop_
_atom_site_label
_atom_site_type_symbol
_atom_type_description
_atom_site_fract_x
_atom_site_fract_y
_atom_site_fract_z
_atom_type_partial_charge
C1    C     C_R   0.514847 0.854777 0.286520 0.813933
C2    C     C_3   0.122546 0.001149 0.498265 0.045273
C3    C     C_3   0.044468 0.013945 0.616079 -0.514357
C4    C     C_3   0.070743 0.879582 0.403759 -0.381416
C5    C     C_R   0.333281 0.276378 0.022836 0.487495
C6    C     C_R   0.457999 0.227718 0.834694 -0.160989
C7    C     C_R   0.636805 0.808890 0.094368 -0.262244
C8    C     C_R   0.692546 0.723385 0.991915 -0.219088
C9    C     C_R   0.651181 0.599147 0.957429 0.506666
C10   C     C_R   0.537480 0.560066 0.018267 -0.002113
C11   C     C_R   0.481939 0.648340 0.123795 0.028101
C12   C     C_R   0.739902 0.999782 0.499829 0.814435
C13   C     C_R   0.479625 0.436603 0.980989 0.012948
C14   C     C_R   0.382727 0.400391 0.055883 0.047296
C15   C     C_R   0.330006 0.489387 0.158631 -0.205695
C16   C     C_R   0.372986 0.611556 0.187966 -0.183466
C17   C     C_R   0.507907 0.349921 0.868474 -0.190207
C18   C     C_R   0.376106 0.189755 0.913572 -0.283213
C19   C     C_R   0.538127 0.771462 0.164556 -0.104264
C20   C     C_R   0.705334 0.347067 0.328621 0.401977
C21   C     C_R   0.329540 0.764078 0.648957 -0.006939
C22   C     C_R   0.299979 0.675929 0.691218 -0.332319
C23   C     C_R   0.480768 0.145008 0.713333 0.819907
C24   C     C_R   0.365734 0.571500 0.640679 0.504581
C25   C     C_R   0.462461 0.555660 0.543243 -0.081126
C26   C     C_R   0.493585 0.653617 0.508068 0.233566
C27   C     C_R   0.532188 0.449413 0.480384 -0.075947
C28   C     C_R   0.635323 0.448775 0.391582 0.067769
C29   C     C_R   0.666751 0.548611 0.364708 -0.260626
C30   C     C_R   0.596895 0.647335 0.420541 -0.177806
C31   C     C_R   0.502753 0.341323 0.498129 0.028244
C32   C     C_R   0.674755 0.247602 0.356286 -0.029653
C33   C     C_R   0.260246 0.000299 0.499500 0.782501
C34   C     C_3   0.957911 0.111591 0.481015 -0.373207
C35   C     C_3   0.102452 0.110229 0.475521 0.383511
C36   C     C_3   0.899899 0.008738 0.614790 -0.495063
C37   C     C_3   0.927217 0.880428 0.399769 0.364182
C38   C     C_3   0.878367 0.999669 0.498561 0.032959
Cu1   Cu    Cu3+1 0.529690 0.098270 0.475420 0.961123
Cu2   Cu    Cu3+1 0.470310 0.901730 0.524580 0.921231
H1    H     H_    0.926932 0.197788 0.553038 0.123785
H2    H     H_    0.079898 0.801414 0.421411 0.126351
H3    H     H_    0.846964 0.928390 0.629086 0.199087
H4    H     H_    0.059543 0.939423 0.636459 0.203695
H5    H     H_    0.337747 0.094711 0.888072 0.168382
H6    H     H_    0.250537 0.465536 0.214213 0.182877
H7    H     H_    0.561368 0.377415 0.803163 0.239162
H8    H     H_    0.679694 0.903029 0.123741 0.178365
H9    H     H_    0.775717 0.752852 0.943225 0.162046
H10   H     H_    0.939544 0.111478 0.400991 0.223937
H11   H     H_    0.319722 0.676827 0.262470 0.160238
H12   H     H_    0.729659 0.170191 0.311236 0.143010
H13   H     H_    0.745534 0.550355 0.298118 0.181445
H14   H     H_    0.421349 0.327275 0.556002 0.199049
H15   H     H_    0.279275 0.844567 0.690624 0.147610
H16   H     H_    0.229288 0.692379 0.767216 0.157970
H17   H     H_    0.628768 0.718202 0.392835 0.203001
H18   H     H_    0.138749 0.195942 0.545955 0.045270
H19   H     H_    0.861939 0.091840 0.686457 0.180919
H20   H     H_    0.077896 0.101943 0.685100 0.160028
H21   H     H_    0.869514 0.801529 0.414815 0.068695
H22   H     H_    0.129809 0.864990 0.319115 0.206735
N1    N     N_R   0.574690 0.246280 0.438200 -0.221979
N2    N     N_R   0.426100 0.754320 0.561190 -0.200961
O1    O     O_R   0.537340 0.972510 0.318130 -0.566182
O2    O     O_R   0.487200 0.806530 0.359650 -0.605591
O3    O     O_R   0.707380 0.082980 0.479220 -0.579045
O4    O     O_R   0.657240 0.917000 0.520740 -0.611543
O5    O     O_R   0.512800 0.193470 0.640350 -0.579890
O6    O     O_R   0.462660 0.027490 0.681870 -0.584931
O7    O     O_R   0.342760 0.083000 0.479260 -0.561646
O8    O     O_R   0.292620 0.917020 0.520780 -0.601410
O9    O     O_3   0.245787 0.239622 0.098519 -0.605333
C39   C     C_3   0.122174 0.216268 0.066994 -0.334068
H23   H     H_    0.094789 0.297459 0.064208 0.165233
H24   H     H_    0.051172 0.195487 0.132637 0.219995
H25   H     H_    0.115638 0.135562 0.983294 0.154877
O10   O     O_3   0.727249 0.518714 0.866977 -0.592823
C40   C     C_3   0.812406 0.482698 0.911316 -0.383414
H26   H     H_    0.760124 0.440502 0.969957 0.164015
H27   H     H_    0.882172 0.561093 0.955737 0.159080
H28   H     H_    0.868303 0.412948 0.838842 0.189105
O11   O     O_3   0.807719 0.347397 0.244342 -0.597195
C41   C     C_3   0.764944 0.280928 0.136684 -0.392373
H29   H     H_    0.682732 0.319919 0.130664 0.177612
H30   H     H_    0.738227 0.182717 0.118311 0.169688
H31   H     H_    0.844776 0.286795 0.069359 0.181386
O12   O     O_3   0.351274 0.497785 0.697844 -0.583607
C42   C     C_3   0.220780 0.452244 0.716740 -0.388191
H32   H     H_    0.169498 0.427205 0.642784 0.145567
H33   H     H_    0.170038 0.518730 0.796651 0.184223
H34   H     H_    0.217153 0.368124 0.728857 0.180702
O13   O     O_3   0.169156 0.098239 0.366035 -0.550071
C43   C     C_3   0.199948 0.213194 0.362139 -0.244933
H35   H     H_    0.260033 0.277488 0.428572 0.131914
H36   H     H_    0.111754 0.253536 0.371185 0.150742
H37   H     H_    0.257200 0.200565 0.277699 0.237852
O14   O     O_3   0.913699 0.876005 0.293076 -0.563046
C44   C     C_3   0.892151 0.754290 0.211678 -0.353942
H38   H     H_    0.962250 0.696325 0.207941 0.156719
H39   H     H_    0.904159 0.754173 0.126028 0.200095
H40   H     H_    0.792033 0.715067 0.229923 0.153756

loop_
_geom_bond_atom_site_label_1
_geom_bond_atom_site_label_2
_ccdc_geom_bond_type
C2    C35   S    
O13   C43   S    
O9    C39   S    
C23   O5    A    
C16   H11   S    
C36   H19   S    
C4    H2    S    
C7    C8    A    
C12   O4    A    
C11   C19   A    
C37   C38   S    
Cu2   O6    S    
C35   H18   S    
C28   C29   A    
C41   H30   S    
C15   C16   A    
C30   H17   S    
C4    H22   S    
C34   C35   S    
C26   N2    A    
C32   H12   S    
C21   N2    A    
C33   O8    A    
O11   C41   S    
C8    C9    A    
C39   H25   S    
C1    O1    A    
C41   H31   S    
C42   H33   S    
C9    C10   A    
C3    H20   S    
Cu2   O2    S    
C13   C14   A    
C12   C38   S    
Cu1   O1    S    
C23   O6    A    
C34   H1    S    
C37   O14   S    
C4    C37   S    
C35   O13   S    
C6    C18   A    
C12   O3    A    
C3    H4    S    
C34   H10   S    
C1    C19   S    
C39   H23   S    
C27   C31   A    
C31   N1    A    
C24   C25   A    
Cu1   Cu2   S    
C40   H27   S    
O10   C40   S    
C22   H16   S    
C5    C18   A    
C20   C28   A    
C43   H37   S    
C25   C26   A    
C2    C4    S    
C29   C30   A    
C11   C16   A    
C44   H38   S    
C1    O2    A    
Cu1   O5    S    
C41   H29   S    
C42   H34   S    
C43   H36   S    
C24   O12   S    
C5    C14   A    
C39   H24   S    
C2    C33   S    
C44   H39   S    
C26   C30   A    
C7    C19   A    
C22   C24   A    
C18   H5    S    
C21   H15   S    
C20   C32   A    
C6    C17   A    
Cu2   O8    S    
C34   C38   S    
Cu1   O3    S    
C17   H7    S    
C32   N1    A    
C10   C13   A    
C40   H28   S    
C37   H21   S    
C25   C27   A    
Cu1   N1    S    
Cu2   N2    S    
C13   C17   A    
C7    H8    S    
C36   C38   S    
C2    C3    S    
C29   H13   S    
C3    C36   S    
C6    C23   S    
C9    O10   S    
C31   H14   S    
C5    O9    S    
C43   H35   S    
C10   C11   A    
C33   O7    A    
C40   H26   S    
C44   H40   S    
O12   C42   S    
O14   C44   S    
Cu2   O4    S    
C20   O11   S    
C27   C28   A    
Cu1   O7    S    
C14   C15   A    
C36   H3    S    
C15   H6    S    
C42   H32   S    
C21   C22   A    
C8    H9    S    
