data_mof_unit_34989.cif
_audit_creation_date              2012-12-10T17:33:04-0500
_audit_creation_method            fapswitch 2.2
_symmetry_space_group_name_H-M    P1
_symmetry_Int_Tables_number       1
_space_group_crystal_system       triclinic
_cell_length_a                    12.449952
_cell_length_b                    13.248494
_cell_length_c                    14.354825
_cell_angle_alpha                 94.953939
_cell_angle_beta                  108.40399
_cell_angle_gamma                 117.101562
_cell_volume                      1924.25582268

loop_
_atom_site_label
_atom_site_type_symbol
_atom_type_description
_atom_site_fract_x
_atom_site_fract_y
_atom_site_fract_z
_atom_type_partial_charge
C1    C     C_R   0.651002 0.714451 0.509458 0.816148
C2    C     C_R   0.827779 0.470799 0.916394 -0.024875
C3    C     C_R   0.768592 0.474532 0.985065 0.111349
C4    C     C_R   0.925687 0.438673 0.942229 0.053630
C5    C     C_R   0.987843 0.442643 0.044917 0.063545
C6    C     C_R   0.930950 0.452674 0.113879 -0.176882
C7    C     C_R   0.819771 0.463683 0.082837 -0.152887
C8    C     C_R   0.958551 0.397188 0.867598 -0.220562
C9    C     C_R   0.063964 0.378363 0.895126 -0.231772
C10   C     C_R   0.140259 0.401431 0.997824 0.165556
C11   C     C_R   0.103090 0.434100 0.073890 0.088757
C12   C     C_R   0.617442 0.514893 0.686802 0.850977
C13   C     C_R   0.253655 0.392570 0.025401 -0.191910
C14   C     C_R   0.332876 0.418866 0.127947 -0.179848
C15   C     C_R   0.185790 0.462447 0.176494 -0.242426
C16   C     C_R   0.161141 0.951523 0.399718 -0.130904
C17   C     C_R   0.257968 0.159422 0.476428 -0.167243
C18   C     C_R   0.744623 0.925272 0.587923 -0.274812
C19   C     C_R   0.854350 0.037934 0.629075 -0.127235
C20   C     C_R   0.963946 0.066444 0.606395 0.402660
C21   C     C_R   0.955034 0.987073 0.525934 -0.015350
C22   C     C_R   0.841487 0.872637 0.483085 0.005071
C23   C     C_R   0.347142 0.284628 0.487348 0.807973
C24   C     C_R   0.055093 0.015660 0.487886 -0.007323
C25   C     C_R   0.052298 0.925936 0.423864 0.040105
C26   C     C_R   0.938763 0.814184 0.380844 0.392117
C27   C     C_R   0.830924 0.792506 0.404303 -0.255251
C28   C     C_R   0.152193 0.132195 0.504742 -0.286368
C29   C     C_R   0.267524 0.066286 0.430814 0.373972
C30   C     C_R   0.741932 0.839461 0.521587 -0.084512
C31   C     C_R   0.265845 0.694955 0.661887 -0.276697
C32   C     C_R   0.651172 0.340133 0.360214 0.474162
C33   C     C_R   0.729685 0.309879 0.325048 0.259518
C34   C     C_R   0.378554 0.479332 0.312828 0.794701
C35   C     C_R   0.865376 0.369859 0.380149 -0.216207
C36   C     C_R   0.928569 0.465527 0.466770 -0.154660
C37   C     C_R   0.847547 0.499730 0.497270 0.134267
C38   C     C_R   0.070165 0.529755 0.522365 0.015707
C39   C     C_R   0.129429 0.629280 0.605207 0.118384
C40   C     C_R   0.053652 0.664296 0.632851 -0.342036
C41   C     C_R   0.916904 0.603080 0.583104 0.516310
C42   C     C_R   0.157816 0.500678 0.500417 0.050071
C43   C     C_R   0.345239 0.661907 0.636628 0.079272
C44   C     C_R   0.674108 0.509002 0.792163 -0.095020
C45   C     C_R   0.299856 0.454881 0.204057 -0.048744
C46   C     C_R   0.659635 0.489971 0.955149 -0.186010
C47   C     C_R   0.609817 0.502638 0.857976 -0.274628
C48   C     C_R   0.789716 0.502981 0.825372 0.340331
Cu1   Cu    Cu3+1 0.416420 0.526630 0.522910 0.949330
Cu2   Cu    Cu3+1 0.583580 0.473370 0.477090 1.027516
H1    H     H_    0.281666 0.366310 0.967580 0.144462
H2    H     H_    0.859712 0.099818 0.687400 0.161143
H3    H     H_    0.450813 0.712005 0.679430 0.122797
H4    H     H_    0.164914 0.494337 0.236298 0.156195
H5    H     H_    0.310855 0.771526 0.725500 0.140781
H6    H     H_    0.919924 0.342078 0.350448 0.173900
H7    H     H_    0.419843 0.411280 0.147559 0.163057
H8    H     H_    0.088021 0.348865 0.835896 0.182922
H9    H     H_    0.611303 0.489772 0.006144 0.142835
H10   H     H_    0.521717 0.508593 0.834780 0.180555
H11   H     H_    0.966159 0.445945 0.190737 0.145244
H12   H     H_    0.901516 0.376722 0.786952 0.199453
N1    N     N_R   0.290690 0.566960 0.557640 -0.185472
N2    N     N_R   0.709100 0.433710 0.442970 -0.219700
O1    O     O_R   0.545970 0.684450 0.528810 -0.588530
O2    O     O_R   0.687130 0.639470 0.490120 -0.539487
O3    O     O_R   0.519670 0.535100 0.660030 -0.606954
O4    O     O_R   0.660830 0.490120 0.621340 -0.472136
O5    O     O_R   0.312870 0.360530 0.509880 -0.590840
O6    O     O_R   0.454030 0.315550 0.471190 -0.530007
O7    O     O_R   0.339170 0.509880 0.378660 -0.592384
O8    O     O_R   0.480330 0.464900 0.339970 -0.546443
H13   H     H_    0.775870 0.466871 0.136517 0.142315
O9    O     O_3   0.374299 0.083780 0.410022 -0.711400
H14   H     H_    0.454243 0.139285 0.471779 0.338069
O10   O     O_3   0.932460 0.729627 0.312144 -0.747778
H15   H     H_    0.847045 0.655292 0.291214 0.314039
H16   H     H_    0.164438 0.882464 0.356587 0.207688
H17   H     H_    0.141878 0.203094 0.535169 0.226493
H18   H     H_    0.667655 0.902464 0.616027 0.170671
O11   O     O_3   0.079762 0.166051 0.671565 -0.767352
H19   H     H_    0.151083 0.147697 0.684281 0.321157
H20   H     H_    0.738903 0.711453 0.360547 0.149841
H21   H     H_    0.102629 0.741077 0.697340 0.139873
H22   H     H_    0.123509 0.426188 0.439108 0.115119
O12   O     O_3   0.515732 0.277618 0.312440 -0.689203
H23   H     H_    0.485910 0.195477 0.279214 0.336028
O13   O     O_3   0.678270 0.224214 0.235944 -0.723927
H24   H     H_    0.597495 0.219043 0.188127 0.320952
O14   O     O_3   0.855102 0.645885 0.623162 -0.656050
H25   H     H_    0.917272 0.723161 0.675183 0.304385
O15   O     O_3   0.869992 0.539824 0.772941 -0.722691
H26   H     H_    0.962849 0.583482 0.823223 0.323116

loop_
_geom_bond_atom_site_label_1
_geom_bond_atom_site_label_2
_ccdc_geom_bond_type
Cu1   N1    S    
C46   H9    S    
Cu2   N2    S    
C40   H21   S    
C35   C36   A    
C4    C8    A    
O11   H19   S    
C43   N1    A    
C7    H13   S    
C12   O4    A    
C26   C27   A    
C17   C23   S    
Cu1   O1    S    
C6    H11   S    
C36   C37   A    
C33   O13   S    
C38   C42   A    
C3    C7    A    
C38   C39   A    
C17   C29   A    
C18   C19   A    
C28   H17   S    
C23   O5    A    
O15   H26   S    
Cu2   O8    S    
C47   H10   S    
C13   H1    S    
C11   C15   A    
C19   H2    S    
C43   H3    S    
C19   C20   A    
C8    C9    A    
C26   O10   S    
C18   C30   A    
C22   C30   A    
C9    C10   A    
C44   C47   A    
O13   H24   S    
C41   O14   S    
Cu1   O5    S    
C13   C14   A    
C37   C41   A    
C23   O6    A    
C14   C45   A    
C12   O3    A    
O9    H14   S    
C15   H4    S    
C24   C25   A    
C32   N2    A    
C39   C40   A    
C34   C45   S    
O12   H23   S    
C29   O9    S    
C2    C48   A    
C25   C26   A    
C2    C4    A    
C1    O1    A    
C32   O12   S    
C1    O2    A    
C42   H22   S    
O10   H15   S    
Cu2   O2    S    
C31   C43   A    
C40   C41   A    
C22   C27   A    
Cu1   O7    S    
C15   C45   A    
C34   O8    A    
C37   N2    A    
C16   C25   A    
C14   H7    S    
C46   C47   A    
C9    H8    S    
Cu1   O3    S    
C35   H6    S    
C17   C28   A    
C24   C28   A    
C4    C5    A    
C10   C13   A    
C5    C11   A    
C6    C7    A    
C3    C46   A    
C32   C33   A    
C27   H20   S    
C2    C3    A    
C16   C29   A    
C12   C44   S    
C20   O11   S    
O14   H25   S    
C5    C6    A    
C34   O7    A    
C36   C38   A    
C1    C30   S    
C33   C35   A    
C31   C39   A    
C16   H16   S    
Cu2   O6    S    
C10   C11   A    
C20   C21   A    
C18   H18   S    
Cu1   Cu2   S    
C48   O15   S    
C21   C24   A    
C31   H5    S    
C21   C22   A    
Cu2   O4    S    
C42   N1    A    
C44   C48   A    
C8    H12   S    
