data_mof_unit_68273.cif
_audit_creation_date              2013-03-05T16:07:36-0500
_audit_creation_method            fapswitch 2.2
_symmetry_space_group_name_H-M    P1
_symmetry_Int_Tables_number       1
_space_group_crystal_system       triclinic
_cell_length_a                    21.805226
_cell_length_b                    7.080943
_cell_length_c                    15.086044
_cell_angle_alpha                 90.541446
_cell_angle_beta                  108.567943
_cell_angle_gamma                 89.959783
_cell_volume                      2207.95546896

loop_
_atom_site_label
_atom_site_type_symbol
_atom_site_description
_atom_site_fract_x
_atom_site_fract_y
_atom_site_fract_z
_atom_type_partial_charge
O1    O     O_R   0.585850 0.505770 0.002130 -0.597328
O2    O     O_R   0.414150 0.005770 0.997870 -0.582000
O3    O     O_R   0.467530 0.173560 0.861970 -0.602281
O4    O     O_R   0.532470 0.673560 0.138030 -0.607267
C1    C     C_R   0.455416 0.342260 0.824759 0.985556
C2    C     C_R   0.545406 0.844309 0.175056 0.984356
O5    O     O_R   0.588690 0.175900 0.993250 -0.585843
O6    O     O_R   0.411310 0.675900 0.006750 -0.600269
O7    O     O_R   0.536170 0.007950 0.130090 -0.572802
O8    O     O_R   0.463830 0.507950 0.869910 -0.576177
C3    C     C_R   0.615966 0.344991 0.002025 1.009758
C4    C     C_R   0.384111 0.844815 0.998338 0.993322
O9    O     O_3   0.482630 0.339970 0.044740 -0.268097
O10   O     O_3   0.517370 0.839970 0.955260 -0.270238
V1    V     V_3+5 0.503220 0.064200 0.991700 1.225971
V2    V     V_3+5 0.496780 0.564200 0.008300 1.215673
C5    C     C_R   0.292452 0.003109 0.039125 0.200895
C6    C     C_R   0.707060 0.501407 0.960485 0.267917
C7    C     C_R   0.314862 0.855553 0.994983 -0.232441
C8    C     C_R   0.685310 0.356763 0.005976 -0.206099
C9    C     C_R   0.269594 0.712211 0.952398 -0.199237
C10   C     C_R   0.731221 0.218422 0.050889 -0.209242
H1    H     H_    0.284226 0.593727 0.918025 0.132770
H2    H     H_    0.716996 0.102787 0.086587 0.129637
C11   C     C_R   0.204691 0.721085 0.953226 -0.064598
C12   C     C_R   0.795891 0.226938 0.049268 -0.096007
H3    H     H_    0.171340 0.609810 0.918818 0.145425
H4    H     H_    0.829608 0.118553 0.084746 0.135167
C13   C     C_R   0.182634 0.875702 0.994862 -0.213894
C14   C     C_R   0.817277 0.377412 0.005326 -0.213586
C15   C     C_R   0.228789 0.010941 0.040066 0.102903
C16   C     C_R   0.770751 0.510013 0.958932 0.108582
C17   C     C_3   0.226046 0.220440 0.034191 -0.388079
C18   C     C_3   0.773105 0.720129 0.966413 -0.385526
C19   C     C_3   0.295696 0.213355 0.029639 -0.588243
C20   C     C_3   0.703768 0.711456 0.971474 -0.601549
H5    H     H_    0.190563 0.269870 0.967783 0.164824
H6    H     H_    0.808793 0.770034 0.033191 0.163661
H7    H     H_    0.298659 0.253756 0.960071 0.145113
H8    H     H_    0.701437 0.753657 0.041397 0.140131
C21   C     C_R   0.930643 0.890164 0.720295 -0.196957
C22   C     C_R   0.072235 0.397402 0.280272 -0.205184
C23   C     C_R   0.571120 0.840669 0.278482 -0.191662
C24   C     C_R   0.429790 0.331554 0.721309 -0.192289
C25   C     C_R   0.928350 0.042663 0.574753 -0.103998
C26   C     C_R   0.083055 0.557700 0.428988 -0.158967
C27   C     C_R   0.959931 0.007100 0.670708 0.101465
C28   C     C_R   0.049089 0.528107 0.332826 0.072200
C29   C     C_R   0.871603 0.804241 0.673581 -0.217361
C30   C     C_R   0.129977 0.302748 0.323656 -0.250806
C31   C     C_R   0.840528 0.825109 0.575948 0.163723
C32   C     C_R   0.162725 0.317267 0.421425 0.146696
C33   C     C_R   0.869915 0.944504 0.524771 -0.019953
C34   C     C_R   0.135818 0.437804 0.476041 -0.030250
C35   C     C_R   0.776744 0.751529 0.530822 -0.004026
C36   C     C_R   0.225541 0.236127 0.464898 0.017463
C37   C     C_R   0.741935 0.813243 0.439805 -0.006717
C38   C     C_R   0.259536 0.288720 0.558689 -0.006340
C39   C     C_R   0.777890 0.878591 0.383407 0.091536
C40   C     C_R   0.222923 0.343913 0.616530 0.094147
C41   C     C_R   0.838971 0.961694 0.425897 -0.141325
C42   C     C_R   0.163327 0.435561 0.575843 -0.134519
C43   C     C_R   0.745718 0.621767 0.573458 0.065270
C44   C     C_R   0.257726 0.114392 0.418453 0.134696
C45   C     C_R   0.677852 0.604487 0.541266 -0.168744
C46   C     C_R   0.325719 0.097203 0.453816 -0.158349
C47   C     C_R   0.640896 0.682730 0.454058 -0.022574
C48   C     C_R   0.361758 0.172466 0.543052 -0.009166
C49   C     C_R   0.673242 0.793200 0.404551 0.120076
C50   C     C_R   0.328250 0.274775 0.594197 0.111810
C51   C     C_R   0.573316 0.645032 0.412228 0.096936
C52   C     C_R   0.429621 0.139994 0.584597 0.091695
C53   C     C_R   0.538616 0.729025 0.326066 -0.190123
C54   C     C_R   0.463500 0.221443 0.673379 -0.195799
C55   C     C_R   0.636272 0.882809 0.320983 -0.222380
C56   C     C_R   0.363983 0.364815 0.679241 -0.208114
H9    H     H_    0.658265 0.977730 0.284196 0.139748
H10   H     H_    0.340414 0.453878 0.717150 0.138653
H11   H     H_    0.848105 0.737670 0.717808 0.141546
H12   H     H_    0.150496 0.232412 0.276631 0.180481
O11   O     O_R   0.036080 0.231270 0.130120 -0.597452
O12   O     O_R   0.963920 0.731270 0.869880 -0.599316
O13   O     O_R   0.911300 0.558970 0.006750 -0.595584
O14   O     O_R   0.088700 0.058970 0.993250 -0.596180
C57   C     C_R   0.885341 0.389581 0.003979 0.925911
C58   C     C_R   0.114593 0.889172 0.995994 0.919419
O15   O     O_R   0.032450 0.561140 0.138040 -0.581908
O16   O     O_R   0.967550 0.061140 0.861960 -0.574648
O17   O     O_R   0.085870 0.728910 0.002130 -0.558709
O18   O     O_R   0.914130 0.228910 0.997870 -0.558039
C59   C     C_R   0.044724 0.394251 0.176135 0.964688
C60   C     C_R   0.955000 0.892409 0.824204 1.009275
O19   O     O_3   0.017320 0.394650 0.955270 -0.269303
O20   O     O_3   0.982680 0.894650 0.044730 -0.275484
V3    V     V_3+5 0.996780 0.670490 0.008300 1.202649
V4    V     V_3+5 0.003220 0.170490 0.991700 1.209759
C61   C     C_2   0.646827 0.536489 0.608790 1.034125
O21   O     O_2   0.651405 0.371176 0.632693 -0.669148
O22   O     O_R   0.613629 0.665883 0.646714 -0.761152
H13   H     H_    0.594112 0.605460 0.691886 0.381707
C62   C     C_2   0.358528 0.034192 0.387663 1.027582
O23   O     O_2   0.365467 0.865877 0.374935 -0.651138
O24   O     O_R   0.379505 0.170861 0.337904 -0.735468
H14   H     H_    0.404450 0.114951 0.298237 0.375140
C63   C     C_2   0.954074 0.196828 0.531632 1.047981
O25   O     O_2   0.926311 0.349015 0.517011 -0.634397
O26   O     O_R   0.009739 0.167204 0.507211 -0.762367
H15   H     H_    0.018226 0.274191 0.468912 0.341552
C64   C     C_2   0.070098 0.731998 0.475251 1.042423
O27   O     O_2   0.015429 0.768064 0.475806 -0.554221
O28   O     O_R   0.121721 0.852350 0.520159 -0.829061
H16   H     H_    0.107896 0.972896 0.544554 0.351499
N1    N     N_2   0.018734 0.101957 0.720964 -0.114156
H17   H     H_    0.025311 0.234728 0.698831 0.203671
C65   C     C_3   0.076167 0.986184 0.744589 -0.811306
H18   H     H_    0.084952 0.936431 0.680023 0.280925
H19   H     H_    0.070904 0.862045 0.785964 0.215401
H20   H     H_    0.118482 0.070178 0.787148 0.234464
N2    N     N_2   0.995188 0.642916 0.285372 -0.106330
H21   H     H_    0.999692 0.784439 0.302089 0.211469
C66   C     C_3   0.932669 0.561807 0.276190 -0.727882
H22   H     H_    0.926514 0.547104 0.346110 0.296685
H23   H     H_    0.927579 0.421235 0.241233 0.204321
H24   H     H_    0.894094 0.655114 0.232495 0.231664
N3    N     N_2   0.756700 0.833651 0.285325 -0.130662
H25   H     H_    0.775219 0.912837 0.242862 0.167727
C67   C     C_3   0.755111 0.633506 0.263782 -0.849679
H26   H     H_    0.739565 0.611046 0.187030 0.231834
H27   H     H_    0.720315 0.558748 0.291224 0.259167
H28   H     H_    0.803899 0.571590 0.294779 0.293809
N4    N     N_2   0.243355 0.288324 0.712940 -0.130906
H29   H     H_    0.222603 0.354707 0.757127 0.184171
C68   C     C_3   0.248962 0.086599 0.728755 -0.858021
H30   H     H_    0.265719 0.058984 0.805053 0.239104
H31   H     H_    0.284652 0.023393 0.698740 0.261916
H32   H     H_    0.201284 0.017357 0.696955 0.287871
N5    N     N_2   0.783097 0.491319 0.640647 -0.111241
H33   H     H_    0.769015 0.474263 0.699108 0.217060
C69   C     C_3   0.794920 0.313653 0.601122 -0.804739
H34   H     H_    0.830383 0.230451 0.656017 0.238025
H35   H     H_    0.814901 0.338386 0.543159 0.277369
H36   H     H_    0.749346 0.231034 0.573986 0.253067
N6    N     N_2   0.222619 0.000704 0.339391 -0.113976
H37   H     H_    0.246654 0.954416 0.294635 0.215698
C70   C     C_3   0.181261 0.856732 0.357066 -0.843865
H38   H     H_    0.161626 0.766025 0.293855 0.229318
H39   H     H_    0.139584 0.923436 0.371606 0.270065
H40   H     H_    0.208840 0.766694 0.416343 0.274500
N7    N     N_2   0.543765 0.492662 0.444522 -0.110056
H41   H     H_    0.569347 0.368822 0.460443 0.175141
C71   C     C_3   0.491420 0.529197 0.482235 -0.746982
H42   H     H_    0.451663 0.427191 0.451696 0.298248
H43   H     H_    0.471683 0.672618 0.464906 0.264316
H44   H     H_    0.507845 0.510642 0.558877 0.224563
N8    N     N_2   0.459810 0.995354 0.546686 -0.111501
H45   H     H_    0.468862 0.874611 0.586413 0.225460
C72   C     C_3   0.511389 0.049670 0.510474 -0.820838
H46   H     H_    0.547219 0.934054 0.520834 0.280707
H47   H     H_    0.537426 0.175315 0.547311 0.254623
H48   H     H_    0.492177 0.078032 0.434802 0.255941
C73   C     C_2   0.215580 0.307402 0.120022 1.034650
O29   O     O_2   0.247018 0.254807 0.198249 -0.651096
O30   O     O_R   0.170736 0.452839 0.109349 -0.790436
H49   H     H_    0.170665 0.508498 0.171447 0.301409
C74   C     C_2   0.782697 0.808253 0.881058 1.009897
O31   O     O_2   0.825975 0.923793 0.890751 -0.647118
O32   O     O_R   0.741784 0.761281 0.791636 -0.813381
H50   H     H_    0.749978 0.841617 0.741305 0.314565
C75   C     C_2   0.348542 0.303766 0.108981 1.261414
O33   O     O_2   0.399581 0.221091 0.143102 -0.558791
O34   O     O_R   0.341899 0.484865 0.141440 -0.750001
H51   H     H_    0.298986 0.546010 0.109225 0.282254
C76   C     C_2   0.650219 0.801774 0.894199 1.259450
O35   O     O_2   0.601647 0.711743 0.853065 -0.559179
O36   O     O_R   0.653100 0.991644 0.873001 -0.767660
H52   H     H_    0.697953 0.046692 0.897094 0.294393
C77   C     C_2   0.867668 0.064667 0.363646 0.988499
O37   O     O_2   0.841004 0.206361 0.323721 -0.676473
O38   O     O_R   0.923229 0.996590 0.347750 -0.769276
H53   H     H_    0.937539 0.078918 0.303284 0.304802
C78   C     C_2   0.130797 0.524393 0.638792 0.987976
O39   O     O_2   0.161222 0.630898 0.701743 -0.675467
O40   O     O_R   0.065183 0.492518 0.624155 -0.797759
H54   H     H_    0.048398 0.565843 0.669673 0.327401
C79   C     C_2   0.468706 0.689635 0.279616 1.130111
O41   O     O_2   0.446053 0.534281 0.284887 -0.531749
O42   O     O_R   0.429404 0.830772 0.226621 -0.824539
H55   H     H_    0.381940 0.796084 0.203693 0.355678
C80   C     C_2   0.534385 0.189446 0.718181 1.081229
O43   O     O_2   0.568116 0.312881 0.767168 -0.635212
O44   O     O_R   0.563028 0.021179 0.703185 -0.734664
H56   H     H_    0.610500 0.037803 0.710298 0.389385

loop_
_geom_bond_atom_site_label_1
_geom_bond_atom_site_label_2
_geom_bond_distance
_ccdc_geom_bond_type
C23   C53   1.406460 A    
C46   C48   1.423779 A    
O34   H51   1.006497 S    
C43   C45   1.407887 A    
C41   C77   1.480868 S    
C74   O31   1.221568 D    
O15   C59   1.308755 A    
N8    C72   1.451613 S    
C75   O34   1.392212 S    
C75   O33   1.219097 D    
C19   H7    1.111922 S    
O28   H16   1.009595 S    
O1    C3    1.314125 A    
O2    C4    1.316117 A    
C2    O7    1.330759 A    
O16   V4    2.009495 S    
C73   O29   1.222318 D    
C76   O35   1.219891 D    
O5    C3    1.323900 A    
C63   O26   1.391415 S    
C72   H46   1.108517 S    
C7    C9    1.415102 A    
C56   H10   1.081111 S    
C64   O28   1.398959 S    
C70   H38   1.110845 S    
C17   C19   1.542749 S    
C69   H36   1.111116 S    
C79   O42   1.396400 S    
C45   C47   1.423090 A    
C38   C40   1.410072 A    
N6    H37   1.029041 S    
O12   C60   1.320514 A    
C40   C42   1.408890 A    
C22   C59   1.492528 S    
O14   V4    2.017129 S    
C25   C27   1.415942 A    
C80   O44   1.394543 S    
C66   H24   1.110370 S    
C61   O22   1.394182 S    
C33   C41   1.434356 A    
O16   C60   1.309631 A    
C32   C34   1.430198 A    
C77   O38   1.392733 S    
O15   V3    2.023279 S    
C68   H32   1.109071 S    
C30   C32   1.422119 A    
C71   H42   1.107121 S    
C36   C44   1.423873 A    
C18   C74   1.509337 S    
C39   N3    1.435304 S    
C6    C8    1.402201 A    
C48   C52   1.430724 A    
O6    V2    2.017427 S    
C78   O40   1.394621 S    
N3    H25   1.029411 S    
C25   C33   1.433417 A    
C20   C76   1.509166 S    
C62   O24   1.393657 S    
C52   N8    1.427289 S    
C27   N1    1.429159 S    
C23   C55   1.391133 A    
C43   N5    1.426690 S    
C46   C62   1.467194 S    
C74   O32   1.397094 S    
O20   V3    1.733903 S    
C40   N4    1.437624 S    
C21   C29   1.392608 A    
O4    V2    2.009427 S    
C73   O30   1.394306 S    
C25   C63   1.475172 S    
C61   O21   1.222750 D    
C28   N2    1.424289 S    
N2    C66   1.444556 S    
C11   C13   1.415333 A    
C57   O18   1.315601 A    
C26   C28   1.416755 A    
C3    C8    1.496495 S    
C39   C41   1.407608 A    
C66   H22   1.110748 S    
C70   H39   1.105199 S    
O44   H56   1.012956 S    
C62   O23   1.222353 D    
C20   H8    1.110288 S    
C52   C54   1.424119 A    
O32   H50   1.013297 S    
C51   C53   1.415428 A    
O11   V4    2.022326 S    
C38   C50   1.425232 A    
C34   C42   1.432564 A    
C31   C35   1.435491 A    
C65   H19   1.109771 S    
C78   O39   1.223391 D    
O18   V4    2.016655 S    
C17   H5    1.112380 S    
C29   C31   1.420829 A    
C35   C43   1.415919 A    
C47   C49   1.419312 A    
C44   C46   1.412373 A    
O17   V3    2.017575 S    
C17   C73   1.510229 S    
O40   H54   1.013980 S    
C67   H27   1.109960 S    
C54   C80   1.494768 S    
N5    C69   1.444974 S    
C53   C79   1.486354 S    
O22   H13   1.009490 S    
C65   H18   1.105356 S    
O6    C4    1.323775 A    
C65   H20   1.110662 S    
O13   V3    2.017980 S    
C26   C34   1.427659 A    
C15   C17   1.486956 S    
C21   C27   1.403502 A    
O1    V2    2.016243 S    
C22   C28   1.407205 A    
C14   C57   1.493291 S    
O20   V4    2.216888 S    
O2    V1    2.017163 S    
C55   H9    1.080160 S    
C13   C58   1.492149 S    
C76   O36   1.390974 S    
C22   C30   1.394677 A    
C48   C50   1.414823 A    
O13   C57   1.321260 A    
C1    C24   1.481912 S    
C8    C10   1.414235 A    
C12   C14   1.415317 A    
O19   V4    1.743778 S    
C2    C23   1.480918 S    
C9    H1    1.082289 S    
C50   C56   1.417122 A    
C68   H30   1.110372 S    
C19   C75   1.509480 S    
C10   H2    1.082461 S    
C26   C64   1.482895 S    
O4    C2    1.319384 A    
C6    C16   1.397825 A    
O26   H15   1.009229 S    
N4    H29   1.027587 S    
O3    C1    1.315165 A    
N8    H45   1.031137 S    
C70   H40   1.111559 S    
O3    V1    2.023212 S    
N3    C67   1.448973 S    
N1    H17   1.025935 S    
N5    H33   1.030152 S    
N6    C70   1.443346 S    
C9    C11   1.420595 A    
O12   V3    2.030494 S    
C18   H6    1.113420 S    
O14   C58   1.323328 A    
C24   C54   1.413548 A    
N4    C68   1.449074 S    
C58   O17   1.314736 A    
C30   H12   1.070828 S    
C72   H47   1.101424 S    
C69   H34   1.109785 S    
C71   H44   1.105213 S    
C44   N6    1.434546 S    
C72   H48   1.103945 S    
C63   O25   1.222676 D    
C12   H4    1.082758 S    
O11   C59   1.323291 A    
C37   C49   1.427630 A    
C35   C37   1.414073 A    
O7    V1    2.023267 S    
C67   H28   1.108630 S    
C45   C61   1.475047 S    
C1    O8    1.334061 A    
C13   C15   1.395310 A    
O36   H52   1.006007 S    
O8    V2    2.015685 S    
N7    H41   1.027516 S    
C42   C78   1.489198 S    
C14   C16   1.399856 A    
C69   H35   1.109403 S    
C79   O41   1.219782 D    
C51   N7    1.423894 S    
C32   C36   1.438831 A    
C5    C15   1.393820 A    
C4    C7    1.496552 S    
O5    V1    2.018279 S    
C5    C7    1.402605 A    
C18   C20   1.539231 S    
C36   C38   1.418693 A    
C49   C55   1.417405 A    
C47   C51   1.430424 A    
C71   H43   1.103476 S    
C80   O43   1.222126 D    
C66   H23   1.110931 S    
O30   H49   1.013357 S    
C37   C39   1.409053 A    
C77   O37   1.222729 D    
C31   C33   1.431632 A    
O38   H53   1.013983 S    
N7    C71   1.450439 S    
C29   H11   1.074212 S    
O42   H55   1.010886 S    
C21   C60   1.486250 S    
O19   V3    2.202968 S    
N2    H21   1.028144 S    
C10   C12   1.419474 A    
O9    V2    1.744589 S    
O24   H14   1.006598 S    
C68   H31   1.109549 S    
O10   V1    1.734712 S    
C5    C19   1.500818 S    
C24   C56   1.392721 A    
C64   O27   1.221567 D    
C6    C20   1.499200 S    
C67   H26   1.107932 S    
C16   C18   1.490715 S    
N1    C65   1.444742 S    
C11   H3    1.082492 S    
