data_mof_unit_12115.cif
_audit_creation_date              2012-12-10T18:47:47-0500
_audit_creation_method            fapswitch 2.2
_symmetry_space_group_name_H-M    P1
_symmetry_Int_Tables_number       1
_space_group_crystal_system       triclinic
_cell_length_a                    9.842429
_cell_length_b                    10.692483
_cell_length_c                    15.652643
_cell_angle_alpha                 90.344806
_cell_angle_beta                  66.944819
_cell_angle_gamma                 90.129834
_cell_volume                      1515.68507751

loop_
_atom_site_label
_atom_site_type_symbol
_atom_type_description
_atom_site_fract_x
_atom_site_fract_y
_atom_site_fract_z
_atom_type_partial_charge
C1    C     C_R   0.500035 0.740087 0.500184 0.868093
C2    C     C_R   0.365559 0.935903 0.527994 -0.211368
C3    C     C_R   0.499959 0.127498 0.499638 -0.004635
C4    C     C_R   0.500042 0.872502 0.500364 -0.004722
C5    C     C_R   0.958415 0.411853 0.450910 -0.088534
C6    C     C_R   0.041582 0.588143 0.549092 -0.088207
C7    C     C_R   0.102212 0.411813 0.451000 -0.082972
C8    C     C_R   0.897785 0.588183 0.549004 -0.083160
C9    C     C_R   0.407511 0.496424 0.675748 0.880162
C10   C     C_R   0.592493 0.503579 0.324247 0.879962
C11   C     C_R   0.348615 0.503250 0.776876 -0.100500
C12   C     C_R   0.499965 0.259913 0.499817 0.868239
C13   C     C_R   0.651423 0.496762 0.223114 -0.100529
C14   C     C_R   0.225018 0.644912 0.903096 -0.204972
C15   C     C_R   0.775416 0.355277 0.096821 -0.204980
C16   C     C_R   0.236329 0.589845 0.820360 -0.222769
C17   C     C_R   0.763889 0.410304 0.179616 -0.222687
C18   C     C_R   0.429652 0.450024 0.825002 -0.078618
C19   C     C_R   0.570381 0.549901 0.174954 -0.078895
C20   C     C_R   0.411797 0.501152 0.913050 0.041549
C21   C     C_R   0.588578 0.498896 0.086817 0.041619
C22   C     C_R   0.321727 0.609389 0.944266 0.164793
C23   C     C_R   0.446192 0.661272 0.044397 -0.226082
C24   C     C_R   0.678784 0.390752 0.055582 0.164865
C25   C     C_R   0.491949 0.459286 0.966210 0.056870
C26   C     C_R   0.508554 0.540777 0.033597 0.056896
C27   C     C_R   0.449854 0.639930 0.226567 0.116738
C28   C     C_R   0.484142 0.756010 0.255827 -0.184215
C29   C     C_R   0.371252 0.838029 0.307932 -0.117297
C30   C     C_R   0.223567 0.804215 0.332375 -0.117729
C31   C     C_R   0.188375 0.688494 0.304403 -0.129068
C32   C     C_R   0.300783 0.606241 0.252047 -0.072373
C33   C     C_R   0.549735 0.359642 0.773413 0.116378
C34   C     C_R   0.554431 0.338824 0.955390 -0.226281
C35   C     C_R   0.698984 0.392932 0.747623 -0.071972
C36   C     C_R   0.810944 0.310323 0.695257 -0.129202
C37   C     C_R   0.775118 0.194636 0.667598 -0.117675
C38   C     C_R   0.627248 0.161221 0.692353 -0.117405
C39   C     C_R   0.514809 0.243602 0.744457 -0.184846
C40   C     C_R   0.341872 0.689425 0.008637 -0.237771
C41   C     C_R   0.658795 0.310743 0.991141 -0.237860
C42   C     C_R   0.634469 0.936002 0.472494 -0.221693
C43   C     C_R   0.365532 0.063998 0.527511 -0.221684
C44   C     C_R   0.634443 0.064098 0.472011 -0.211105
H1    H     H_    0.285845 0.778969 0.025437 0.145582
H2    H     H_    0.260978 0.113013 0.549641 0.150758
H3    H     H_    0.738975 0.113208 0.449795 0.148872
H4    H     H_    0.261026 0.886792 0.550210 0.148899
H5    H     H_    0.928257 0.341442 0.411595 0.117030
H6    H     H_    0.071742 0.658555 0.588406 0.116985
H7    H     H_    0.181013 0.341447 0.411634 0.127650
H8    H     H_    0.818985 0.658548 0.588370 0.127662
H9    H     H_    0.598118 0.782612 0.238289 0.118688
H10   H     H_    0.398310 0.927584 0.329793 0.141220
H11   H     H_    0.136371 0.867513 0.373277 0.112040
H12   H     H_    0.714910 0.221239 0.974322 0.145585
H13   H     H_    0.073935 0.662108 0.323904 0.132727
H14   H     H_    0.272147 0.516019 0.231987 0.117093
H15   H     H_    0.728103 0.483116 0.767443 0.117179
H16   H     H_    0.925523 0.336403 0.675507 0.132597
H17   H     H_    0.861962 0.131055 0.626694 0.112084
H18   H     H_    0.599694 0.071701 0.670730 0.141380
H19   H     H_    0.400684 0.217312 0.762231 0.118926
H20   H     H_    0.827820 0.371658 0.215961 0.152821
H21   H     H_    0.172395 0.628547 0.784038 0.152818
H22   H     H_    0.150859 0.723603 0.929853 0.136493
H23   H     H_    0.849688 0.276653 0.070059 0.136479
H24   H     H_    0.475666 0.735197 0.080980 0.166082
H25   H     H_    0.524977 0.264833 0.918857 0.166244
H26   H     H_    0.739023 0.886988 0.450365 0.150735
N1    N     N_R   0.142780 0.500030 0.500020 -0.070827
N2    N     N_R   0.857220 0.499970 0.499980 -0.070886
O1    O     O_R   0.385370 0.683250 0.500010 -0.615202
O2    O     O_R   0.614630 0.316750 0.499990 -0.615143
O3    O     O_R   0.614700 0.683220 0.500000 -0.633093
O4    O     O_R   0.385300 0.316780 0.500000 -0.633129
O5    O     O_R   0.319830 0.500020 0.632250 -0.624591
O6    O     O_R   0.680170 0.499980 0.367750 -0.624614
O7    O     O_R   0.549160 0.499990 0.632240 -0.593669
O8    O     O_R   0.450840 0.500010 0.367760 -0.593577
Zn1   Zn    Zn3+2 0.346870 0.500020 0.500000 0.942909
Zn2   Zn    Zn3+2 0.653130 0.499980 0.500000 0.942835

loop_
_geom_bond_atom_site_label_1
_geom_bond_atom_site_label_2
_ccdc_geom_bond_type
C21   C26   A    
C11   C18   A    
C12   O2    A    
C35   C36   A    
C32   H14   S    
C10   O6    A    
C3    C43   A    
C29   C30   A    
C28   C29   A    
C19   C21   A    
C5    N2    A    
C17   H20   S    
C7    N1    A    
C30   C31   A    
C29   H10   S    
C23   C40   A    
C42   H26   S    
C35   H15   S    
C9    O7    A    
C23   C26   A    
C3    C12   S    
C33   C39   A    
C19   C27   S    
C8    H8    S    
C44   H3    S    
C25   C34   A    
C22   C40   A    
C24   C41   A    
C5    H5    S    
C6    N1    A    
C34   C41   A    
C42   C44   A    
O2    Zn2   S    
O1    Zn1   S    
C43   H2    S    
C40   H1    S    
C3    C44   A    
C8    N2    A    
C13   C19   A    
C1    O3    A    
C5    C7    A    
C10   O8    A    
C6    C8    A    
C2    H4    S    
C25   C26   A    
C23   H24   S    
C2    C4    A    
C41   H12   S    
C37   C38   A    
C11   C16   A    
O6    Zn2   S    
C31   C32   A    
O5    Zn1   S    
C2    C43   A    
C15   H23   S    
C14   H22   S    
C9    O5    A    
C6    H6    S    
C9    C11   S    
C34   H25   S    
C15   C24   A    
C20   C22   A    
C12   O4    A    
C14   C16   A    
C15   C17   A    
C36   C37   A    
C27   C32   A    
O8    Zn1   S    
C36   H16   S    
C10   C13   S    
O4    Zn1   S    
O7    Zn2   S    
C37   H17   S    
C28   H9    S    
O3    Zn2   S    
C39   H19   S    
C30   H11   S    
C13   C17   A    
C1    C4    S    
C1    O1    A    
C14   C22   A    
C7    H7    S    
C31   H13   S    
C38   C39   A    
C4    C42   A    
C33   C35   A    
C18   C20   A    
C18   C33   S    
C20   C25   A    
C21   C24   A    
C27   C28   A    
C16   H21   S    
C38   H18   S    
N2    Zn2   S    
N1    Zn1   S    
