data_mof_unit_36748.cif
_audit_creation_date              2012-12-11T14:35:47-0500
_audit_creation_method            fapswitch 2.2
_symmetry_space_group_name_H-M    P1
_symmetry_Int_Tables_number       1
_space_group_crystal_system       monoclinic
_cell_length_a                    14.454751
_cell_length_b                    16.049997
_cell_length_c                    6.97871
_cell_angle_alpha                 90.0
_cell_angle_beta                  80.769984
_cell_angle_gamma                 90.0
_cell_volume                      1598.08883838

loop_
_atom_site_label
_atom_site_type_symbol
_atom_type_description
_atom_site_fract_x
_atom_site_fract_y
_atom_site_fract_z
_atom_type_partial_charge
O1    O     O_R   0.337460 0.413110 0.524760 -0.536934
O2    O     O_R   0.662540 0.913110 0.475240 -0.536934
O3    O     O_R   0.348690 0.587910 0.191230 -0.538932
O4    O     O_R   0.651310 0.087910 0.808770 -0.538932
O5    O     O_R   0.166530 0.586890 0.082470 -0.534616
O6    O     O_R   0.833470 0.086890 0.917530 -0.534617
C1    C     C_R   0.372382 0.615410 0.352249 0.707048
C2    C     C_R   0.627618 0.115410 0.647751 0.707047
O7    O     O_R   0.348700 0.413830 0.191250 -0.546897
O8    O     O_R   0.651300 0.913830 0.808750 -0.546897
O9    O     O_R   0.166530 0.411570 0.082490 -0.542703
O10   O     O_R   0.833470 0.911570 0.917510 -0.542703
C3    C     C_R   0.371281 0.385792 0.352944 0.755149
C4    C     C_R   0.628719 0.885792 0.647056 0.755150
O11   O     O_R   0.337460 0.588430 0.524740 -0.549998
O12   O     O_R   0.662540 0.088430 0.475260 -0.549998
O13   O     O_3   0.192230 0.499460 0.407330 -0.367193
O14   O     O_3   0.807770 0.999460 0.592670 -0.367193
V1    V     V_3+5 0.263080 0.500100 0.108540 1.412799
V2    V     V_3+5 0.736920 0.000100 0.891460 1.412799
O15   O     O_R   0.155290 0.412090 0.756570 -0.511652
O16   O     O_R   0.844710 0.912090 0.243430 -0.511652
C5    C     C_R   0.132093 0.383618 0.932666 0.688700
C6    C     C_R   0.867907 0.883618 0.067334 0.688700
O17   O     O_R   0.155290 0.586170 0.756550 -0.554106
O18   O     O_R   0.844710 0.086170 0.243450 -0.554106
C7    C     C_R   0.133955 0.616119 0.932497 0.699114
C8    C     C_R   0.866045 0.116118 0.067503 0.699115
V3    V     V_3+5 0.240910 0.499900 0.616030 1.420177
V4    V     V_3+5 0.759090 0.999900 0.383970 1.420177
O19   O     O_3   0.311760 0.500540 0.867100 -0.373879
O20   O     O_3   0.688240 0.000540 0.132900 -0.373879
C9    C     C_3   0.073137 0.733082 0.164920 0.288408
C10   C     C_3   0.926863 0.233082 0.835080 0.288408
H1    H     H_    0.061688 0.685634 0.282873 0.071120
H2    H     H_    0.938312 0.185634 0.717127 0.071120
C11   C     C_3   0.998251 0.804330 0.204645 0.316608
C12   C     C_3   0.001749 0.304331 0.795355 0.316608
H3    H     H_    0.038591 0.863626 0.199588 0.096126
H4    H     H_    0.961409 0.363627 0.800412 0.096127
H5    H     H_    0.945384 0.607753 0.088513 0.125324
H6    H     H_    0.054615 0.107753 0.911487 0.125323
H7    H     H_    0.832163 0.715614 0.124018 0.141892
H8    H     H_    0.167836 0.215614 0.875981 0.141892
C13   C     C_3   0.962360 0.655836 0.974036 -0.441193
C14   C     C_3   0.037640 0.155836 0.025964 -0.441192
C15   C     C_3   0.081670 0.754513 0.804908 -0.315380
C16   C     C_3   0.918330 0.254513 0.195092 -0.315380
C17   C     C_3   0.064191 0.688186 0.968964 0.023961
C18   C     C_3   0.935809 0.188186 0.031036 0.023961
H9    H     H_    0.071679 0.725152 0.665858 0.153034
H10   H     H_    0.928321 0.225152 0.334142 0.153034
H11   H     H_    0.155149 0.777515 0.786048 0.164970
H12   H     H_    0.844851 0.277515 0.213952 0.164970
C19   C     C_3   0.939412 0.812766 0.034947 -0.003587
C20   C     C_3   0.060588 0.312766 0.965053 -0.003587
C21   C     C_3   0.890249 0.728951 0.003967 -0.332483
C22   C     C_3   0.109751 0.228951 0.996033 -0.332484
C23   C     C_3   0.012444 0.828998 0.848503 -0.415289
C24   C     C_3   0.987556 0.328998 0.151497 -0.415289
H13   H     H_    0.052591 0.886937 0.865749 0.126613
H14   H     H_    0.947409 0.386937 0.134251 0.126613
H15   H     H_    0.976363 0.839710 0.722388 0.229498
H16   H     H_    0.023637 0.339710 0.277612 0.229498
H17   H     H_    0.956840 0.623357 0.835665 0.154274
H18   H     H_    0.043160 0.123357 0.164334 0.154274
H19   H     H_    0.854246 0.734588 0.876171 0.152885
H20   H     H_    0.145754 0.234588 0.123828 0.152884
H21   H     H_    0.590400 0.791219 0.363510 0.161038
H22   H     H_    0.409600 0.291219 0.636490 0.161038
H23   H     H_    0.425204 0.703178 0.638598 0.141946
H24   H     H_    0.574796 0.203178 0.361402 0.141947
C25   C     C_2   0.447839 0.679125 0.336163 -0.083120
C26   C     C_2   0.552161 0.179124 0.663837 -0.083120
C27   C     C_2   0.467326 0.717192 0.498861 -0.164537
C28   C     C_2   0.532674 0.217192 0.501139 -0.164536
H25   H     H_    0.511961 0.808267 0.795448 0.134862
H26   H     H_    0.488038 0.308267 0.204552 0.134862
C29   C     C_2   0.556231 0.820694 0.657749 -0.355154
C30   C     C_2   0.443769 0.320694 0.342251 -0.355155
C31   C     C_2   0.543369 0.778907 0.497559 -0.142164
C32   C     C_2   0.456631 0.278908 0.502441 -0.142164
C33   C     C_3   0.504321 0.696609 0.136474 -0.338336
C34   C     C_3   0.594860 0.644919 0.104102 -0.295296
C35   C     C_3   0.653471 0.663228 0.906726 -0.802435
H27   H     H_    0.612945 0.648828 0.788386 0.242086
H28   H     H_    0.674858 0.729749 0.897811 0.227598
H29   H     H_    0.717582 0.624011 0.886863 0.214551
H30   H     H_    0.637741 0.658555 0.219001 0.189586
H31   H     H_    0.576850 0.577514 0.111767 0.191281
H32   H     H_    0.462856 0.681151 0.020341 0.183409
H33   H     H_    0.519556 0.764128 0.117946 0.167816
C36   C     C_3   0.495679 0.196609 0.863526 -0.338337
C37   C     C_3   0.405140 0.144919 0.895897 -0.295295
C38   C     C_3   0.346529 0.163228 0.093274 -0.802432
H34   H     H_    0.387055 0.148828 0.211614 0.242085
H35   H     H_    0.325142 0.229748 0.102190 0.227597
H36   H     H_    0.282418 0.124011 0.113137 0.214551
H37   H     H_    0.362258 0.158556 0.780999 0.189585
H38   H     H_    0.423150 0.077514 0.888232 0.191280
H39   H     H_    0.537144 0.181151 0.979659 0.183409
H40   H     H_    0.480444 0.264128 0.882054 0.167816
O21   O     O_3   0.165127 0.767091 0.146603 -0.566378
C39   C     C_3   0.193652 0.776380 0.329118 -0.286094
H41   H     H_    0.197637 0.715011 0.401125 0.139817
H42   H     H_    0.146839 0.820088 0.422564 0.146675
H43   H     H_    0.265142 0.803525 0.307044 0.163044
O22   O     O_3   0.834873 0.267091 0.853397 -0.566378
C40   C     C_3   0.806348 0.276380 0.670882 -0.286093
H44   H     H_    0.802363 0.215011 0.598875 0.139816
H45   H     H_    0.853161 0.320088 0.577436 0.146675
H46   H     H_    0.734858 0.303525 0.692957 0.163044
O23   O     O_3   0.945348 0.804701 0.395277 -0.561175
C41   C     C_3   0.896835 0.730369 0.455122 -0.301125
H47   H     H_    0.907490 0.677922 0.353853 0.117507
H48   H     H_    0.820762 0.743826 0.492288 0.161944
H49   H     H_    0.922347 0.707079 0.584876 0.149796
O24   O     O_3   0.054652 0.304701 0.604723 -0.561175
C42   C     C_3   0.103165 0.230370 0.544878 -0.301123
H50   H     H_    0.092509 0.177922 0.646146 0.117507
H51   H     H_    0.179238 0.243826 0.507714 0.161943
H52   H     H_    0.077654 0.207079 0.415123 0.149796

loop_
_geom_bond_atom_site_label_1
_geom_bond_atom_site_label_2
_ccdc_geom_bond_type
C12   H4    S    
C36   C37   S    
O11   V3    S    
C19   C23   S    
O13   V3    S    
H8    C22   S    
C38   H34   S    
O4    C2    A    
C11   C19   S    
V1    O19   S    
C39   H42   S    
C41   H47   S    
C38   H36   S    
C5    C20   S    
C15   C17   S    
C35   H27   S    
C6    C19   S    
C16   H12   S    
C33   H33   S    
C13   C21   S    
C26   C28   D    
C14   H18   S    
O3    C1    A    
C40   H45   S    
H26   C30   S    
C35   H29   S    
C11   O23   S    
C9    C17   S    
O22   C40   S    
C24   H14   S    
H6    C14   S    
O7    C3    A    
O24   C42   S    
O13   V1    S    
O5    C7    A    
C8    C18   S    
O7    V1    S    
O6    C8    A    
O8    V2    S    
O3    V1    S    
O14   V4    S    
C13   C17   S    
V4    O20   S    
C10   H2    S    
H24   C28   S    
C15   H11   S    
C16   C18   S    
C3    C30   S    
C2    O12   A    
C9    O21   S    
C14   C22   S    
C25   C27   D    
C26   C36   S    
C34   H31   S    
C21   H19   S    
H22   C32   S    
O1    V3    S    
C39   H41   S    
C16   C24   S    
C42   H51   S    
O17   V3    S    
C10   C18   S    
C23   H13   S    
C35   H28   S    
C34   C35   S    
C1    C25   S    
O8    C4    A    
C40   H46   S    
C36   H39   S    
C29   C31   D    
C27   C31   S    
C15   H9    S    
C1    O11   A    
O15   V3    S    
C9    C11   S    
C20   C24   S    
O4    V2    S    
C33   C34   S    
C37   H38   S    
O9    V1    S    
O10   V2    S    
C2    C26   S    
H25   C29   S    
C4    C29   S    
C30   C32   D    
O18   V4    S    
O15   C5    A    
C13   H17   S    
O16   C6    A    
O1    C3    A    
C34   H30   S    
C28   C32   S    
O6    V2    S    
O23   C41   S    
V2    O20   S    
C42   H52   S    
C22   H20   S    
C14   C18   S    
O16   V4    S    
C10   C12   S    
O18   C8    A    
C36   H40   S    
C41   H48   S    
C42   H50   S    
C38   H35   S    
O5    V1    S    
O17   C7    A    
C33   H32   S    
O10   C6    A    
C23   H15   S    
O2    V4    S    
C24   H16   S    
C10   O22   S    
C19   C21   S    
V3    O19   S    
C40   H44   S    
H23   C27   S    
C37   H37   S    
O9    C5    A    
C9    H1    S    
C20   C22   S    
O14   V2    S    
C37   C38   S    
O2    C4    A    
C41   H49   S    
H21   C31   S    
H7    C21   S    
C15   C23   S    
C12   O24   S    
C16   H10   S    
C12   C20   S    
C11   H3    S    
O21   C39   S    
H5    C13   S    
O12   V4    S    
C25   C33   S    
C39   H43   S    
C7    C17   S    
