data_mof_unit_33284.cif
_audit_creation_date              2012-10-26T19:36:59-0400
_audit_creation_method            fapswitch 2.2
_symmetry_space_group_name_H-M    P1
_symmetry_Int_Tables_number       1
_space_group_crystal_system       triclinic
_cell_length_a                    10.992111
_cell_length_b                    17.72495
_cell_length_c                    16.514667
_cell_angle_alpha                 88.50501
_cell_angle_beta                  88.375574
_cell_angle_gamma                 93.042263
_cell_volume                      3210.57536431

loop_
_atom_site_label
_atom_site_type_symbol
_atom_type_description
_atom_site_fract_x
_atom_site_fract_y
_atom_site_fract_z
_atom_type_partial_charge
C1    C     C_R   0.499889 0.355281 0.500733 0.558131
C2    C     C_R   0.494922 0.234354 0.427468 -0.075476
C3    C     C_R   0.500373 0.727699 0.498868 0.015563
C4    C     C_R   0.499701 0.272303 0.501133 0.015615
C5    C     C_R   0.495000 0.769721 0.426028 -0.097484
C6    C     C_R   0.504761 0.230273 0.573992 -0.097995
C7    C     C_R   0.494684 0.848325 0.426827 -0.102411
C8    C     C_R   0.505120 0.151670 0.573194 -0.102793
C9    C     C_R   0.500045 0.885599 0.500363 0.053760
C10   C     C_R   0.500121 0.114406 0.499642 0.053799
C11   C     C_1   0.500047 0.966191 0.499980 0.046394
C12   C     C_R   0.500128 0.644719 0.499267 0.558004
C13   C     C_1   0.500127 0.033814 0.500027 0.046382
C14   C     C_R   0.553858 0.566082 0.824560 0.020314
C15   C     C_R   0.446485 0.433826 0.175428 0.020647
C16   C     C_R   0.262006 0.501902 0.501237 0.556191
C17   C     C_R   0.737994 0.498115 0.498762 0.556215
C18   C     C_R   0.552434 0.561279 0.738504 0.060565
C19   C     C_R   0.447813 0.438648 0.261485 0.060813
C20   C     C_R   0.450497 0.440378 0.749751 0.178470
C21   C     C_R   0.549309 0.559677 0.250248 0.178512
C22   C     C_R   0.453265 0.442506 0.834704 -0.157354
C23   C     C_R   0.871830 0.495110 0.496541 -0.024374
C24   C     C_R   0.546547 0.557552 0.165295 -0.157154
C25   C     C_R   0.502660 0.505032 0.873516 -0.003830
C26   C     C_R   0.497432 0.494952 0.126478 -0.003574
C27   C     C_1   0.501381 0.502307 0.962909 -0.003943
C28   C     C_1   0.498750 0.497669 0.037085 -0.003847
C29   C     C_R   0.237044 0.700052 0.320619 -0.093669
C30   C     C_R   0.762862 0.299737 0.678918 -0.093517
C31   C     C_R   0.181138 0.655892 0.384117 0.024080
C32   C     C_R   0.818952 0.344004 0.615570 0.024097
C33   C     C_R   0.142050 0.579991 0.369864 -0.049329
C34   C     C_R   0.128170 0.504939 0.503460 -0.024472
C35   C     C_R   0.857963 0.419881 0.630011 -0.049435
C36   C     C_R   0.160584 0.549377 0.291829 0.047986
C37   C     C_R   0.839198 0.450356 0.708088 0.047870
C38   C     C_R   0.214147 0.596435 0.227657 0.023595
C39   C     C_R   0.785438 0.403193 0.772108 0.023588
C40   C     C_R   0.252564 0.670973 0.243952 -0.188223
C41   C     C_R   0.747067 0.328691 0.755619 -0.188075
C42   C     C_R   0.943539 0.526338 0.429841 -0.029153
C43   C     C_R   0.056449 0.473762 0.570184 -0.029068
C44   C     C_2   0.610222 0.634014 0.862043 0.285937
C45   C     C_R   0.929291 0.465407 0.564959 -0.106131
C46   C     C_2   0.390481 0.365789 0.137938 0.286125
C47   C     C_2   0.394236 0.370089 0.718530 0.276524
C48   C     C_2   0.605411 0.630007 0.281468 0.276737
C49   C     C_2   0.161170 0.690509 0.464253 0.233049
C50   C     C_2   0.839142 0.309527 0.535381 0.233164
C51   C     C_2   0.124014 0.468538 0.280762 0.316340
C52   C     C_2   0.875539 0.531199 0.719321 0.316035
C53   C     C_2   0.234031 0.572533 0.142708 0.256979
C54   C     C_2   0.765218 0.426957 0.857074 0.256585
C55   C     C_2   0.889849 0.550379 0.352764 0.325114
C56   C     C_R   0.070711 0.534615 0.435024 -0.106227
C57   C     C_2   0.110100 0.449873 0.647328 0.325452
C58   C     C_R   0.505468 0.844221 0.573572 0.117538
C59   C     C_R   0.495029 0.155792 0.426415 0.117712
C60   C     C_R   0.505526 0.765657 0.572517 -0.075766
Cu1   Cu    Cu3+1 0.499990 0.499980 0.580420 1.037517
Cu2   Cu    Cu3+1 0.500010 0.500020 0.419580 1.037580
H1    H     H_    0.295065 0.707633 0.196518 0.108026
H2    H     H_    0.732896 0.241487 0.669712 0.167495
H3    H     H_    0.509736 0.734504 0.629562 0.162123
H4    H     H_    0.490974 0.265514 0.370407 0.162137
H5    H     H_    0.489983 0.742027 0.368640 0.124387
H6    H     H_    0.509484 0.257960 0.631397 0.124531
H7    H     H_    0.612202 0.637831 0.927453 0.129007
H8    H     H_    0.388569 0.361957 0.072527 0.128925
H9    H     H_    0.411167 0.316500 0.748348 0.055454
H10   H     H_    0.588186 0.683589 0.251736 0.055407
H11   H     H_    0.114421 0.658720 0.513852 0.131270
H12   H     H_    0.704415 0.291954 0.802931 0.108005
H13   H     H_    0.886218 0.341356 0.485937 0.131193
H14   H     H_    0.152136 0.426254 0.324052 0.105658
H15   H     H_    0.847152 0.573534 0.676184 0.105779
H16   H     H_    0.272892 0.613294 0.097652 0.105040
H17   H     H_    0.725292 0.386289 0.901852 0.104636
H18   H     H_    0.906912 0.608024 0.329840 0.135995
H19   H     H_    0.092973 0.392282 0.670408 0.135963
H20   H     H_    0.490122 0.880053 0.370102 0.139906
H21   H     H_    0.509424 0.119936 0.629934 0.139913
H22   H     H_    0.594452 0.607095 0.701370 0.158677
H23   H     H_    0.405940 0.392778 0.298606 0.158784
H24   H     H_    0.414850 0.394766 0.871226 0.103978
H25   H     H_    0.584794 0.605343 0.128779 0.103892
H26   H     H_    0.267064 0.758318 0.329679 0.167398
I1    I     I_    0.513790 0.897071 0.687278 -0.266547
I2    I     I_    0.487288 0.102957 0.312682 -0.266234
N1    N     N_R   0.499970 0.499970 0.701220 -0.234285
N2    N     N_R   0.500030 0.500030 0.298780 -0.234323
O1    O     O_R   0.499990 0.391240 0.567930 -0.471899
O2    O     O_2   0.345578 0.313018 0.179661 -0.474179
O3    O     O_2   0.321537 0.370647 0.664457 -0.486380
O4    O     O_2   0.678310 0.629498 0.335423 -0.486311
O5    O     O_2   0.196563 0.755678 0.476019 -0.489778
O6    O     O_2   0.803562 0.244433 0.523399 -0.489691
O7    O     O_2   0.055287 0.449164 0.227476 -0.375544
O8    O     O_2   0.944364 0.550537 0.772567 -0.375483
O9    O     O_2   0.209573 0.508420 0.121140 -0.440294
O10   O     O_2   0.790665 0.490839 0.878975 -0.439781
O11   O     O_2   0.836103 0.504401 0.310949 -0.413291
O12   O     O_R   0.500010 0.608760 0.432070 -0.471987
O13   O     O_2   0.163903 0.495928 0.689021 -0.413307
O14   O     O_R   0.500000 0.391270 0.432120 -0.528859
O15   O     O_R   0.500000 0.608730 0.567880 -0.528766
O16   O     O_R   0.319640 0.499990 0.567910 -0.411252
O17   O     O_R   0.680360 0.500010 0.432090 -0.411371
O18   O     O_R   0.319650 0.500020 0.432090 -0.537694
O19   O     O_R   0.680350 0.499980 0.567910 -0.537817
O20   O     O_2   0.655358 0.686712 0.820314 -0.474185

loop_
_geom_bond_atom_site_label_1
_geom_bond_atom_site_label_2
_ccdc_geom_bond_type
C57   O13   D    
C34   C56   A    
C23   C45   A    
C30   H2    S    
C8    H21   S    
C14   C18   A    
C5    H5    S    
C16   O18   A    
C39   C41   A    
C15   C19   A    
Cu2   O17   S    
C17   C23   S    
C40   H1    S    
C18   N1    A    
C35   C37   A    
C31   C49   S    
C12   O12   A    
Cu1   O1    S    
C39   C54   S    
C58   C60   A    
C55   O11   D    
C33   C36   A    
C9    C58   A    
Cu1   O16   S    
C29   H26   S    
C19   N2    A    
C16   C34   S    
C41   H12   S    
C53   O9    D    
C22   C25   A    
Cu2   O18   S    
C18   H22   S    
C31   C33   A    
C30   C41   A    
C3    C12   S    
C1    O14   A    
C21   C48   S    
C42   C56   A    
C3    C60   A    
C33   C56   S    
C6    H6    S    
C38   C40   A    
C48   H10   S    
C17   O19   A    
C58   I1    S    
Cu2   O12   S    
C51   O7    D    
C37   C39   A    
C20   N1    A    
C50   O6    D    
C32   C35   A    
C51   H14   S    
C4    C6    A    
C5    C7    A    
C37   C52   S    
C43   C57   S    
C2    C59   A    
C15   C26   A    
C6    C8    A    
C19   H23   S    
C52   O8    D    
Cu2   N2    S    
C59   I2    S    
C2    C4    A    
C42   C55   S    
C9    C11   S    
C23   C42   A    
C46   O2    D    
C32   C50   S    
C44   H7    S    
C43   C45   A    
C47   H9    S    
C36   C51   S    
C44   O20   D    
C8    C10   A    
C20   C22   A    
C60   H3    S    
C57   H19   S    
C52   H15   S    
C35   C45   S    
C14   C44   S    
C54   H17   S    
C7    C9    A    
C48   O4    D    
C54   O10   D    
C34   C43   A    
C24   C26   A    
C3    C5    A    
C10   C13   S    
C17   O17   A    
C12   O15   A    
C2    H4    S    
Cu2   O14   S    
C25   C27   S    
C26   C28   S    
C1    C4    S    
C36   C38   A    
C53   H16   S    
C29   C31   A    
C50   H13   S    
C30   C32   A    
C55   H18   S    
C11   C13   T    
C38   C53   S    
C29   C40   A    
C10   C59   A    
C49   H11   S    
C22   H24   S    
C14   C25   A    
Cu1   Cu2   S    
Cu1   O15   S    
C24   H25   S    
C46   H8    S    
C20   C47   S    
C16   O16   A    
C49   O5    D    
C7    H20   S    
C1    O1    A    
C21   C24   A    
C27   C28   T    
C47   O3    D    
C15   C46   S    
Cu1   N1    S    
C21   N2    A    
Cu1   O19   S    
