data_mof_unit_17144.cif
_audit_creation_date              2012-12-11T17:10:31-0500
_audit_creation_method            fapswitch 2.2
_symmetry_space_group_name_H-M    P1
_symmetry_Int_Tables_number       1
_space_group_crystal_system       triclinic
_cell_length_a                    15.060851
_cell_length_b                    14.885012
_cell_length_c                    14.88077
_cell_angle_alpha                 109.571422
_cell_angle_beta                  109.993299
_cell_angle_gamma                 109.182075
_cell_volume                      2557.33395854

loop_
_atom_site_label
_atom_site_type_symbol
_atom_type_description
_atom_site_fract_x
_atom_site_fract_y
_atom_site_fract_z
_atom_type_partial_charge
C1    C     C_R   0.199761 0.290875 0.195508 -0.148733
C2    C     C_R   0.472634 0.564350 0.249027 -0.125659
C3    C     C_R   0.497243 0.801297 0.591031 -0.142667
C4    C     C_R   0.596170 0.504693 0.804563 -0.158833
C5    C     C_R   0.702809 0.399354 0.406965 -0.162802
C6    C     C_R   0.435309 0.802209 0.498393 0.078521
C7    C     C_R   0.795770 0.429535 0.497002 0.062186
C8    C     C_R   0.549679 0.549070 0.223980 0.072594
C9    C     C_R   0.823859 0.825435 0.772482 0.054566
C10   C     C_R   0.101264 0.614108 0.289975 -0.119610
C11   C     C_R   0.089522 0.583518 0.366163 -0.119987
C12   C     C_R   0.565636 0.564487 0.868339 0.078204
C13   C     C_R   0.010608 0.476427 0.328733 0.111610
C14   C     C_R   0.942685 0.401327 0.214305 -0.186773
C15   C     C_R   0.955283 0.432247 0.138600 -0.121451
C16   C     C_R   0.432829 0.185959 0.406754 -0.148854
C17   C     C_R   0.034730 0.538539 0.176414 -0.103390
C18   C     C_R   0.899313 0.428309 0.407680 -0.237041
C19   C     C_R   0.881943 0.413373 0.488962 0.059703
C20   C     C_R   0.954987 0.401622 0.567091 0.020504
C21   C     C_R   0.051131 0.415457 0.566997 -0.245254
C22   C     C_R   0.071510 0.438967 0.490045 0.069882
C23   C     C_R   0.450778 0.173274 0.498051 0.065812
C24   C     C_R   0.993943 0.444022 0.408336 0.016254
C25   C     C_R   0.011763 0.431738 0.759317 -0.170888
C26   C     C_R   0.988125 0.406795 0.833960 -0.111253
C27   C     C_R   0.884510 0.323812 0.796806 -0.085234
C28   C     C_R   0.276428 0.534853 0.591491 -0.142125
C29   C     C_R   0.804571 0.264825 0.684841 -0.116868
C30   C     C_R   0.827882 0.289157 0.609880 -0.135910
C31   C     C_R   0.931485 0.373717 0.646542 0.118001
C32   C     C_R   0.660374 0.558286 0.037701 0.167666
C33   C     C_R   0.605144 0.601826 0.985780 0.029337
C34   C     C_R   0.174369 0.461126 0.496916 0.046440
C35   C     C_R   0.573880 0.668481 0.044875 -0.203731
C36   C     C_R   0.570960 0.665303 0.136824 -0.200958
C37   C     C_R   0.598337 0.594735 0.168582 0.030385
C38   C     C_R   0.656515 0.554130 0.127597 0.170168
C39   C     C_3   0.650699 0.444336 0.089909 -0.524483
C40   C     C_R   0.528284 0.276346 0.591751 -0.126063
C41   C     C_3   0.655728 0.449621 0.992314 -0.524575
C42   C     C_R   0.346318 0.876351 0.394575 0.137650
C43   C     C_R   0.397173 0.879723 0.494701 0.029103
C44   C     C_R   0.425173 0.969341 0.592347 -0.207861
C45   C     C_R   0.404177 0.707395 0.407528 -0.155866
C46   C     C_R   0.427731 0.063969 0.591734 -0.205373
C47   C     C_R   0.402969 0.068389 0.493670 0.034889
C48   C     C_R   0.348958 0.969276 0.393774 0.172051
C49   C     C_3   0.361904 0.940992 0.293950 -0.521606
C50   C     C_3   0.357918 0.838890 0.294694 -0.523893
C51   C     C_R   0.018134 0.119663 0.971682 0.139727
C52   C     C_R   0.186912 0.434947 0.406150 -0.109499
C53   C     C_R   0.114754 0.117100 0.015751 0.044973
C54   C     C_R   0.119517 0.024066 0.958063 -0.196063
C55   C     C_R   0.025311 0.930788 0.864855 -0.189639
C56   C     C_R   0.799052 0.494717 0.590461 -0.129633
C57   C     C_R   0.925220 0.929116 0.829769 0.047773
C58   C     C_R   0.923934 0.026301 0.879211 0.127878
C59   C     C_3   0.899026 0.090752 0.825863 -0.475786
C60   C     C_3   0.001064 0.192143 0.926546 -0.498372
C61   C     C_R   0.502966 0.593550 0.804185 -0.131393
C62   C     C_R   0.290534 0.199673 0.194630 -0.139207
C63   C     C_R   0.197520 0.197790 0.131131 0.064998
C64   C     C_R   0.566963 0.475297 0.254081 -0.145313
C65   C     C_R   0.721969 0.814641 0.747556 -0.131168
C66   C     C_R   0.813571 0.722624 0.747508 -0.122723
H1    H     H_    0.148084 0.323009 0.166963 0.104379
H2    H     H_    0.141270 0.643063 0.453932 0.112580
H3    H     H_    0.660133 0.485917 0.833497 0.104136
H4    H     H_    0.880393 0.318878 0.184019 0.115834
H5    H     H_    0.903006 0.374018 0.050683 0.098667
H6    H     H_    0.843589 0.439306 0.348964 0.129571
H7    H     H_    0.110218 0.408258 0.626546 0.132338
H8    H     H_    0.091957 0.497450 0.789839 0.107629
H9    H     H_    0.049979 0.452224 0.920781 0.101174
H10   H     H_    0.866115 0.305048 0.854675 0.095710
H11   H     H_    0.724436 0.200274 0.656095 0.115870
H12   H     H_    0.856531 0.524546 0.675461 0.102999
H13   H     H_    0.765003 0.242197 0.523279 0.111878
H14   H     H_    0.538965 0.711755 0.013322 0.124742
H15   H     H_    0.374564 0.124897 0.321096 0.111615
H16   H     H_    0.533947 0.706198 0.172367 0.126207
H17   H     H_    0.724341 0.448628 0.147641 0.198328
H18   H     H_    0.571235 0.376047 0.064026 0.198090
H19   H     H_    0.732622 0.457828 0.994417 0.194154
H20   H     H_    0.579463 0.384461 0.912255 0.197401
H21   H     H_    0.457562 0.972465 0.671025 0.124623
H22   H     H_    0.462215 0.136747 0.669965 0.126693
H23   H     H_    0.625148 0.449054 0.252289 0.108988
H24   H     H_    0.290209 0.922542 0.220312 0.189902
H25   H     H_    0.442744 0.999072 0.311504 0.197997
H26   H     H_    0.283394 0.761872 0.222109 0.185286
H27   H     H_    0.295659 0.574278 0.676489 0.099560
H28   H     H_    0.436112 0.839352 0.312430 0.200917
H29   H     H_    0.193225 0.019564 0.988835 0.120379
H30   H     H_    0.029740 0.857611 0.827244 0.122670
H31   H     H_    0.903652 0.068279 0.749030 0.205093
H32   H     H_    0.823093 0.091686 0.817270 0.179157
H33   H     H_    0.065417 0.229332 0.908731 0.204253
H34   H     H_    0.701066 0.878742 0.757659 0.101568
H35   H     H_    0.984282 0.251554 0.976597 0.180174
H36   H     H_    0.561449 0.297457 0.677399 0.092698
H37   H     H_    0.124480 0.379262 0.320202 0.111777
H38   H     H_    0.478759 0.653306 0.832252 0.083335
H39   H     H_    0.322386 0.148014 0.165829 0.084076
H40   H     H_    0.340083 0.671114 0.323530 0.104866
H41   H     H_    0.161222 0.696671 0.318882 0.113457
H42   H     H_    0.876519 0.700915 0.757600 0.093144
H43   H     H_    0.440714 0.617352 0.237651 0.092146
H44   H     H_    0.521312 0.853959 0.675504 0.084142
H45   H     H_    0.669083 0.338776 0.321732 0.093458
H46   H     H_    0.044187 0.562622 0.117758 0.096362
N1    N     N_R   0.291070 0.347930 0.293870 -0.039198
N2    N     N_R   0.497240 0.291100 0.443210 -0.040003
N3    N     N_R   0.347890 0.554050 0.556810 -0.040238
N4    N     N_R   0.554050 0.347900 0.556830 -0.037940
N5    N     N_R   0.291070 0.497250 0.443190 -0.041422
N6    N     N_R   0.497240 0.554030 0.706140 -0.038086
N7    N     N_R   0.347890 0.291110 0.293870 -0.038005
N8    N     N_R   0.445950 0.652100 0.443170 -0.037421
N9    N     N_R   0.708930 0.502750 0.556810 -0.039429
N10   N     N_R   0.502760 0.445970 0.293860 -0.040130
N11   N     N_R   0.652110 0.708890 0.706130 -0.041690
N12   N     N_R   0.708930 0.652070 0.706130 -0.041321
N13   N     N_R   0.445950 0.502780 0.293850 -0.039804
N14   N     N_R   0.502760 0.708900 0.556790 -0.037982
N15   N     N_R   0.652110 0.445950 0.443190 -0.036217
N16   N     N_R   0.554050 0.497220 0.706150 -0.038099
Ni1   Ni    Ni4+2 0.369690 0.500010 0.369700 0.214673
Ni2   Ni    Ni4+2 0.630310 0.499990 0.630300 0.214020
Ni3   Ni    Ni4+2 0.500000 0.369720 0.369720 0.206284
Ni4   Ni    Ni4+2 0.500000 0.630280 0.630280 0.207644

loop_
_geom_bond_atom_site_label_1
_geom_bond_atom_site_label_2
_ccdc_geom_bond_type
C25   C31   A    
C2    H43   S    
C6    C45   A    
N11   Ni4   S    
C27   C29   A    
C53   C63   S    
N2    Ni3   S    
C35   C36   A    
C49   H24   S    
C60   H33   S    
C3    N14   A    
N11   N12   A    
C39   C41   S    
C62   H39   S    
C40   N4    A    
C53   C54   A    
C45   H40   S    
C41   H20   S    
C26   C27   A    
C37   C38   A    
N1    Ni1   S    
C18   C24   A    
C7    C56   A    
C36   C37   A    
C39   H18   S    
N9    N15   A    
C30   C31   A    
C52   H37   S    
N8    N14   A    
C10   C17   A    
C23   C40   A    
N15   Ni3   S    
C21   H7    S    
C35   H14   S    
C56   H12   S    
C25   H8    S    
C46   C47   A    
C9    C66   A    
C1    H1    S    
N1    N7    A    
N6    N16   A    
C19   C20   A    
C36   H16   S    
N3    N5    A    
N7    Ni3   S    
C32   C41   S    
C32   C38   A    
C4    C12   A    
C44   H21   S    
N5    Ni1   S    
N9    Ni2   S    
C9    C57   S    
C52   N5    A    
C3    C6    A    
C28   C34   A    
C59   C60   S    
C21   C22   A    
C14   H4    S    
C10   H41   S    
C1    N1    A    
C64   H23   S    
C49   H25   S    
C1    C63   A    
C4    H3    S    
C44   C46   A    
C46   H22   S    
N3    Ni4   S    
C18   H6    S    
C22   C34   S    
C23   C47   S    
C4    N16   A    
N8    Ni1   S    
C61   H38   S    
C5    C7    A    
C50   H28   S    
C5    H45   S    
C25   C26   A    
C40   H36   S    
C13   C24   S    
C16   N2    A    
C28   H27   S    
C51   C53   A    
N4    Ni2   S    
C43   C44   A    
C62   C63   A    
C28   N3    A    
C47   C48   A    
N14   Ni4   S    
C5    N15   A    
C26   H9    S    
C54   H29   S    
N12   Ni2   S    
C51   C58   A    
C42   C48   A    
C62   N7    A    
C8    C64   A    
C30   H13   S    
C45   N8    A    
C50   H26   S    
C48   C49   S    
C42   C50   S    
C16   C23   A    
C7    C19   S    
C6    C43   S    
C55   C57   A    
C59   H31   S    
C66   N12   A    
C8    C37   S    
C27   H10   S    
C17   H46   S    
N10   Ni3   S    
C59   H32   S    
C41   H19   S    
C11   H2    S    
C15   C17   A    
C54   C55   A    
C61   N6    A    
C2    C8    A    
C65   H34   S    
C66   H42   S    
C55   H30   S    
N16   Ni2   S    
N2    N4    A    
C15   H5    S    
C34   C52   A    
C56   N9    A    
N10   N13   A    
C58   C59   S    
C39   H17   S    
C32   C33   A    
C12   C61   A    
C11   C13   A    
C57   C58   A    
C38   C39   S    
C64   N10   A    
C16   H15   S    
C33   C35   A    
C22   C24   A    
C65   N11   A    
C9    C65   A    
N6    Ni4   S    
C10   C11   A    
C29   C30   A    
C2    N13   A    
N13   Ni1   S    
C29   H11   S    
C20   C21   A    
C49   C50   S    
C42   C43   A    
C18   C19   A    
C14   C15   A    
C51   C60   S    
C3    H44   S    
C12   C33   S    
C13   C14   A    
C60   H35   S    
C20   C31   S    
