data_mof_unit_38131.cif
_audit_creation_date              2012-12-11T16:44:13-0500
_audit_creation_method            fapswitch 2.2
_symmetry_space_group_name_H-M    P1
_symmetry_Int_Tables_number       1
_space_group_crystal_system       triclinic
_cell_length_a                    27.160651
_cell_length_b                    7.203656
_cell_length_c                    22.775568
_cell_angle_alpha                 90.001676
_cell_angle_beta                  101.230782
_cell_angle_gamma                 90.000724
_cell_volume                      4370.84339829

loop_
_atom_site_label
_atom_site_type_symbol
_atom_type_description
_atom_site_fract_x
_atom_site_fract_y
_atom_site_fract_z
_atom_type_partial_charge
O1    O     O_R   0.707300 0.594030 0.176840 -0.532427
O2    O     O_R   0.292700 0.405970 0.823160 -0.532931
O3    O     O_R   0.792700 0.094030 0.323160 -0.532427
O4    O     O_R   0.207300 0.905970 0.676840 -0.532932
O5    O     O_R   0.697330 0.262360 0.295660 -0.540184
O6    O     O_R   0.302670 0.737640 0.704340 -0.540192
O7    O     O_R   0.802670 0.762360 0.204340 -0.540183
O8    O     O_R   0.197330 0.237640 0.795660 -0.540193
C1    C     C_R   0.684824 0.432162 0.311918 0.681842
C2    C     C_R   0.315225 0.567852 0.688214 0.682132
C3    C     C_R   0.815176 0.932161 0.188083 0.681837
C4    C     C_R   0.184775 0.067853 0.811786 0.682126
O9    O     O_R   0.701410 0.264250 0.175600 -0.535452
O10   O     O_R   0.298590 0.735750 0.824400 -0.534443
O11   O     O_R   0.798590 0.764250 0.324400 -0.535449
O12   O     O_R   0.201410 0.235750 0.675600 -0.534439
O13   O     O_R   0.796800 0.094950 0.202240 -0.537021
O14   O     O_R   0.203200 0.905050 0.797760 -0.536454
O15   O     O_R   0.703200 0.594950 0.297760 -0.537023
O16   O     O_R   0.296800 0.405050 0.702240 -0.536455
C5    C     C_R   0.689780 0.432512 0.153491 0.684794
C6    C     C_R   0.310215 0.567478 0.846513 0.687419
C7    C     C_R   0.810219 0.932518 0.346508 0.684794
C8    C     C_R   0.189786 0.067472 0.653487 0.687422
O17   O     O_3   0.781290 0.427390 0.258880 -0.371418
O18   O     O_3   0.218710 0.572610 0.741120 -0.373319
O19   O     O_3   0.718710 0.927390 0.241120 -0.371422
O20   O     O_3   0.281290 0.072610 0.758880 -0.373321
V1    V     V_3+5 0.744190 0.152150 0.248350 1.421112
V2    V     V_3+5 0.255810 0.847850 0.751650 1.418371
V3    V     V_3+5 0.755810 0.652150 0.251650 1.421110
V4    V     V_3+5 0.244190 0.347850 0.748350 1.418372
C9    C     C_R   0.154835 0.062357 0.595174 -0.040658
C10   C     C_R   0.845175 0.937560 0.404818 -0.037194
C11   C     C_R   0.345166 0.562391 0.904827 -0.040673
C12   C     C_R   0.654824 0.437526 0.095181 -0.037212
C13   C     C_R   0.139325 0.123100 0.488805 -0.156804
C14   C     C_R   0.860713 0.876313 0.511157 -0.161416
C15   C     C_R   0.360690 0.623368 0.011184 -0.156811
C16   C     C_R   0.639272 0.376046 0.988854 -0.161425
C17   C     C_R   0.172186 0.114771 0.543840 -0.159093
C18   C     C_R   0.827846 0.884748 0.456129 -0.165630
C19   C     C_R   0.327826 0.614970 0.956153 -0.159073
C20   C     C_R   0.672142 0.384550 0.043878 -0.165620
C21   C     C_R   0.103780 0.018687 0.591141 -0.213199
C22   C     C_R   0.896224 0.981357 0.408858 -0.210595
C23   C     C_R   0.396216 0.518628 0.908864 -0.213207
C24   C     C_R   0.603780 0.481417 0.091137 -0.210603
C25   C     C_R   0.069067 0.029278 0.535468 0.086363
C26   C     C_R   0.930949 0.970541 0.464516 0.085252
C27   C     C_R   0.430933 0.529299 0.964533 0.086360
C28   C     C_R   0.569051 0.470521 0.035483 0.085248
C29   C     C_R   0.088179 0.082251 0.484193 0.134051
C30   C     C_R   0.911849 0.917344 0.515779 0.139073
C31   C     C_R   0.411831 0.582436 0.015800 0.134050
C32   C     C_R   0.588141 0.417160 0.984229 0.139075
C33   C     C_R   0.016249 0.991762 0.528855 0.058736
C34   C     C_R   0.983768 0.008029 0.471126 0.056062
C35   C     C_R   0.483748 0.491714 0.971148 0.058737
C36   C     C_R   0.516234 0.508077 0.028870 0.056060
C37   C     C_R   0.005227 0.060578 0.421965 -0.181905
C38   C     C_R   0.994798 0.939073 0.578007 -0.186131
C39   C     C_R   0.494784 0.560785 0.078023 -0.181908
C40   C     C_R   0.505190 0.438866 0.922003 -0.186135
C41   C     C_R   0.056217 0.096386 0.428519 -0.194194
C42   C     C_R   0.943815 0.903132 0.571447 -0.200272
C43   C     C_R   0.443798 0.596659 0.071468 -0.194193
C44   C     C_R   0.556170 0.402860 0.928566 -0.200274
H1    H     H_    0.070800 0.136854 0.389339 0.129083
H2    H     H_    0.929240 0.862494 0.610617 0.123341
H3    H     H_    0.429221 0.637251 0.110642 0.129089
H4    H     H_    0.570738 0.362098 0.889403 0.123341
H5    H     H_    0.907552 0.018787 0.367666 0.098841
H6    H     H_    0.092436 0.981550 0.632349 0.093846
H7    H     H_    0.592459 0.518965 0.132323 0.098855
H8    H     H_    0.407553 0.481371 0.867661 0.093859
H9    H     H_    0.788729 0.848793 0.453459 0.104933
H10   H     H_    0.211315 0.150506 0.546496 0.120350
H11   H     H_    0.711255 0.348517 0.046553 0.104939
H12   H     H_    0.288702 0.650783 0.953493 0.120349
H13   H     H_    0.153879 0.164205 0.449686 0.120515
H14   H     H_    0.846172 0.834959 0.550261 0.114011
H15   H     H_    0.346143 0.664601 0.050296 0.120515
H16   H     H_    0.653806 0.334566 0.949757 0.114010
H17   H     H_    0.983560 0.075976 0.377353 0.129026
H18   H     H_    0.016470 0.923552 0.622612 0.123307
H19   H     H_    0.516456 0.576262 0.122630 0.129029
H20   H     H_    0.483514 0.423266 0.877404 0.123305
C45   C     C_R   0.859213 0.101943 0.116635 -0.133001
C46   C     C_R   0.117528 0.897032 0.851788 -0.141391
C47   C     C_R   0.640787 0.601954 0.383366 -0.133022
C48   C     C_R   0.382472 0.397034 0.648211 -0.141383
H21   H     H_    0.835984 0.222720 0.119212 0.126230
H22   H     H_    0.123549 0.775917 0.825906 0.129441
H23   H     H_    0.664013 0.722739 0.380785 0.126230
H24   H     H_    0.376454 0.275927 0.674097 0.129436
C49   C     C_R   0.894276 0.108983 0.079213 -0.151143
C50   C     C_R   0.080832 0.889066 0.887056 -0.150223
C51   C     C_R   0.605727 0.608993 0.420791 -0.151173
C52   C     C_R   0.419166 0.389065 0.612941 -0.150200
H25   H     H_    0.897571 0.235283 0.054425 0.144364
H26   H     H_    0.059786 0.761667 0.887949 0.145700
H27   H     H_    0.602429 0.735302 0.445576 0.144389
H28   H     H_    0.440216 0.261674 0.612050 0.145682
C53   C     C_R   0.925327 0.956596 0.074041 -0.002761
C54   C     C_R   0.071813 0.041523 0.921885 -0.001347
C55   C     C_R   0.574680 0.456595 0.425970 -0.002724
C56   C     C_R   0.428181 0.541514 0.578109 -0.001393
C57   C     C_R   0.920372 0.792074 0.106879 -0.000406
C58   C     C_R   0.099748 0.207518 0.919885 0.000495
C59   C     C_R   0.579640 0.292062 0.393136 -0.000386
C60   C     C_R   0.400242 0.707498 0.580102 0.000480
C61   C     C_R   0.884546 0.787056 0.144230 -0.212124
C62   C     C_R   0.136346 0.213676 0.883624 -0.206226
C63   C     C_R   0.615461 0.287048 0.355780 -0.212103
C64   C     C_R   0.363647 0.713660 0.616368 -0.206241
H29   H     H_    0.880394 0.661675 0.169064 0.163414
H30   H     H_    0.157707 0.339917 0.881915 0.157958
H31   H     H_    0.619615 0.161654 0.330950 0.163385
H32   H     H_    0.342282 0.839892 0.618073 0.157974
C65   C     C_R   0.853688 0.940836 0.149507 -0.072280
C66   C     C_R   0.145718 0.059357 0.849507 -0.071163
C67   C     C_R   0.646314 0.440838 0.350496 -0.072271
C68   C     C_R   0.354280 0.559353 0.650491 -0.071162
C69   C     C_R   0.947706 0.980408 0.972641 -0.103010
C70   C     C_R   0.049647 0.016457 0.023614 -0.082553
C71   C     C_R   0.552305 0.480858 0.527364 -0.103121
C72   C     C_R   0.450341 0.516029 0.476391 -0.082678
H33   H     H_    0.908340 0.966883 0.952412 0.106600
H34   H     H_    0.089003 0.030338 0.043840 0.103434
H35   H     H_    0.591679 0.467676 0.547592 0.106600
H36   H     H_    0.410976 0.529577 0.456165 0.103425
C73   C     C_R   0.983141 0.000139 0.935835 -0.105316
C74   C     C_R   0.014249 0.994882 0.060416 -0.083118
C75   C     C_R   0.516867 0.500582 0.564167 -0.105210
C76   C     C_R   0.485743 0.494456 0.439593 -0.083028
H37   H     H_    0.970640 0.001874 0.887684 0.106389
H38   H     H_    0.026700 0.993032 0.108572 0.102346
H39   H     H_    0.529374 0.502657 0.612315 0.106387
H40   H     H_    0.473284 0.492270 0.391439 0.102352
C77   C     C_R   0.034328 0.019903 0.961030 0.120128
C78   C     C_R   0.963022 0.976551 0.035167 0.122358
C79   C     C_R   0.465668 0.519897 0.538969 0.120174
C80   C     C_R   0.536981 0.476553 0.464841 0.122353
C81   C     C_2   0.950801 0.622145 0.102612 0.728780
O21   O     O_2   0.970849 0.597127 0.059626 -0.536582
O22   O     O_R   0.955725 0.487586 0.147678 -0.672884
H41   H     H_    0.977014 0.378156 0.139793 0.299329
C82   C     C_2   0.091332 0.377736 0.953734 0.726974
O23   O     O_2   0.051144 0.404367 0.968936 -0.536425
O24   O     O_R   0.129396 0.510734 0.967203 -0.673876
H42   H     H_    0.119329 0.620431 0.990164 0.300374
C83   C     C_2   0.549226 0.122107 0.397421 0.728726
O25   O     O_2   0.529227 0.097017 0.440443 -0.536582
O26   O     O_R   0.544265 0.987601 0.352333 -0.672871
H43   H     H_    0.522991 0.878145 0.360234 0.299357
C84   C     C_2   0.408646 0.877687 0.546235 0.727028
O27   O     O_2   0.448818 0.904270 0.530988 -0.536414
O28   O     O_R   0.370587 0.010712 0.532796 -0.673886
H44   H     H_    0.380647 0.120389 0.509820 0.300345

loop_
_geom_bond_atom_site_label_1
_geom_bond_atom_site_label_2
_ccdc_geom_bond_type
O17   V3    S    
C51   H27   S    
O1    C5    A    
C84   O27   D    
O19   V1    S    
C9    C21   A    
C16   H16   S    
O3    C7    A    
O22   H41   S    
C10   C18   A    
O1    V3    S    
C73   H37   S    
C76   H40   S    
C58   C82   S    
O15   V3    S    
C81   O21   D    
C25   C33   A    
C33   C38   A    
C5    C12   S    
C75   H39   S    
C6    C11   S    
C38   H18   S    
C35   C40   A    
C26   C30   A    
C36   C39   A    
C40   C44   A    
O9    V1    S    
C71   C75   A    
C23   H8    S    
C14   C18   A    
C2    C68   S    
C72   C76   A    
C54   C58   A    
O4    C8    A    
C25   C29   A    
C44   H4    S    
C60   C64   A    
C70   H34   S    
C48   H24   S    
O13   V1    S    
O2    V4    S    
O3    V1    S    
C28   C36   A    
C1    O15   A    
C52   H28   S    
C15   C31   A    
C2    O16   A    
C16   C32   A    
O2    C6    A    
O24   H42   S    
C10   C22   A    
C83   O26   S    
C11   C19   A    
C58   C62   A    
C16   C20   A    
C43   H3    S    
C57   C61   A    
C13   C29   A    
C34   C37   A    
O11   C7    A    
C11   C23   A    
C35   C36   A    
O12   C8    A    
C47   C67   A    
C14   H14   S    
C45   H21   S    
C46   C66   A    
C24   H7    S    
C13   H13   S    
C3    C65   S    
O10   V2    S    
C72   H36   S    
C81   O22   S    
C46   H22   S    
O5    V1    S    
C39   C43   A    
C52   C56   A    
C63   C67   A    
C60   C84   S    
C38   C42   A    
C26   C34   A    
O7    V3    S    
C4    C66   S    
C53   C78   S    
O18   V4    S    
C15   C19   A    
C19   H12   S    
C32   C44   A    
C47   H23   S    
O4    V2    S    
C64   H32   S    
C45   C49   A    
C21   H6    S    
O8    V4    S    
O7    C3    A    
O5    C1    A    
C37   C41   A    
C74   C78   A    
C31   C43   A    
O28   H44   S    
C14   C30   A    
C21   C25   A    
C69   C78   A    
O8    C4    A    
C7    C10   S    
O9    C5    A    
C59   C83   S    
C62   H30   S    
C37   H17   S    
C61   H29   S    
O6    V2    S    
C48   C68   A    
C63   H31   S    
C69   H33   S    
O14   V2    S    
C12   C20   A    
C27   C35   A    
C17   H10   S    
C29   C41   A    
C48   C52   A    
C54   C77   S    
O16   V4    S    
C69   C73   A    
C53   C57   A    
C3    O13   A    
C64   C68   A    
C39   H19   S    
C55   C59   A    
C20   H11   S    
C57   C81   S    
C74   H38   S    
C23   C27   A    
O11   V3    S    
C30   C42   A    
O12   V4    S    
C51   C55   A    
C22   C26   A    
C70   C77   A    
C73   C77   A    
C8    C9    S    
C50   C54   A    
C9    C17   A    
O10   C6    A    
C82   O24   S    
C55   C80   S    
C49   C53   A    
C76   C80   A    
C50   H26   S    
C82   O23   D    
C33   C34   A    
C42   H2    S    
C45   C65   A    
C41   H1    S    
O20   V2    S    
C75   C79   A    
C1    C67   S    
C46   C50   A    
C12   C24   A    
C27   C31   A    
C71   C80   A    
C22   H5    S    
C13   C17   A    
C72   C79   A    
C71   H35   S    
O6    C2    A    
C15   H15   S    
C62   C66   A    
C56   C60   A    
C24   C28   A    
C61   C65   A    
C70   C74   A    
C18   H9    S    
C84   O28   S    
C4    O14   A    
O26   H43   S    
C59   C63   A    
C47   C51   A    
C83   O25   D    
C40   H20   S    
C56   C79   S    
C49   H25   S    
C28   C32   A    
