data_mof_unit_44991.cif
_audit_creation_date              2012-12-10T18:08:27-0500
_audit_creation_method            fapswitch 2.2
_symmetry_space_group_name_H-M    P1
_symmetry_Int_Tables_number       1
_space_group_crystal_system       triclinic
_cell_length_a                    12.69345
_cell_length_b                    12.957947
_cell_length_c                    14.178054
_cell_angle_alpha                 91.859386
_cell_angle_beta                  101.726367
_cell_angle_gamma                 83.817517
_cell_volume                      2269.93686332

loop_
_atom_site_label
_atom_site_type_symbol
_atom_type_description
_atom_site_fract_x
_atom_site_fract_y
_atom_site_fract_z
_atom_type_partial_charge
C1    C     C_R   0.440825 0.690261 0.477360 0.915554
C2    C     C_R   0.538120 0.031553 0.468230 0.083527
C3    C     C_R   0.648730 0.992376 0.475864 0.070003
C4    C     C_R   0.501008 0.500613 0.670612 0.867698
C5    C     C_R   0.674859 0.891870 0.439403 0.121807
C6    C     C_R   0.592936 0.825585 0.419550 -0.165944
C7    C     C_R   0.513371 0.127373 0.513409 0.105168
C8    C     C_R   0.703529 0.153812 0.553902 0.070993
C9    C     C_R   0.407177 0.795431 0.435667 -0.215224
C10   C     C_R   0.082425 0.365701 0.344630 -0.309159
C11   C     C_R   0.810222 0.625677 0.619264 0.138868
C12   C     C_1   0.496248 0.500235 0.227304 -0.195648
C13   C     C_R   0.917336 0.653829 0.636767 -0.085298
C14   C     C_R   0.976404 0.629475 0.565237 0.464439
C15   C     C_R   0.955477 0.540656 0.509185 -0.028120
C16   C     C_R   0.559600 0.308195 0.517492 0.852164
C17   C     C_R   0.850041 0.509571 0.493161 0.050792
C18   C     C_R   0.036076 0.482761 0.468751 -0.022458
C19   C     C_R   0.003947 0.412208 0.392725 -0.048437
C20   C     C_R   0.895006 0.388821 0.367564 0.086977
C21   C     C_R   0.821802 0.433830 0.423053 -0.166901
C22   C     C_R   0.148352 0.490386 0.503958 0.524610
C23   C     C_R   0.728933 0.050951 0.526805 -0.245370
C24   C     C_R   0.189557 0.384552 0.373993 0.497824
C25   C     C_R   0.498824 0.499725 0.329360 0.869716
C26   C     C_1   0.502860 0.501356 0.772590 -0.199207
C27   C     C_1   0.502309 0.501541 0.857801 -0.013668
C28   C     C_1   0.500277 0.501372 0.957459 -0.001600
C29   C     C_1   0.498253 0.501067 0.042370 0.007022
C30   C     C_1   0.496386 0.500654 0.142039 -0.005315
C31   C     C_3   0.791933 0.208008 0.618657 -0.387105
C32   C     C_3   0.888715 0.216759 0.570817 -0.340427
C33   C     C_3   0.968945 0.285225 0.630151 -0.851757
C34   C     C_R   0.593802 0.196156 0.532098 -0.183879
C35   C     C_3   0.860246 0.312205 0.285527 -0.442291
C36   C     C_3   0.739555 0.295344 0.262249 -0.363067
C37   C     C_3   0.711863 0.228846 0.171538 -0.857476
C38   C     C_3   0.733922 0.681213 0.680079 -0.345217
C39   C     C_3   0.732700 0.800911 0.683457 -0.396129
C40   C     C_3   0.623787 0.856097 0.695783 -0.888257
C41   C     C_3   0.971129 0.704822 0.730450 -0.461777
C42   C     C_3   0.084556 0.651270 0.771993 -0.268193
C43   C     C_3   0.128726 0.692118 0.872944 -0.910351
C44   C     C_3   0.788339 0.849680 0.427697 -0.409038
C45   C     C_R   0.296865 0.831934 0.401890 0.377944
C46   C     C_3   0.818709 0.891002 0.337413 -0.313637
C47   C     C_3   0.843217 0.004155 0.347444 -0.864588
C48   C     C_3   0.413572 0.149352 0.559835 -0.360012
C49   C     C_3   0.403504 0.064336 0.629676 -0.403452
C50   C     C_3   0.300287 0.087146 0.669604 -0.867580
C51   C     C_3   0.152960 0.972373 0.319904 -0.442187
C52   C     C_3   0.137973 0.954681 0.210387 -0.339974
C53   C     C_3   0.022029 0.985731 0.158463 -0.897098
C54   C     C_R   0.268756 0.935889 0.368149 -0.063070
C55   C     C_R   0.351166 0.004820 0.382341 0.373170
C56   C     C_R   0.457329 0.967521 0.427089 0.014729
C57   C     C_R   0.486298 0.861088 0.427839 -0.123624
H1    H     H_    0.062617 0.314375 0.283363 0.178398
H2    H     H_    0.761123 0.285149 0.643581 0.226446
H3    H     H_    0.820841 0.161390 0.685143 0.184110
H4    H     H_    0.726445 0.269038 0.108073 0.260573
H5    H     H_    0.761544 0.152626 0.179505 0.259572
H6    H     H_    0.625124 0.215465 0.158734 0.260493
H7    H     H_    0.718256 0.256130 0.323410 0.218322
H8    H     H_    0.690094 0.371399 0.249710 0.235390
H9    H     H_    0.880402 0.341540 0.219189 0.217697
H10   H     H_    0.907833 0.235668 0.303279 0.200224
H11   H     H_    0.242468 0.577170 0.584035 0.390329
H12   H     H_    0.744029 0.407026 0.413295 0.209207
H13   H     H_    0.559213 0.839522 0.633477 0.268593
H14   H     H_    0.602570 0.830646 0.763003 0.261961
H15   H     H_    0.629273 0.941049 0.700202 0.249382
H16   H     H_    0.793484 0.826051 0.745043 0.215681
H17   H     H_    0.752471 0.828681 0.617024 0.236929
H18   H     H_    0.651542 0.667631 0.652725 0.286507
H19   H     H_    0.754365 0.650065 0.754362 0.162241
H20   H     H_    0.040890 0.760614 0.578816 0.326520
H21   H     H_    0.132883 0.777230 0.871406 0.262213
H22   H     H_    0.076323 0.675270 0.923286 0.264104
H23   H     H_    0.811608 0.017176 0.546793 0.151519
H24   H     H_    0.211432 0.653581 0.899837 0.262944
H25   H     H_    0.081312 0.566071 0.775411 0.239076
H26   H     H_    0.141725 0.665975 0.725519 0.273217
H27   H     H_    0.976418 0.788241 0.718367 0.185410
H28   H     H_    0.923460 0.699265 0.787005 0.219489
H29   H     H_    0.768471 0.056627 0.348303 0.278425
H30   H     H_    0.905053 0.015829 0.413420 0.247938
H31   H     H_    0.875434 0.025689 0.284889 0.240318
H32   H     H_    0.892345 0.843038 0.323900 0.216197
H33   H     H_    0.752799 0.882167 0.273685 0.218171
H34   H     H_    0.612267 0.747104 0.395321 0.178304
H35   H     H_    0.850431 0.863171 0.492814 0.180157
H36   H     H_    0.793129 0.763691 0.419981 0.172220
H37   H     H_    0.300002 0.162946 0.708526 0.265058
H38   H     H_    0.295678 0.025347 0.720633 0.254537
H39   H     H_    0.228014 0.088950 0.610153 0.261434
H40   H     H_    0.401570 0.987115 0.593902 0.231433
H41   H     H_    0.474111 0.060917 0.690711 0.227854
H42   H     H_    0.419497 0.221271 0.604571 0.207792
H43   H     H_    0.338018 0.163522 0.505335 0.250966
H44   H     H_    0.165246 0.774027 0.339007 0.334532
H45   H     H_    0.928688 0.363851 0.640848 0.264696
H46   H     H_    0.267566 0.114617 0.297707 0.355270
H47   H     H_    0.995706 0.067221 0.176654 0.260447
H48   H     H_    0.016993 0.979365 0.079415 0.253737
H49   H     H_    0.967308 0.932617 0.178415 0.261064
H50   H     H_    0.192614 0.000508 0.180751 0.229373
H51   H     H_    0.159593 0.871426 0.194472 0.221366
H52   H     H_    0.094117 0.931721 0.349141 0.226806
H53   H     H_    0.131669 0.055295 0.336974 0.200554
H54   H     H_    0.329423 0.323548 0.358634 0.394277
H55   H     H_    0.003336 0.250010 0.701645 0.255983
H56   H     H_    0.036050 0.292538 0.592096 0.250813
H57   H     H_    0.932281 0.138835 0.563438 0.203685
H58   H     H_    0.859757 0.248288 0.497602 0.238703
N1    N     N_R   0.222200 0.444680 0.454480 -0.205100
N2    N     N_R   0.776970 0.554780 0.545050 -0.139555
O1    O     O_R   0.366740 0.627160 0.478260 -0.549134
O2    O     O_3   0.050155 0.692871 0.545519 -0.737160
O3    O     O_3   0.219562 0.764106 0.399593 -0.719529
O4    O     O_3   0.335400 0.104441 0.346076 -0.786784
O5    O     O_3   0.258928 0.342290 0.317047 -0.745194
O6    O     O_R   0.544830 0.662520 0.507340 -0.640866
O7    O     O_R   0.410930 0.482320 0.611740 -0.596806
O8    O     O_R   0.589030 0.517680 0.640820 -0.626558
O9    O     O_R   0.455170 0.337480 0.492660 -0.635249
O10   O     O_R   0.633260 0.372840 0.521740 -0.618562
O11   O     O_R   0.410970 0.482320 0.359180 -0.564946
O12   O     O_R   0.589070 0.517680 0.388260 -0.630652
O13   O     O_3   0.183445 0.536403 0.591594 -0.763086
Zn1   Zn    Zn3+2 0.381090 0.476390 0.480580 0.971182
Zn2   Zn    Zn3+2 0.618910 0.523610 0.519420 0.888871

loop_
_geom_bond_atom_site_label_1
_geom_bond_atom_site_label_2
_ccdc_geom_bond_type
C15   C18   A    
C55   C56   A    
C55   O4    S    
C9    C45   A    
C40   H14   S    
O6    Zn2   S    
C41   C42   S    
C3    C23   A    
C19   C20   A    
C42   H25   S    
C7    C48   S    
C25   O12   A    
C13   C41   S    
C37   H5    S    
C46   H32   S    
C38   H19   S    
C43   H21   S    
C26   C27   T    
C40   H13   S    
C4    O8    A    
C36   C37   S    
C10   H1    S    
C25   O11   A    
C38   C39   S    
C50   H38   S    
C53   H47   S    
C43   H22   S    
C6    H34   S    
C8    C23   A    
C56   C57   A    
C4    O7    A    
C18   C19   A    
C39   H17   S    
C31   H2    S    
C49   C50   S    
N2    Zn2   S    
O10   Zn2   S    
C44   H36   S    
C16   C34   S    
C49   H41   S    
C54   C55   A    
C20   C35   S    
C53   H49   S    
C2    C7    A    
C52   H50   S    
O1    Zn1   S    
C23   H23   S    
C44   H35   S    
C17   N2    A    
O12   Zn2   S    
C22   N1    A    
C51   H52   S    
C13   C14   A    
C22   O13   S    
H54   O5    S    
H44   O3    S    
C6    C57   A    
C37   H6    S    
C44   C46   S    
C38   H18   S    
C48   H43   S    
C33   H45   S    
C47   H29   S    
C1    C9    S    
C39   C40   S    
C36   H8    S    
C50   H37   S    
C35   H9    S    
C10   C24   A    
C41   H27   S    
C17   C21   A    
C51   C52   S    
O7    Zn1   S    
C21   H12   S    
C35   C36   S    
C47   H30   S    
C31   H3    S    
C11   C38   S    
C1    O6    A    
C29   C30   S    
H20   O2    S    
C4    C26   S    
C31   C32   S    
C35   H10   S    
C10   C19   A    
C24   O5    S    
C33   H55   S    
C8    C34   A    
H11   O13   S    
C45   O3    S    
C48   C49   S    
C5    C44   S    
C45   C54   A    
C24   N1    A    
C51   H53   S    
C43   H24   S    
C7    C34   A    
C42   C43   S    
H46   O4    S    
O11   Zn1   S    
C52   C53   S    
C15   C17   A    
C48   H42   S    
C46   C47   S    
C28   C29   T    
C40   H15   S    
C12   C30   T    
C18   C22   A    
C8    C31   S    
C42   H26   S    
C3    C5    A    
C37   H4    S    
C46   H33   S    
C41   H28   S    
C33   H56   S    
C12   C25   S    
C51   C54   S    
C32   C33   S    
C2    C3    A    
C2    C56   A    
C47   H31   S    
C11   C13   A    
O8    Zn2   S    
C50   H39   S    
C5    C6    A    
N1    Zn1   S    
O9    Zn1   S    
C9    C57   A    
C1    O1    A    
C39   H16   S    
C32   H58   S    
C16   O10   A    
C49   H40   S    
C53   H48   S    
C20   C21   A    
C52   H51   S    
C14   O2    S    
C27   C28   S    
C14   C15   A    
C32   H57   S    
C36   H7    S    
C16   O9    A    
C11   N2    A    
