data_mof_unit_67403.cif
_audit_creation_date              2013-03-05T15:39:48-0500
_audit_creation_method            fapswitch 2.2
_symmetry_space_group_name_H-M    P1
_symmetry_Int_Tables_number       1
_space_group_crystal_system       triclinic
_cell_length_a                    12.06928
_cell_length_b                    12.589179
_cell_length_c                    7.499299
_cell_angle_alpha                 89.99487
_cell_angle_beta                  108.381437
_cell_angle_gamma                 90.003017
_cell_volume                      1081.32361455

loop_
_atom_site_label
_atom_site_type_symbol
_atom_site_description
_atom_site_fract_x
_atom_site_fract_y
_atom_site_fract_z
_atom_type_partial_charge
O1    O     O_R   0.398880 0.887420 0.621600 -0.547382
O2    O     O_R   0.601120 0.112580 0.378400 -0.547390
O3    O     O_R   0.601120 0.887420 0.378400 -0.512268
O4    O     O_R   0.398880 0.112580 0.621600 -0.512292
O5    O     O_R   0.898880 0.387420 0.621600 -0.512029
O6    O     O_R   0.101120 0.612580 0.378400 -0.512011
O7    O     O_R   0.101120 0.387420 0.378400 -0.547344
O8    O     O_R   0.898880 0.612580 0.621600 -0.547343
O9    O     O_R   0.369080 0.887420 0.305440 -0.626384
O10   O     O_R   0.630920 0.112580 0.694560 -0.626404
O11   O     O_R   0.630920 0.887420 0.694560 -0.600948
O12   O     O_R   0.369080 0.112580 0.305440 -0.600951
O13   O     O_R   0.869080 0.387420 0.305440 -0.600789
O14   O     O_R   0.130920 0.612580 0.694560 -0.600781
O15   O     O_R   0.130920 0.387420 0.694560 -0.626665
O16   O     O_R   0.869080 0.612580 0.305440 -0.626655
C1    C     C_R   0.345985 0.854375 0.453335 0.845945
C2    C     C_R   0.654014 0.145626 0.546665 0.845945
C3    C     C_R   0.653994 0.854356 0.546724 0.855794
C4    C     C_R   0.346005 0.145643 0.453275 0.855759
C5    C     C_R   0.845996 0.354370 0.453289 0.856013
C6    C     C_R   0.154004 0.645629 0.546710 0.856019
C7    C     C_R   0.153957 0.354317 0.546669 0.846290
C8    C     C_R   0.846042 0.645682 0.453331 0.846291
Cu1   Cu    Cu3+1 0.517640 0.000000 0.687200 1.074990
Cu2   Cu    Cu3+1 0.482360 0.000000 0.312800 1.074998
Cu3   Cu    Cu3+1 0.017640 0.500000 0.687200 1.075275
Cu4   Cu    Cu3+1 0.982360 0.500000 0.312800 1.075278
C9    C     C_2   0.248194 0.214232 0.431258 -0.196727
C10   C     C_2   0.751802 0.785765 0.568741 -0.196739
C11   C     C_2   0.751846 0.214157 0.568380 -0.176129
C12   C     C_2   0.248150 0.785848 0.431623 -0.176131
C13   C     C_2   0.748295 0.714321 0.431519 -0.176050
C14   C     C_2   0.251702 0.285677 0.568481 -0.176025
C15   C     C_2   0.251818 0.714195 0.568634 -0.196603
C16   C     C_2   0.748183 0.285802 0.431361 -0.196597
N1    N     N_2   0.455760 0.000000 0.031460 0.155608
N2    N     N_2   0.544240 1.000000 0.968540 0.155607
N3    N     N_2   0.955760 0.500000 0.031460 0.155626
N4    N     N_2   0.044240 0.500000 0.968540 0.155627
C17   C     C_2   0.641070 0.686433 0.273711 0.388833
H1    H     H_    0.648422 0.663637 0.138376 0.075656
O17   O     O_2   0.545268 0.682690 0.296535 -0.523286
C18   C     C_2   0.358933 0.313566 0.726285 0.388798
H2    H     H_    0.351593 0.336333 0.861649 0.075691
O18   O     O_2   0.454723 0.317344 0.703429 -0.523313
C19   C     C_2   0.359036 0.686016 0.726318 0.347454
H3    H     H_    0.351458 0.661811 0.860838 0.090181
O19   O     O_2   0.455044 0.683417 0.704214 -0.519361
C20   C     C_2   0.640972 0.313968 0.273656 0.347433
H4    H     H_    0.648555 0.338139 0.139124 0.090195
O20   O     O_2   0.544964 0.316593 0.295754 -0.519373
C21   C     C_2   0.141131 0.186334 0.273057 0.347120
H5    H     H_    0.148912 0.162513 0.138475 0.090257
O21   O     O_2   0.045019 0.183543 0.294771 -0.519358
C22   C     C_2   0.858862 0.813659 0.726945 0.347144
H6    H     H_    0.851078 0.837473 0.861524 0.090261
O22   O     O_2   0.954974 0.816456 0.705239 -0.519350
C23   C     C_2   0.859258 0.185847 0.725548 0.388757
H7    H     H_    0.852080 0.161899 0.860367 0.074985
O23   O     O_2   0.955043 0.182951 0.702659 -0.523398
C24   C     C_2   0.140731 0.814175 0.274481 0.388757
H8    H     H_    0.147904 0.838175 0.139691 0.074950
O24   O     O_2   0.044945 0.817033 0.297363 -0.523388
O25   O     O_3   0.357367 0.038723 0.908539 -0.486618
C25   C     C_3   0.263773 0.977002 0.923123 -0.091485
H9    H     H_    0.238279 0.001277 0.046558 0.136427
H10   H     H_    0.283307 0.890370 0.926950 0.137737
H11   H     H_    0.187409 0.991407 0.796614 0.171691
O26   O     O_3   0.642634 0.961278 0.091461 -0.486607
C26   C     C_3   0.736226 0.023000 0.076877 -0.091488
H12   H     H_    0.716692 0.109632 0.073053 0.137714
H13   H     H_    0.761721 0.998728 0.953441 0.136436
H14   H     H_    0.812591 0.008595 0.203385 0.171693
O27   O     O_3   0.857349 0.461311 0.908536 -0.486329
C27   C     C_3   0.763790 0.523088 0.923084 -0.091059
H15   H     H_    0.783373 0.609710 0.926823 0.137220
H16   H     H_    0.738288 0.498881 0.046559 0.136496
H17   H     H_    0.687411 0.508686 0.796598 0.171875
O28   O     O_3   0.142652 0.538685 0.091467 -0.486319
C28   C     C_3   0.236209 0.476905 0.076918 -0.091037
H18   H     H_    0.261711 0.501110 0.953443 0.136491
H19   H     H_    0.216623 0.390283 0.073179 0.137216
H20   H     H_    0.312588 0.491305 0.203403 0.171873

loop_
_geom_bond_atom_site_label_1
_geom_bond_atom_site_label_2
_geom_bond_distance
_ccdc_geom_bond_type
O16   Cu4   1.957962 S    
C25   H10   1.114289 S    
N2    O26   1.344330 S    
O2    C2    1.290326 A    
C17   H1    1.084970 S    
C27   H17   1.109479 S    
C15   C19   1.494534 S    
O4    Cu1   1.964837 S    
C19   O19   1.221631 D    
C5    C16   1.429449 S    
C21   H5    1.084997 S    
C6    C15   1.429448 S    
O11   C3    1.294130 A    
C24   H8    1.084288 S    
C27   H16   1.106676 S    
C25   H11   1.109480 S    
O11   Cu1   1.957962 S    
O6    C6    1.290597 A    
C22   H6    1.084962 S    
C11   C23   1.494373 S    
C24   O24   1.221625 D    
O5    Cu3   1.964792 S    
O6    Cu4   1.964791 S    
N1    O25   1.344329 S    
C20   O20   1.221620 D    
N4    O28   1.344339 S    
O13   Cu4   1.957866 S    
O3    C3    1.290669 A    
O26   C26   1.403401 S    
N3    O27   1.344341 S    
O14   Cu3   1.957864 S    
O15   C7    1.294452 A    
C25   H9    1.106636 S    
C23   H7    1.084342 S    
O16   C8    1.294452 A    
O1    Cu1   1.964792 S    
C17   O17   1.221984 D    
C28   H19   1.114284 S    
C18   O18   1.221967 D    
O9    Cu2   1.957866 S    
C28   H18   1.106670 S    
C4    C9    1.429545 S    
C21   O21   1.221667 D    
C23   O23   1.221650 D    
C12   C15   1.357399 D    
C14   C18   1.494252 S    
C27   H15   1.114286 S    
N3    N4    1.296467 D    
C26   H13   1.106639 S    
Cu4   N3    2.031589 S    
Cu1   Cu2   2.703829 S    
C10   C22   1.494557 S    
C9    C14   1.357370 D    
O7    Cu4   1.964837 S    
O12   Cu2   1.957962 S    
O27   C27   1.403439 S    
N1    N2    1.296467 D    
Cu1   N2    2.031589 S    
O15   Cu3   1.957962 S    
C19   H3    1.084915 S    
Cu3   N4    2.031589 S    
C7    C14   1.429538 S    
O12   C4    1.294128 A    
C20   H4    1.084901 S    
O13   C5    1.294149 A    
O2    Cu2   1.964791 S    
O10   Cu1   1.957864 S    
O9    C1    1.294516 A    
C28   H20   1.109480 S    
C16   C20   1.494533 S    
C18   H2    1.085019 S    
O8    Cu3   1.964837 S    
C10   C13   1.357364 D    
O3    Cu2   1.964837 S    
O28   C28   1.403432 S    
C26   H14   1.109481 S    
Cu2   N1    2.031589 S    
O1    C1    1.290321 A    
C8    C13   1.429538 S    
C13   C17   1.494225 S    
O14   C6    1.294155 A    
C12   C24   1.494376 S    
C26   H12   1.114290 S    
C9    C21   1.494578 S    
O10   C2    1.294513 A    
O7    C7    1.290405 A    
O8    C8    1.290403 A    
C22   O22   1.221650 D    
O4    C4    1.290670 A    
O5    C5    1.290601 A    
O25   C25   1.403398 S    
Cu3   Cu4   2.703829 S    
C1    C12   1.429579 S    
C11   C16   1.357393 D    
C2    C11   1.429578 S    
C3    C10   1.429540 S    
