data_mof_unit_58740.cif
_audit_creation_date              2012-12-10T16:36:51-0500
_audit_creation_method            fapswitch 2.2
_symmetry_space_group_name_H-M    P1
_symmetry_Int_Tables_number       1
_space_group_crystal_system       triclinic
_cell_length_a                    14.105064
_cell_length_b                    16.485126
_cell_length_c                    15.139128
_cell_angle_alpha                 89.909092
_cell_angle_beta                  92.247567
_cell_angle_gamma                 90.136851
_cell_volume                      3517.48487816

loop_
_atom_site_label
_atom_site_type_symbol
_atom_type_description
_atom_site_fract_x
_atom_site_fract_y
_atom_site_fract_z
_atom_type_partial_charge
C1    C     C_R   0.679583 0.844476 0.519122 0.572500
C2    C     C_R   0.960418 0.539164 0.108965 0.225951
C3    C     C_R   0.590192 0.060976 0.127032 0.203607
C4    C     C_R   0.103391 0.455935 0.127199 0.225861
C5    C     C_R   0.581579 0.079233 0.036727 0.411148
C6    C     C_R   0.111438 0.454587 0.035791 0.411571
C7    C     C_2   0.243116 0.215117 0.476905 0.227447
C8    C     C_2   0.238414 0.788630 0.485122 0.256092
C9    C     C_2   0.741990 0.714190 0.478930 0.237434
C10   C     C_2   0.749678 0.278877 0.470218 0.221560
C11   C     C_2   0.751535 0.783366 0.525612 0.356023
C12   C     C_R   0.680094 0.154958 0.520343 0.578692
C13   C     C_2   0.750725 0.217266 0.528426 0.357372
C14   C     C_2   0.251070 0.283049 0.526153 0.365125
C15   C     C_2   0.253301 0.715628 0.522245 0.350453
C16   C     C_R   0.319280 0.155627 0.480870 0.530013
C17   C     C_R   0.318289 0.845184 0.482246 0.532363
C18   C     C_R   0.819025 0.655406 0.481230 0.525173
C19   C     C_R   0.820048 0.343596 0.480013 0.507067
C20   C     C_R   0.519778 0.001102 0.260524 0.576272
C21   C     C_R   0.020527 0.499818 0.260509 0.522507
C22   C     C_R   0.478059 0.999260 0.738763 0.572398
C23   C     C_R   0.179658 0.344579 0.519349 0.564028
C24   C     C_R   0.978843 0.500231 0.738453 0.586368
C25   C     C_R   0.522915 0.009627 0.164292 -0.029539
C26   C     C_R   0.028962 0.499336 0.164093 -0.042833
C27   C     C_R   0.465767 0.994941 0.834049 -0.015340
C28   C     C_R   0.968432 0.502714 0.833348 -0.009426
C29   C     C_R   0.396464 0.928676 0.960862 0.269793
C30   C     C_R   0.886512 0.558271 0.958551 0.302909
C31   C     C_R   0.414203 0.929900 0.869685 0.170384
C32   C     C_R   0.887974 0.539332 0.867409 0.175727
C33   C     C_R   0.514948 0.049077 0.889707 0.366156
C34   C     C_R   0.179991 0.655249 0.518939 0.572511
C35   C     C_R   0.042706 0.476086 0.888558 0.358154
C36   C     C_3   0.297668 0.970899 0.154170 0.065854
C37   C     C_3   0.222706 0.917389 0.195436 -0.227089
C38   C     C_3   0.130977 0.963581 0.208339 -0.504691
C39   C     C_3   0.925953 0.659229 0.175764 0.040737
C40   C     C_3   0.844951 0.710805 0.209102 -0.230791
C41   C     C_3   0.881771 0.790033 0.249622 -0.492921
C42   C     C_3   0.749331 0.081207 0.162432 0.062065
C43   C     C_3   0.790708 0.026117 0.235486 -0.265258
C44   C     C_3   0.894676 0.007212 0.221691 -0.520966
C45   C     C_R   0.516118 0.036986 0.981241 -0.086971
C46   C     C_3   0.155732 0.330849 0.175379 0.040987
C47   C     C_3   0.071210 0.303021 0.228721 -0.270002
C48   C     C_3   0.054321 0.212209 0.218825 -0.474428
C49   C     C_3   0.249772 0.855075 0.950476 0.037237
C50   C     C_3   0.190540 0.930400 0.923551 -0.273256
C51   C     C_3   0.105468 0.906245 0.863797 -0.474726
C52   C     C_3   0.779174 0.669317 0.950997 0.052642
C53   C     C_3   0.859225 0.730088 0.931920 -0.287819
C54   C     C_3   0.818901 0.808009 0.891002 -0.462913
C55   C     C_3   0.443146 0.799400 0.829855 0.017291
C56   C     C_R   0.038865 0.486403 0.979972 -0.094402
C57   C     C_3   0.422055 0.734480 0.759638 -0.221475
C58   C     C_3   0.320719 0.701998 0.762865 -0.365387
C59   C     C_3   0.758378 0.489419 0.788574 0.018420
C60   C     C_3   0.723651 0.494641 0.691684 -0.265433
C61   C     C_3   0.668494 0.418655 0.663275 -0.449719
C62   C     C_3   0.589168 0.665064 0.474411 0.019902
C63   C     C_3   0.585771 0.572909 0.462291 -0.282351
C64   C     C_3   0.501410 0.536022 0.508344 -0.447674
C65   C     C_3   0.607896 0.325253 0.412467 -0.006472
C66   C     C_3   0.528457 0.302563 0.345331 -0.238712
C67   C     C_R   0.453107 0.979583 0.017598 -0.112077
C68   C     C_3   0.439797 0.353679 0.357149 -0.457539
C69   C     C_3   0.083848 0.182158 0.459533 0.005097
C70   C     C_3   0.050067 0.097908 0.430292 -0.278649
C71   C     C_3   0.948124 0.082295 0.456163 -0.457816
C72   C     C_3   0.109538 0.874564 0.488364 -0.023307
C73   C     C_3   0.065479 0.849115 0.575289 -0.252667
C74   C     C_3   0.014190 0.919557 0.617648 -0.438954
C75   C     C_R   0.961101 0.528385 0.016038 -0.100486
C76   C     C_R   0.450756 0.973004 0.110495 0.217428
F1    F     F_    0.639713 0.136696 0.003628 -0.542645
F2    F     F_    0.188914 0.418712 0.002316 -0.538043
F3    F     F_    0.569743 0.107588 0.853832 -0.525271
F4    F     F_    0.118790 0.440518 0.852040 -0.537838
F5    F     F_    0.327659 0.298539 0.581114 -0.624017
F6    F     F_    0.341729 0.690496 0.549091 -0.701090
F7    F     F_    0.830805 0.801239 0.575907 -0.676448
F8    F     F_    0.809617 0.215545 0.601826 -0.636431
H1    H     H_    0.271615 0.991094 0.087780 0.131134
H2    H     H_    0.794054 0.724669 0.153284 0.173627
H3    H     H_    0.806731 0.676339 0.259947 0.220173
H4    H     H_    0.930141 0.777596 0.307746 0.165214
H5    H     H_    0.821157 0.826585 0.271809 0.163935
H6    H     H_    0.920478 0.825374 0.199924 0.137330
H7    H     H_    0.791914 0.137964 0.160991 0.182781
H8    H     H_    0.757108 0.050887 0.097212 0.147767
H9    H     H_    0.784249 0.056124 0.300665 0.209460
H10   H     H_    0.750512 0.968114 0.235601 0.177177
H11   H     H_    0.902375 0.974046 0.158583 0.149632
H12   H     H_    0.308023 0.026597 0.194765 0.146267
H13   H     H_    0.922603 0.968916 0.277101 0.150165
H14   H     H_    0.936976 0.063850 0.220210 0.148747
H15   H     H_    0.220738 0.301062 0.203541 0.164246
H16   H     H_    0.147253 0.309407 0.105794 0.181631
H17   H     H_    0.084782 0.318034 0.299642 0.193632
H18   H     H_    0.005518 0.334493 0.205031 0.154962
H19   H     H_    0.036365 0.196809 0.148736 0.147727
H20   H     H_    0.993795 0.194583 0.259422 0.149200
H21   H     H_    0.118461 0.177847 0.241284 0.183177
H22   H     H_    0.205708 0.818182 0.994665 0.129805
H23   H     H_    0.207575 0.864090 0.152315 0.174472
H24   H     H_    0.260221 0.814562 0.893792 0.179409
H25   H     H_    0.163388 0.959906 0.983201 0.138720
H26   H     H_    0.233072 0.975389 0.887532 0.175349
H27   H     H_    0.129838 0.878646 0.801760 0.157818
H28   H     H_    0.062540 0.960804 0.846565 0.162037
H29   H     H_    0.060023 0.862049 0.898106 0.137654
H30   H     H_    0.730032 0.700131 0.995589 0.136194
H31   H     H_    0.734691 0.655946 0.890873 0.183408
H32   H     H_    0.898879 0.745620 0.994206 0.143177
H33   H     H_    0.909598 0.703824 0.885309 0.178422
H34   H     H_    0.250287 0.894877 0.260649 0.220210
H35   H     H_    0.779658 0.794514 0.827637 0.181358
H36   H     H_    0.877668 0.850653 0.877579 0.156789
H37   H     H_    0.770263 0.837714 0.936949 0.140920
H38   H     H_    0.432719 0.772580 0.896298 0.158646
H39   H     H_    0.519369 0.816731 0.825624 0.118606
H40   H     H_    0.433794 0.760105 0.693082 0.241238
H41   H     H_    0.472309 0.683274 0.770606 0.110446
H42   H     H_    0.306549 0.679013 0.830091 0.144267
H43   H     H_    0.310941 0.651072 0.715491 0.194033
H44   H     H_    0.268906 0.750338 0.744298 0.167700
H45   H     H_    0.144491 0.016594 0.252181 0.155214
H46   H     H_    0.696123 0.487511 0.831350 0.171441
H47   H     H_    0.798069 0.431243 0.798150 0.146854
H48   H     H_    0.677403 0.548697 0.681942 0.160108
H49   H     H_    0.785544 0.501591 0.649020 0.162610
H50   H     H_    0.647268 0.423113 0.592146 0.119620
H51   H     H_    0.603651 0.412300 0.702044 0.188703
H52   H     H_    0.713347 0.363818 0.672953 0.205976
H53   H     H_    0.520702 0.691060 0.449151 0.205154
H54   H     H_    0.594945 0.679535 0.546491 0.129762
H55   H     H_    0.579975 0.558086 0.390684 0.192104
H56   H     H_    0.079405 0.922720 0.239643 0.155792
H57   H     H_    0.652106 0.545675 0.490752 0.161902
H58   H     H_    0.504728 0.551525 0.579795 0.177598
H59   H     H_    0.502771 0.469039 0.501940 0.141966
H60   H     H_    0.433745 0.558735 0.477639 0.219131
H61   H     H_    0.626042 0.390510 0.404529 0.156663
H62   H     H_    0.581238 0.315152 0.480103 0.134390
H63   H     H_    0.553415 0.311564 0.277256 0.211653
H64   H     H_    0.510032 0.237421 0.353575 0.170802
H65   H     H_    0.414007 0.346204 0.425024 0.190389
H66   H     H_    0.382837 0.333820 0.309210 0.171140
H67   H     H_    0.100168 0.984692 0.143712 0.138261
H68   H     H_    0.455442 0.418733 0.345081 0.162341
H69   H     H_    0.028751 0.227517 0.439823 0.159531
H70   H     H_    0.090941 0.182345 0.533310 0.145724
H71   H     H_    0.053822 0.091582 0.357701 0.171889
H72   H     H_    0.097533 0.051872 0.461772 0.150567
H73   H     H_    0.942002 0.088509 0.528755 0.194022
H74   H     H_    0.926397 0.019993 0.436285 0.141828
H75   H     H_    0.899372 0.126040 0.421982 0.165871
H76   H     H_    0.052407 0.898780 0.443159 0.156880
H77   H     H_    0.160671 0.925093 0.500635 0.130430
H78   H     H_    0.960511 0.692060 0.121382 0.106086
H79   H     H_    0.013962 0.799232 0.562040 0.261827
H80   H     H_    0.121872 0.826975 0.622614 0.142883
H81   H     H_    0.063496 0.971379 0.629641 0.133127
H82   H     H_    0.986426 0.899696 0.681828 0.181562
H83   H     H_    0.953368 0.939316 0.574232 0.192960
H84   H     H_    0.979341 0.651232 0.231020 0.123500
O1    O     O_3   0.500000 1.000000 0.500000 -0.469155
O2    O     O_R   0.885830 0.337110 0.539910 -0.504979
O3    O     O_R   0.692160 0.095230 0.468550 -0.558677
O4    O     O_R   0.692160 0.904770 0.468550 -0.546763
O5    O     O_R   0.192160 0.595230 0.468550 -0.522722
O6    O     O_R   0.192160 0.404770 0.468550 -0.541661
O7    O     O_R   0.316720 0.904790 0.427870 -0.558816
O8    O     O_R   0.316720 0.095210 0.427870 -0.549055
O9    O     O_R   0.816720 0.404790 0.427870 -0.543949
O10   O     O_R   0.816720 0.595210 0.427870 -0.544649
O11   O     O_R   0.594900 1.000000 0.310900 -0.529764
O12   O     O_3   0.000000 0.500000 0.500000 -0.477054
O13   O     O_R   0.094900 0.500000 0.310900 -0.506208
O14   O     O_R   0.483090 0.932320 0.697550 -0.532045
O15   O     O_R   0.483090 0.067680 0.697550 -0.468443
O16   O     O_R   0.983090 0.432320 0.697550 -0.494541
O17   O     O_R   0.983090 0.567680 0.697550 -0.528674
O18   O     O_R   0.438930 1.000000 0.294000 -0.534989
O19   O     O_R   0.938930 0.500000 0.294000 -0.507392
O20   O     O_3   0.382709 0.925764 0.149668 -0.492464
O21   O     O_3   0.889011 0.583632 0.146411 -0.475993
O22   O     O_3   0.654950 0.102681 0.181395 -0.521766
O23   O     O_R   0.605310 0.837110 0.563680 -0.571549
O24   O     O_3   0.169695 0.415923 0.181486 -0.512884
O25   O     O_3   0.336808 0.871176 0.998261 -0.525078
O26   O     O_3   0.809401 0.597015 0.995065 -0.496699
O27   O     O_3   0.383077 0.867286 0.814887 -0.558196
O28   O     O_3   0.812770 0.559511 0.810131 -0.582411
O29   O     O_3   0.662157 0.699681 0.424538 -0.610617
O30   O     O_3   0.688150 0.277150 0.396441 -0.585475
O31   O     O_3   0.167913 0.203014 0.416231 -0.631143
O32   O     O_3   0.150310 0.807340 0.445767 -0.616381
O33   O     O_R   0.605310 0.162890 0.563680 -0.521924
O34   O     O_R   0.105310 0.337110 0.563680 -0.546676
O35   O     O_R   0.105310 0.662890 0.563680 -0.572106
O36   O     O_R   0.385830 0.162890 0.539910 -0.492418
O37   O     O_R   0.385830 0.837110 0.539910 -0.516853
O38   O     O_R   0.885830 0.662890 0.539910 -0.502766
Zn1   Zn    Zn3+2 0.493670 0.096680 0.574000 1.026765
Zn2   Zn    Zn3+2 0.493670 0.903320 0.574000 0.943453
Zn3   Zn    Zn3+2 0.993670 0.596680 0.574000 0.956971
Zn4   Zn    Zn3+2 0.993670 0.403320 0.574000 0.990986
Zn5   Zn    Zn3+2 0.617760 0.000000 0.438070 0.948699
Zn6   Zn    Zn3+2 0.117760 0.500000 0.438070 0.972918
Zn7   Zn    Zn3+2 0.394920 1.000000 0.413930 0.918617
Zn8   Zn    Zn3+2 0.894920 0.500000 0.413930 0.931156

loop_
_geom_bond_atom_site_label_1
_geom_bond_atom_site_label_2
_ccdc_geom_bond_type
C66   C68   S    
C46   H15   S    
C59   H46   S    
C58   H44   S    
C51   H28   S    
C47   H17   S    
C54   H36   S    
C24   O16   A    
C33   C45   A    
C73   C74   S    
C4    O24   S    
C41   H5    S    
C1    C11   S    
C2    O21   S    
C32   O28   S    
O4    Zn5   S    
C60   H48   S    
O1    Zn2   S    
C23   O6    A    
C53   C54   S    
C27   C33   A    
C21   O13   A    
C13   F8    S    
C59   H47   S    
C51   H29   S    
C64   H58   S    
O13   Zn6   S    
O6    Zn6   S    
O7    Zn7   S    
C40   H3    S    
C36   C37   S    
C10   C19   S    
C37   H23   S    
C73   H80   S    
C57   H41   S    
C39   O21   S    
C53   H33   S    
C6    F2    S    
C20   C25   S    
O1    Zn5   S    
O18   Zn7   S    
O11   Zn5   S    
C35   F4    S    
C50   H26   S    
C43   H10   S    
O15   Zn1   S    
C42   H7    S    
C40   H2    S    
C39   H84   S    
O12   Zn6   S    
C42   O22   S    
C68   H65   S    
C29   C67   A    
C44   H14   S    
C7    C14   D    
C37   H34   S    
C48   H21   S    
C28   C35   A    
C45   C67   A    
C72   H77   S    
C19   O2    A    
C70   C71   S    
C15   F6    S    
C19   O9    A    
C15   C34   S    
C66   H64   S    
C76   O20   S    
C53   H32   S    
C16   O8    A    
C41   H6    S    
O19   Zn8   S    
C59   C60   S    
C56   C75   A    
C54   H35   S    
C22   O15   A    
O12   Zn3   S    
O34   Zn4   S    
C10   O30   S    
C74   H83   S    
C21   C26   S    
C9    O29   S    
C61   H50   S    
C21   O19   A    
C20   O11   A    
C63   H57   S    
C71   H73   S    
C73   H79   S    
C55   H39   S    
C52   H31   S    
O10   Zn8   S    
C23   O34   A    
C27   C31   A    
C70   H71   S    
C30   C32   A    
C38   H45   S    
C3    C25   A    
C52   O26   S    
C4    C6    A    
C3    O22   S    
C6    C56   A    
C39   C40   S    
C41   H4    S    
C33   F3    S    
C64   H60   S    
C11   F7    S    
C48   H19   S    
C5    C45   A    
C50   H25   S    
C69   H69   S    
C63   C64   S    
C60   C61   S    
C36   O20   S    
C14   C23   S    
C43   C44   S    
C37   C38   S    
C68   H68   S    
C72   O32   S    
O3    Zn5   S    
C44   H13   S    
C36   H12   S    
C47   C48   S    
O2    Zn4   S    
O36   Zn1   S    
C28   C32   A    
C34   O35   A    
C62   C63   S    
C50   C51   S    
O33   Zn1   S    
C2    C26   A    
C12   O33   A    
C62   H54   S    
C39   H78   S    
O12   Zn4   S    
C9    C11   D    
O14   Zn2   S    
C66   H63   S    
C1    O23   A    
C7    C16   S    
C54   H37   S    
C58   H42   S    
C8    C15   D    
C22   C27   S    
C55   C57   S    
C59   O28   S    
C49   C50   S    
O17   Zn3   S    
C8    O32   S    
O5    Zn6   S    
C42   C43   S    
C5    F1    S    
C38   H67   S    
C74   H82   S    
C71   H75   S    
C52   C53   S    
C61   H51   S    
C69   O31   S    
O37   Zn2   S    
C71   H74   S    
C46   H16   S    
C46   C47   S    
C40   C41   S    
C51   H27   S    
C35   C56   A    
O8    Zn7   S    
C63   H55   S    
O9    Zn8   S    
O35   Zn3   S    
C24   C28   S    
C62   O29   S    
C46   O24   S    
C72   C73   S    
C3    C5    A    
C10   C13   D    
O1    Zn1   S    
C4    C26   A    
O16   Zn4   S    
C49   H22   S    
C64   H59   S    
C52   H30   S    
C36   H1    S    
O1    Zn7   S    
C1    O4    A    
C8    C17   S    
C72   H76   S    
C18   O38   A    
C25   C76   A    
O12   Zn8   S    
C29   C31   A    
C34   O5    A    
C70   H72   S    
C57   H40   S    
C31   O27   S    
C30   C75   A    
O38   Zn3   S    
C57   C58   S    
C30   O26   S    
C49   O25   S    
C29   O25   S    
C17   O37   A    
C43   H9    S    
C42   H8    S    
O23   Zn2   S    
C62   H53   S    
C7    O31   S    
C69   C70   S    
C49   H24   S    
C55   H38   S    
C68   H66   S    
C55   O27   S    
C20   O18   A    
C65   O30   S    
C9    C18   S    
C58   H43   S    
C12   C13   S    
C18   O10   A    
C22   O14   A    
C65   C66   S    
C47   H18   S    
C38   H56   S    
C12   O3    A    
C24   O17   A    
C69   H70   S    
C67   C76   A    
C14   F5    S    
C65   H62   S    
C16   O36   A    
C65   H61   S    
C60   H49   S    
C74   H81   S    
C44   H11   S    
C2    C75   A    
C17   O7    A    
C61   H52   S    
C48   H20   S    
