data_mof_unit_30482.cif
_audit_creation_date              2012-12-11T17:04:43-0500
_audit_creation_method            fapswitch 2.2
_symmetry_space_group_name_H-M    P1
_symmetry_Int_Tables_number       1
_space_group_crystal_system       triclinic
_cell_length_a                    17.430704
_cell_length_b                    24.408172
_cell_length_c                    14.947358
_cell_angle_alpha                 89.492445
_cell_angle_beta                  125.35346
_cell_angle_gamma                 90.727371
_cell_volume                      5186.26925808

loop_
_atom_site_label
_atom_site_type_symbol
_atom_type_description
_atom_site_fract_x
_atom_site_fract_y
_atom_site_fract_z
_atom_type_partial_charge
C1    C     C_R   0.853694 0.652309 0.907192 -0.115790
C2    C     C_R   0.044208 0.503887 0.719110 0.042602
C3    C     C_R   0.770300 0.047057 0.262844 0.482813
C4    C     C_R   0.813144 0.373420 0.910662 -0.064406
C5    C     C_R   0.174810 0.362485 0.089464 -0.090365
C6    C     C_R   0.313144 0.873420 0.910662 -0.064407
C7    C     C_R   0.674809 0.862485 0.089464 -0.090368
C8    C     C_R   0.940105 0.651999 0.089611 -0.058960
C9    C     C_R   0.057504 0.653481 0.910427 -0.089456
C10   C     C_R   0.440105 0.151999 0.089611 -0.058962
C11   C     C_R   0.557504 0.153480 0.910427 -0.089456
C12   C     C_R   0.880057 0.683088 0.996830 0.034514
C13   C     C_R   0.560048 0.002410 0.364837 0.099884
C14   C     C_R   0.116373 0.685431 0.002118 0.047392
C15   C     C_R   0.380056 0.183088 0.996830 0.034514
C16   C     C_R   0.616373 0.185431 0.002118 0.047392
C17   C     C_R   0.544208 0.003887 0.719110 0.042601
C18   C     C_R   0.688038 0.499491 0.647543 0.045530
C19   C     C_R   0.325339 0.501329 0.290233 0.001818
C20   C     C_R   0.188037 0.999491 0.647544 0.045527
C21   C     C_R   0.825339 0.001329 0.290233 0.001816
C22   C     C_3   0.524415 0.452107 0.517643 -0.298429
C23   C     C_3   0.494284 0.455540 0.397752 -0.303588
C24   C     C_3   0.024414 0.952107 0.517644 -0.298430
C25   C     C_R   0.143661 0.653665 0.091688 -0.097536
C26   C     C_3   0.994283 0.955540 0.397754 -0.303588
C27   C     C_3   0.453172 0.496308 0.493640 0.574461
C28   C     C_3   0.567457 0.501734 0.430565 0.579251
C29   C     C_3   0.953171 0.996308 0.493640 0.574462
C30   C     C_3   0.067457 0.001734 0.430568 0.579251
C31   C     C_3   0.423748 0.500006 0.375779 -0.031006
C32   C     C_3   0.595794 0.498380 0.547759 -0.034830
C33   C     C_3   0.923747 0.000006 0.375779 -0.031005
C34   C     C_3   0.095793 0.998380 0.547761 -0.034830
C35   C     C_3   0.495407 0.546066 0.405760 -0.158976
C36   C     C_R   0.353694 0.152309 0.907192 -0.115792
C37   C     C_3   0.524628 0.542425 0.525046 -0.177581
C38   C     C_3   0.995407 0.046066 0.405761 -0.158976
C39   C     C_3   0.024627 0.042425 0.525047 -0.177580
C40   C     C_R   0.770655 0.306607 0.106749 0.000969
C41   C     C_R   0.210895 0.293340 0.893197 -0.038947
C42   C     C_R   0.270655 0.806607 0.106749 0.000970
C43   C     C_R   0.710897 0.793341 0.893198 -0.038945
C44   C     C_R   0.746636 0.330486 0.008366 0.084782
C45   C     C_R   0.234044 0.314040 0.992708 0.102440
C46   C     C_R   0.246636 0.830486 0.008366 0.084782
C47   C     C_R   0.643662 0.153665 0.091688 -0.097536
C48   C     C_R   0.734044 0.814039 0.992708 0.102439
C49   C     C_R   0.657257 0.318414 0.912169 -0.125653
C50   C     C_R   0.326118 0.306987 0.087184 -0.149272
C51   C     C_R   0.157257 0.818413 0.912169 -0.125654
C52   C     C_R   0.826117 0.806986 0.087185 -0.149271
C53   C     C_R   0.904225 0.376820 0.094244 -0.004285
C54   C     C_R   0.081981 0.363058 0.906223 -0.065618
C55   C     C_R   0.404225 0.876820 0.094244 -0.004286
C56   C     C_R   0.581981 0.863058 0.906223 -0.065619
C57   C     C_R   0.104848 0.774193 0.911398 -0.133560
C58   C     C_R   0.817040 0.360425 0.003882 0.055860
C59   C     C_R   0.884247 0.768778 0.085966 -0.152992
C60   C     C_R   0.604848 0.274193 0.911399 -0.133561
C61   C     C_R   0.384247 0.268779 0.085964 -0.152992
C62   C     C_R   0.141216 0.743145 0.007521 0.077533
C63   C     C_R   0.849506 0.738529 0.990045 0.090226
C64   C     C_R   0.641217 0.243145 0.007521 0.077533
C65   C     C_R   0.349505 0.238528 0.990044 0.090227
C66   C     C_R   0.216537 0.765269 0.107097 0.040869
C67   C     C_R   0.769070 0.757131 0.890995 0.059148
C68   C     C_R   0.716537 0.265269 0.107097 0.040869
C69   C     C_R   0.165102 0.343554 0.996647 0.091876
C70   C     C_R   0.269067 0.257129 0.890994 0.059149
C71   C     C_3   0.300592 0.738668 0.205861 -0.473173
C72   C     C_3   0.686939 0.726930 0.795033 -0.502609
C73   C     C_3   0.800593 0.238668 0.205860 -0.473174
C74   C     C_3   0.186936 0.226927 0.795037 -0.502613
C75   C     C_3   0.860480 0.282949 0.203364 0.314294
C76   C     C_3   0.123212 0.266506 0.798887 0.338344
C77   C     C_3   0.360480 0.782949 0.203364 0.314293
C78   C     C_3   0.623215 0.766509 0.798883 0.338341
C79   C     C_R   0.090367 0.556661 0.614692 0.069862
C80   C     C_R   0.317040 0.860425 0.003882 0.055861
C81   C     C_R   0.087252 0.555188 0.520808 -0.025866
C82   C     C_R   0.590366 0.056662 0.614691 0.069861
C83   C     C_R   0.587251 0.055188 0.520807 -0.025867
C84   C     C_R   0.089607 0.507273 0.662763 0.054270
C85   C     C_R   0.091896 0.505494 0.478321 0.112724
C86   C     C_R   0.589607 0.007273 0.662763 0.054270
C87   C     C_R   0.591896 0.005494 0.478321 0.112725
C88   C     C_R   0.116634 0.459202 0.636881 -0.150936
C89   C     C_R   0.118048 0.458355 0.544323 -0.120648
C90   C     C_R   0.616634 0.959202 0.636881 -0.150935
C91   C     C_R   0.665102 0.843553 0.996647 0.091877
C92   C     C_R   0.618048 0.958356 0.544324 -0.120647
C93   C     C_3   0.021868 0.603047 0.470125 0.175414
C94   C     C_3   0.027514 0.605827 0.574812 0.185866
C95   C     C_3   0.521865 0.103047 0.470123 0.175414
C96   C     C_3   0.527511 0.105827 0.574809 0.185866
C97   C     C_R   0.046926 0.547207 0.301331 0.026700
C98   C     C_R   0.019725 0.548126 0.753478 -0.088029
C99   C     C_R   0.546926 0.047207 0.301330 0.026700
C100  C     C_R   0.519725 0.048127 0.753479 -0.088031
C101  C     C_R   0.738694 0.454161 0.703971 -0.200382
C102  C     C_R   0.060048 0.502410 0.364837 0.099883
C103  C     C_R   0.269535 0.455327 0.260014 -0.159065
C104  C     C_R   0.238694 0.954160 0.703972 -0.200379
C105  C     C_R   0.769535 0.955327 0.260014 -0.159064
C106  C     C_R   0.047865 0.456012 0.304882 -0.138549
C107  C     C_R   0.010601 0.456985 0.739805 -0.091748
C108  C     C_R   0.547865 0.956012 0.304882 -0.138548
C109  C     C_R   0.510601 0.956985 0.739806 -0.091746
C110  C     C_R   0.738860 0.545823 0.701217 0.456316
C111  C     C_R   0.270300 0.547057 0.262844 0.482813
C112  C     C_R   0.238860 0.045823 0.701218 0.456318
Cl1   Cl    Cl    0.936436 0.254490 0.171511 -0.558823
Cl2   Cl    Cl    0.308521 0.610953 0.328507 -0.699407
Cl3   Cl    Cl    0.222700 0.110675 0.641290 -0.670782
Cl4   Cl    Cl    0.808521 0.110953 0.328507 -0.699408
Cl5   Cl    Cl    0.376311 0.492782 0.536075 -0.606859
Cl6   Cl    Cl    0.648111 0.505180 0.393981 -0.539255
Cl7   Cl    Cl    0.876308 0.992783 0.536074 -0.606860
Cl8   Cl    Cl    0.148112 0.005180 0.393985 -0.539256
Cl9   Cl    Cl    0.053256 0.232862 0.835904 -0.543891
Cl10  Cl    Cl    0.436436 0.754490 0.171513 -0.558823
Cl11  Cl    Cl    0.553255 0.732863 0.835895 -0.543892
Cl12  Cl    Cl    0.905003 0.585591 0.355663 -0.575160
Cl13  Cl    Cl    0.089531 0.665453 0.653974 -0.618059
Cl14  Cl    Cl    0.405000 0.085589 0.355661 -0.575158
Cl15  Cl    Cl    0.589526 0.165454 0.653970 -0.618060
Cl16  Cl    Cl    0.722701 0.610675 0.641290 -0.670780
H1    H     H_    0.824095 0.667709 0.825827 0.171857
H2    H     H_    0.536913 0.577424 0.578946 0.215267
H3    H     H_    0.982888 0.083902 0.357502 0.220793
H4    H     H_    0.036911 0.077424 0.578946 0.215267
H5    H     H_    0.632796 0.338381 0.835209 0.131676
H6    H     H_    0.350091 0.326624 0.163951 0.120763
H7    H     H_    0.132796 0.838381 0.835209 0.131675
H8    H     H_    0.850090 0.826622 0.163953 0.120763
H9    H     H_    0.042790 0.760829 0.833646 0.145153
H10   H     H_    0.949959 0.758397 0.162501 0.128821
H11   H     H_    0.542789 0.260830 0.833646 0.145154
H12   H     H_    0.168971 0.669387 0.171518 0.162390
H13   H     H_    0.449960 0.258398 0.162499 0.128820
H14   H     H_    0.299062 0.741303 0.279034 0.199518
H15   H     H_    0.685060 0.731606 0.719723 0.201371
H16   H     H_    0.799063 0.241303 0.279034 0.199518
H17   H     H_    0.185054 0.231601 0.719725 0.201373
H18   H     H_    0.896173 0.309792 0.276901 0.072160
H19   H     H_    0.083289 0.293035 0.724842 0.060135
H20   H     H_    0.396172 0.809792 0.276902 0.072161
H21   H     H_    0.583294 0.793039 0.724840 0.060133
H22   H     H_    0.124975 0.420969 0.678776 0.116051
H23   H     H_    0.324094 0.167709 0.825827 0.171858
H24   H     H_    0.128829 0.419652 0.518649 0.128265
H25   H     H_    0.624976 0.920969 0.678777 0.116050
H26   H     H_    0.628830 0.919652 0.518650 0.128265
H27   H     H_    0.053462 0.638986 0.456048 0.141979
H28   H     H_    0.959021 0.598519 0.562769 0.157081
H29   H     H_    0.553458 0.138986 0.456045 0.141978
H30   H     H_    0.459018 0.098518 0.562767 0.157082
H31   H     H_    0.066144 0.589247 0.327705 0.096409
H32   H     H_    0.036709 0.590541 0.753353 0.149046
H33   H     H_    0.566144 0.089247 0.327705 0.096408
H34   H     H_    0.668971 0.169387 0.171518 0.162391
H35   H     H_    0.536709 0.090541 0.753353 0.149047
H36   H     H_    0.723359 0.412214 0.675621 0.143965
H37   H     H_    0.293560 0.414104 0.286886 0.135148
H38   H     H_    0.223358 0.912214 0.675621 0.143965
H39   H     H_    0.793560 0.914104 0.286886 0.135148
H40   H     H_    0.066168 0.414505 0.335405 0.113307
H41   H     H_    0.010465 0.416247 0.713226 0.090718
H42   H     H_    0.566168 0.914505 0.335405 0.113307
H43   H     H_    0.510466 0.916247 0.713227 0.090718
H44   H     H_    0.755739 0.365706 0.826530 0.103552
H45   H     H_    0.537981 0.414089 0.565844 0.177825
H46   H     H_    0.225859 0.349487 0.172634 0.106534
H47   H     H_    0.255739 0.865706 0.826530 0.103552
H48   H     H_    0.725858 0.849487 0.172634 0.106534
H49   H     H_    0.982833 0.665770 0.173830 0.100690
H50   H     H_    0.012049 0.667871 0.826737 0.131041
H51   H     H_    0.482833 0.165770 0.173830 0.100690
H52   H     H_    0.512049 0.167871 0.826737 0.131042
H53   H     H_    0.314937 0.697077 0.189419 0.265429
H54   H     H_    0.678693 0.684003 0.813954 0.251158
H55   H     H_    0.814937 0.197076 0.189418 0.265429
H56   H     H_    0.479177 0.420637 0.342487 0.173056
H57   H     H_    0.178692 0.184001 0.813961 0.251157
H58   H     H_    0.929893 0.374499 0.179235 0.096778
H59   H     H_    0.048013 0.351554 0.822273 0.105488
H60   H     H_    0.429893 0.874499 0.179235 0.096779
H61   H     H_    0.548012 0.851554 0.822273 0.105492
H62   H     H_    0.037979 0.914089 0.565846 0.177825
H63   H     H_    0.979178 0.920637 0.342489 0.173056
H64   H     H_    0.482887 0.583902 0.357502 0.220794
N1    N     N_R   0.892620 0.603790 0.941770 -0.045601
N2    N     N_R   0.973690 0.529110 0.793240 -0.041950
N3    N     N_R   0.526310 0.029110 0.206760 -0.057990
N4    N     N_R   0.473690 0.029110 0.793240 -0.041950
N5    N     N_R   0.818570 0.472310 0.793020 -0.072123
N6    N     N_R   0.181430 0.472310 0.206980 -0.066448
N7    N     N_R   0.318570 0.972310 0.793020 -0.072123
N8    N     N_R   0.681430 0.972310 0.206980 -0.066447
N9    N     N_R   0.026930 0.472300 0.207330 -0.055287
N10   N     N_R   0.973070 0.472300 0.792670 -0.045799
N11   N     N_R   0.526930 0.972300 0.207330 -0.055287
N12   N     N_R   0.107380 0.603790 0.058230 -0.055697
N13   N     N_R   0.473070 0.972300 0.792670 -0.045798
N14   N     N_R   0.817960 0.529130 0.792460 -0.088147
N15   N     N_R   0.182040 0.529130 0.207540 -0.089908
N16   N     N_R   0.317960 0.029130 0.792460 -0.088147
N17   N     N_R   0.682040 0.029130 0.207540 -0.089908
N18   N     N_R   0.894850 0.397640 0.943830 -0.046203
N19   N     N_R   0.105150 0.397640 0.056170 -0.047496
N20   N     N_R   0.394850 0.897640 0.943830 -0.046203
N21   N     N_R   0.605150 0.897640 0.056170 -0.047496
N22   N     N_R   0.950040 0.603780 0.055950 -0.050965
N23   N     N_R   0.392620 0.103790 0.941770 -0.045601
N24   N     N_R   0.049960 0.603780 0.944050 -0.057289
N25   N     N_R   0.450040 0.103780 0.055950 -0.050965
N26   N     N_R   0.549960 0.103780 0.944050 -0.057289
N27   N     N_R   0.607380 0.103790 0.058230 -0.055697
N28   N     N_R   0.952270 0.397640 0.058010 -0.045966
N29   N     N_R   0.047730 0.397640 0.941990 -0.051689
N30   N     N_R   0.452270 0.897640 0.058010 -0.045966
N31   N     N_R   0.547730 0.897640 0.941990 -0.051690
N32   N     N_R   0.026310 0.529110 0.206760 -0.057990
Ni1   Ni    Ni4+2 0.934160 0.565860 0.869070 0.261619
Ni2   Ni    Ni4+2 0.065840 0.565860 0.130930 0.242973
Ni3   Ni    Ni4+2 0.434160 0.065860 0.869070 0.261619
Ni4   Ni    Ni4+2 0.565840 0.065860 0.130930 0.242973
Ni5   Ni    Ni4+2 0.067260 0.435560 0.132230 0.255936
Ni6   Ni    Ni4+2 0.932740 0.435560 0.867770 0.253338
Ni7   Ni    Ni4+2 0.567260 0.935560 0.132230 0.255936
Ni8   Ni    Ni4+2 0.432740 0.935560 0.867770 0.253339

loop_
_geom_bond_atom_site_label_1
_geom_bond_atom_site_label_2
_ccdc_geom_bond_type
C44   C49   A    
C3    N17   A    
C72   H15   S    
C83   C87   A    
C35   H64   S    
C53   C58   A    
C108  H42   S    
C55   H60   S    
C5    H46   S    
C71   H53   S    
C74   H17   S    
C96   H30   S    
C95   C96   S    
C93   Cl12  S    
C9    C14   A    
C25   N12   A    
C19   C31   S    
N6    Ni5   S    
N18   N28   A    
C57   C62   A    
N20   N30   A    
N5    Ni6   S    
C43   C78   S    
C29   Cl7   S    
C30   C38   S    
C93   C94   S    
C49   C60   A    
C22   C32   S    
N3    Ni4   S    
C10   H51   S    
C97   H31   S    
N2    Ni1   S    
C35   C37   S    
C24   C26   S    
C108  N11   A    
C8    N22   A    
C3    Cl4   S    
N23   N25   A    
C36   N23   A    
C38   C39   S    
N20   Ni8   S    
C101  N5    A    
C94   Cl13  S    
C6    N20   A    
C6    H47   S    
C65   C70   A    
C14   C62   S    
C99   N3    A    
C2    C107  A    
C4    N18   A    
C37   H2    S    
C98   N2    A    
C67   C72   S    
C42   C46   A    
C100  N4    A    
N4    N13   A    
C22   C27   S    
N7    Ni8   S    
C24   C29   S    
C72   C78   S    
C77   Cl10  S    
C26   C33   S    
C99   H33   S    
C47   H34   S    
C19   C103  A    
C8    H49   S    
C105  N8    A    
C76   H19   S    
C44   C58   S    
C56   C91   A    
C48   C91   S    
N29   Ni6   S    
C70   C74   S    
C5    C69   A    
C51   C57   A    
N8    Ni7   S    
N27   Ni4   S    
C111  Cl2   S    
C4    H44   S    
C43   C48   A    
C97   C102  A    
N21   Ni7   S    
N10   Ni6   S    
C74   H57   S    
C20   C34   S    
C53   N28   A    
N9    Ni5   S    
N4    Ni3   S    
C83   C95   S    
C29   C33   S    
C20   C112  A    
C87   C92   A    
C73   C75   S    
C29   C39   S    
N5    N14   A    
C1    C12   A    
C51   H7    S    
C13   C108  A    
C16   C47   A    
C72   H54   S    
C89   H24   S    
C9    N24   A    
C5    N19   A    
C63   C67   A    
C82   C96   S    
C75   H18   S    
C62   C66   A    
C45   C69   S    
C34   C39   S    
C84   C88   A    
C39   H4    S    
C28   C32   S    
C25   H12   S    
C28   C35   S    
C79   C94   S    
C50   H6    S    
C79   C81   A    
C12   C63   S    
C30   C34   S    
C54   N29   A    
C60   H11   S    
C59   H10   S    
C68   C73   S    
C82   C86   A    
C47   N27   A    
C46   C51   A    
C24   C34   S    
C17   C86   S    
C96   Cl15  S    
N32   Ni2   S    
C103  N6    A    
C106  H40   S    
C109  H43   S    
C13   C99   A    
C1    N1    A    
C53   H58   S    
C43   C67   A    
C52   C59   A    
C61   C65   A    
N19   N29   A    
C81   C93   S    
C11   C16   A    
N15   Ni2   S    
C90   C92   A    
C66   C71   S    
C77   H20   S    
C93   H27   S    
C8    C12   A    
C7    C91   A    
C7    H48   S    
C13   C87   S    
N14   Ni1   S    
C2    C84   S    
N18   Ni6   S    
C57   H9    S    
C110  N14   A    
C32   C37   S    
C90   H25   S    
C109  N13   A    
C78   Cl11  S    
C11   N26   A    
C112  N16   A    
C7    N21   A    
C74   C76   S    
C107  N10   A    
C71   H14   S    
C75   Cl1   S    
N28   Ni5   S    
C61   H13   S    
N17   Ni4   S    
C98   H32   S    
N30   Ni7   S    
C103  H37   S    
N11   Ni7   S    
C54   H59   S    
C55   N30   A    
C27   C31   S    
C86   C90   A    
C6    C80   A    
C52   H8    S    
C104  N7    A    
C31   C35   S    
C59   C63   A    
C3    C21   A    
C23   C28   S    
C76   Cl9   S    
N12   Ni2   S    
C64   C68   A    
N26   Ni3   S    
C71   C77   S    
C22   H45   S    
N31   Ni8   S    
C107  H41   S    
C27   Cl5   S    
C49   H5    S    
C56   H61   S    
C85   C89   A    
N19   Ni5   S    
N1    N22   A    
N6    N15   A    
C95   H29   S    
C88   H22   S    
C101  H36   S    
C18   C110  A    
N13   Ni8   S    
C17   C109  A    
C56   N31   A    
C24   H62   S    
C26   H63   S    
C40   C75   S    
C36   H23   S    
C26   C30   S    
C20   C104  A    
N24   Ni1   S    
C19   C111  A    
N12   N24   A    
N2    N10   A    
C1    H1    S    
N8    N17   A    
C97   N32   A    
C60   C64   A    
C10   C15   A    
C38   H3    S    
N1    Ni1   S    
C23   H56   S    
N16   Ni3   S    
C28   Cl6   S    
C106  N9    A    
C46   C80   S    
C55   C80   A    
N21   N31   A    
C95   Cl14  S    
N26   N27   A    
C79   C84   A    
C54   C69   A    
C30   Cl8   S    
C45   C50   A    
C27   C37   S    
C73   H55   S    
N7    N16   A    
C110  Cl16  S    
C18   C32   S    
C102  C106  A    
C100  H35   S    
N23   Ni3   S    
C14   C25   A    
N22   Ni2   S    
C17   C100  A    
C81   C85   A    
C111  N15   A    
C9    H50   S    
N25   Ni4   S    
C104  H38   S    
C105  H39   S    
C40   C44   A    
C21   C33   S    
C88   C89   A    
C2    C98   A    
C42   C77   S    
C94   H28   S    
C82   C83   A    
C40   C68   A    
C10   N25   A    
C4    C58   A    
C42   C66   A    
C50   C61   A    
C41   C45   A    
C22   C23   S    
C15   C36   A    
C33   C38   S    
C92   H26   S    
C11   H52   S    
C16   C64   S    
N9    N32   A    
C48   C52   A    
C18   C101  A    
C112  Cl3   S    
C21   C105  A    
C85   C102  S    
N3    N11   A    
C78   H21   S    
C23   C31   S    
C41   C70   A    
C41   C76   S    
C73   H16   S    
C15   C65   S    
