data_mof_unit_61104.cif
_audit_creation_date              2012-12-10T17:25:55-0500
_audit_creation_method            fapswitch 2.2
_symmetry_space_group_name_H-M    P1
_symmetry_Int_Tables_number       1
_space_group_crystal_system       triclinic
_cell_length_a                    36.576216
_cell_length_b                    29.338161
_cell_length_c                    21.943618
_cell_angle_alpha                 89.66088
_cell_angle_beta                  126.644652
_cell_angle_gamma                 90.040979
_cell_volume                      18892.736331

loop_
_atom_site_label
_atom_site_type_symbol
_atom_type_description
_atom_site_fract_x
_atom_site_fract_y
_atom_site_fract_z
_atom_type_partial_charge
C1    C     C_R   0.914426 0.000038 0.913944 0.820966
C2    C     C_R   0.085574 0.999925 0.085554 0.914830
C3    C     C_R   0.414433 0.500052 0.913509 0.780107
C4    C     C_R   0.585567 0.499908 0.086506 0.891820
C5    C     C_1   0.820866 0.000163 0.820504 0.024161
C6    C     C_1   0.179129 0.999755 0.179175 0.018518
C7    C     C_1   0.320874 0.500190 0.820191 0.044316
C8    C     C_1   0.679129 0.499762 0.180222 0.012425
C9    C     C_1   0.770588 0.000152 0.770230 0.027832
C10   C     C_1   0.229407 0.999775 0.229538 0.018952
C11   C     C_1   0.270594 0.500175 0.770001 0.035703
C12   C     C_1   0.729406 0.499800 0.230333 0.018400
C13   C     C_1   0.728164 0.000123 0.727803 0.023543
C14   C     C_1   0.271831 0.999818 0.272037 0.017555
C15   C     C_1   0.228170 0.500142 0.727646 0.027596
C16   C     C_1   0.771830 0.499845 0.272591 0.016009
C17   C     C_1   0.677880 0.000079 0.677530 0.017612
C18   C     C_1   0.322117 0.999883 0.322389 0.013466
C19   C     C_1   0.177884 0.500091 0.677453 0.020105
C20   C     C_1   0.822116 0.499904 0.322667 0.012708
C21   C     C_1   0.635454 0.000040 0.635161 -0.168440
C22   C     C_1   0.364543 0.999938 0.364810 -0.170984
C23   C     C_1   0.135457 0.500047 0.635136 -0.166943
C24   C     C_1   0.864543 0.499951 0.364905 -0.171409
C25   C     C_R   0.000057 0.914447 0.499523 0.785162
C26   C     C_R   0.999925 0.085522 0.501996 0.894928
C27   C     C_R   0.500082 0.414448 0.499530 0.892139
C28   C     C_R   0.499891 0.585495 0.502799 0.721793
C29   C     C_R   0.000077 0.997006 0.621193 0.888232
C30   C     C_R   0.000142 0.000030 0.378869 0.852985
C31   C     C_R   0.499875 0.502556 0.620986 0.931038
C32   C     C_R   0.500143 0.499998 0.378878 0.837609
C33   C     C_R   0.500004 0.084290 0.499849 0.787294
C34   C     C_R   0.499995 0.915711 0.500167 0.784648
C35   C     C_R   0.000005 0.584290 0.499853 0.785363
C36   C     C_R   0.999997 0.415715 0.500169 0.786493
C37   C     C_R   0.584285 0.000001 0.584180 0.785769
C38   C     C_R   0.415714 0.999994 0.415815 0.785487
C39   C     C_R   0.084286 0.500003 0.584178 0.785927
C40   C     C_R   0.915714 0.499997 0.415827 0.785111
C41   C     C_1   0.000181 0.863303 0.499733 -0.181820
C42   C     C_1   0.999805 0.136753 0.502129 -0.158646
C43   C     C_1   0.500213 0.363300 0.499626 -0.122387
C44   C     C_1   0.499752 0.636724 0.502340 -0.229683
C45   C     C_R   0.003398 0.999778 0.882620 0.964744
C46   C     C_R   0.995468 0.999820 0.116028 0.881826
C47   C     C_R   0.504518 0.499928 0.883790 0.903539
C48   C     C_R   0.495480 0.499823 0.116049 0.878447
C49   C     C_1   0.000217 0.820885 0.499795 0.025918
C50   C     C_1   0.999785 0.179166 0.501972 0.014523
C51   C     C_1   0.500233 0.320880 0.499623 0.042440
C52   C     C_1   0.499740 0.679138 0.502004 -0.001068
C53   C     C_1   0.000203 0.770606 0.499761 0.024102
C54   C     C_1   0.999807 0.229432 0.501623 0.018370
C55   C     C_1   0.500205 0.270601 0.499582 0.036317
C56   C     C_1   0.499776 0.729408 0.501605 0.007414
C57   C     C_1   0.500162 0.228174 0.499547 0.029342
C58   C     C_1   0.499825 0.771833 0.501266 0.008663
C59   C     C_1   0.000166 0.728178 0.499691 0.019951
C60   C     C_1   0.999846 0.271854 0.501290 0.018220
C61   C     C_1   0.500102 0.177889 0.499534 0.021374
C62   C     C_1   0.499890 0.822116 0.500866 0.008067
C63   C     C_1   0.000107 0.677892 0.499615 0.015066
C64   C     C_1   0.999902 0.322130 0.500883 0.014515
C65   C     C_1   0.500053 0.135459 0.499596 -0.165613
C66   C     C_1   0.499943 0.864544 0.500538 -0.174760
C67   C     C_1   0.000056 0.635462 0.499627 -0.170272
C68   C     C_1   0.999949 0.364555 0.500547 -0.169671
C69   C     C_3   0.951997 0.983291 0.741120 -0.183189
C70   C     C_3   0.048710 0.991734 0.258468 -0.180676
C71   C     C_3   0.962929 0.959144 0.177722 -0.209878
C72   C     C_3   0.016121 0.049099 0.801532 -0.223642
C73   C     C_3   0.519045 0.449348 0.804374 -0.213537
C74   C     C_3   0.548732 0.491862 0.258514 -0.183541
C75   C     C_3   0.463028 0.459074 0.177836 -0.215100
C76   C     C_3   0.452950 0.513919 0.742694 -0.255908
C77   C     C_3   0.948778 0.991552 0.664794 -0.151769
C78   C     C_3   0.051776 0.998159 0.334384 -0.218958
C79   C     C_3   0.970278 0.955665 0.258188 -0.170194
C80   C     C_3   0.024127 0.045033 0.737074 -0.204182
C81   C     C_3   0.521513 0.452830 0.733209 -0.232268
C82   C     C_3   0.551779 0.498292 0.334407 -0.218660
C83   C     C_3   0.470389 0.455587 0.258310 -0.169921
C84   C     C_3   0.448956 0.509209 0.665664 -0.227896
C85   C     C_3   0.040514 0.962129 0.826315 0.757452
C86   C     C_3   0.976986 0.048277 0.190297 0.783760
C87   C     C_3   0.540672 0.537080 0.826201 0.763973
C88   C     C_3   0.476886 0.548242 0.190260 0.788073
C89   C     C_3   0.002848 0.998826 0.813695 -0.220915
C90   C     C_3   0.995991 0.999418 0.184734 -0.284425
C91   C     C_3   0.504426 0.499589 0.815043 -0.282055
C92   C     C_3   0.496001 0.499428 0.184766 -0.284739
C93   C     C_3   0.000760 0.997078 0.690720 -0.328642
C94   C     C_3   0.999781 0.999840 0.309634 -0.278392
C95   C     C_3   0.500179 0.501872 0.690206 -0.277358
C96   C     C_3   0.499781 0.499827 0.309659 -0.273769
C97   C     C_3   0.030532 0.953565 0.744914 0.730775
C98   C     C_3   0.975336 0.046412 0.261537 0.761417
C99   C     C_3   0.532891 0.543065 0.746313 0.730293
C100  C     C_3   0.475214 0.546347 0.261491 0.758451
C101  C     C_1   0.863279 0.000135 0.862887 -0.165472
C102  C     C_1   0.136714 0.999787 0.136713 -0.138938
C103  C     C_1   0.363289 0.500161 0.862511 -0.152038
C104  C     C_1   0.636715 0.499772 0.137855 -0.166018
Cu1   Cu    Cu3+1 1.000000 0.957500 0.000000 0.977992
Cu2   Cu    Cu3+1 1.000000 0.042500 0.000000 1.088331
Cu3   Cu    Cu3+1 0.500000 0.457500 0.000000 1.088585
Cu4   Cu    Cu3+1 0.500000 0.542500 0.000000 1.026307
Cu5   Cu    Cu3+1 0.957500 0.000000 0.457520 0.984952
Cu6   Cu    Cu3+1 0.042500 1.000000 0.542480 1.044446
Cu7   Cu    Cu3+1 0.457500 0.500000 0.457520 1.033948
Cu8   Cu    Cu3+1 0.542500 0.500000 0.542480 1.107701
Cu9   Cu    Cu3+1 0.499970 0.000000 0.437500 0.990376
Cu10  Cu    Cu3+1 0.500030 0.000000 0.562500 0.987840
Cu11  Cu    Cu3+1 0.999970 0.500000 0.437500 0.991098
Cu12  Cu    Cu3+1 0.000030 0.500000 0.562500 0.988393
O1    O     O_R   0.938020 0.964110 0.938040 -0.592996
O2    O     O_R   0.061980 0.035890 0.061960 -0.522735
O3    O     O_R   0.061980 0.964110 0.061960 -0.581424
O4    O     O_R   0.938020 0.035890 0.938040 -0.560701
O5    O     O_R   0.438020 0.464110 0.938040 -0.579625
O6    O     O_R   0.561980 0.535890 0.061960 -0.577167
O7    O     O_R   0.561980 0.464110 0.061960 -0.502488
O8    O     O_R   0.438020 0.535890 0.938040 -0.573311
O9    O     O_R   0.999990 0.964110 0.908840 -0.626183
O10   O     O_R   0.000010 0.035890 0.091160 -0.522496
O11   O     O_R   0.000010 0.964110 0.091160 -0.597367
O12   O     O_R   0.999990 0.035890 0.908840 -0.491148
O13   O     O_R   0.499990 0.464110 0.908840 -0.535450
O14   O     O_R   0.500010 0.535890 0.091160 -0.520472
O15   O     O_R   0.500010 0.464110 0.091160 -0.598596
O16   O     O_R   0.499990 0.535890 0.908840 -0.547998
O17   O     O_R   0.964100 0.938030 0.464100 -0.573041
O18   O     O_R   0.035900 0.061970 0.535900 -0.545102
O19   O     O_R   0.035900 0.938030 0.535900 -0.570845
O20   O     O_R   0.964100 0.061970 0.464100 -0.573773
O21   O     O_R   0.464100 0.438030 0.464100 -0.553089
O22   O     O_R   0.535900 0.561970 0.535900 -0.565224
O23   O     O_R   0.535900 0.438030 0.535900 -0.526255
O24   O     O_R   0.464100 0.561970 0.464100 -0.580569
O25   O     O_R   0.964110 0.000000 0.555280 -0.610962
O26   O     O_R   0.035890 1.000000 0.444720 -0.488957
O27   O     O_R   0.464110 0.500000 0.555280 -0.562533
O28   O     O_R   0.535890 0.500000 0.444720 -0.492923
O29   O     O_R   0.035850 0.000000 0.627010 -0.570219
O30   O     O_R   0.964150 1.000000 0.372990 -0.626009
O31   O     O_R   0.535850 0.500000 0.627010 -0.516853
O32   O     O_R   0.464150 0.500000 0.372990 -0.630289
O33   O     O_R   0.499940 0.061950 0.447200 -0.550013
O34   O     O_R   0.500060 0.938050 0.552800 -0.553797
O35   O     O_R   0.500060 0.061950 0.552800 -0.552861
O36   O     O_R   0.499940 0.938050 0.447200 -0.554804
O37   O     O_R   0.999940 0.561950 0.447200 -0.550592
O38   O     O_R   0.000060 0.438050 0.552800 -0.551355
O39   O     O_R   0.000060 0.561950 0.552800 -0.555189
O40   O     O_R   0.999940 0.438050 0.447200 -0.554202
O41   O     O_R   0.561950 0.000000 0.509180 -0.551560
O42   O     O_R   0.438050 0.000000 0.490820 -0.553009
O43   O     O_R   0.061950 0.500000 0.509180 -0.550563
O44   O     O_R   0.938050 0.500000 0.490820 -0.552813
O45   O     O_R   0.561950 0.000000 0.614710 -0.553040
O46   O     O_R   0.438050 0.000000 0.385290 -0.553294
O47   O     O_R   0.061950 0.500000 0.614710 -0.553214
O48   O     O_R   0.938050 0.500000 0.385290 -0.553851
C105  C     C_2   0.943072 0.933894 0.755002 0.461023
H1    H     H_    0.939758 0.927503 0.800198 0.095781
O49   O     O_2   0.936416 0.901181 0.715704 -0.501577
C106  C     C_2   0.085285 0.022204 0.264113 0.472424
H2    H     H_    0.120343 0.018680 0.314355 0.037462
O50   O     O_2   0.077821 0.048986 0.215256 -0.487629
C107  C     C_2   0.914083 0.970433 0.106605 0.566178
H3    H     H_    0.906498 0.966327 0.050892 0.001465
O51   O     O_2   0.883418 0.984686 0.108480 -0.487955
C108  C     C_2   0.058267 0.071012 0.874415 0.609850
H4    H     H_    0.067507 0.105546 0.870592 0.105254
O52   O     O_2   0.080279 0.052948 0.937100 -0.540261
C109  C     C_2   0.565008 0.431378 0.876118 0.534312
H5    H     H_    0.586007 0.408347 0.870534 0.041782
O53   O     O_2   0.575744 0.435802 0.940094 -0.531565
C110  C     C_2   0.585248 0.522412 0.264112 0.471907
H6    H     H_    0.620319 0.518919 0.314326 0.037818
O54   O     O_2   0.577721 0.549243 0.215270 -0.489356
C111  C     C_2   0.414156 0.470268 0.106714 0.567788
H7    H     H_    0.406569 0.466154 0.051002 0.002455
O55   O     O_2   0.383468 0.484450 0.108585 -0.486807
C112  C     C_2   0.442690 0.563290 0.753543 0.605676
H8    H     H_    0.454341 0.592347 0.738960 0.133851
O56   O     O_2   0.421143 0.571480 0.778564 -0.517734
C113  C     C_2   0.911583 0.006341 0.733324 0.319503
H9    H     H_    0.877259 0.996246 0.686676 0.173770
O57   O     O_2   0.915489 0.032900 0.779350 -0.536944
C114  C     C_2   0.065027 0.944119 0.254537 0.245172
H10   H     H_    0.062568 0.914918 0.281726 0.152604
O58   O     O_2   0.081103 0.937441 0.219866 -0.525044
C115  C     C_2   0.968591 0.911748 0.154506 0.428879
H11   H     H_    0.996853 0.902265 0.154098 0.130682
O59   O     O_2   0.940567 0.881820 0.136652 -0.463195
C116  C     C_2   0.977603 0.083447 0.778482 0.373698
H12   H     H_    0.946552 0.084642 0.721796 0.124388
O60   O     O_2   0.981047 0.111607 0.822605 -0.510711
C117  C     C_2   0.485170 0.412126 0.792674 0.343214
H13   H     H_    0.451003 0.410406 0.742427 0.043866
O61   O     O_2   0.496025 0.381903 0.839435 -0.491526
C118  C     C_2   0.565153 0.444285 0.254679 0.246718
H14   H     H_    0.562801 0.415083 0.281989 0.153523
O62   O     O_2   0.581195 0.437640 0.219947 -0.517799
C119  C     C_2   0.468786 0.411693 0.154699 0.432859
H15   H     H_    0.497086 0.402264 0.154364 0.132219
O63   O     O_2   0.440812 0.381712 0.136860 -0.457051
C120  C     C_2   0.415759 0.485841 0.738227 0.385389
H16   H     H_    0.423503 0.463655 0.784087 0.078289
O64   O     O_2   0.375580 0.490851 0.684970 -0.473719
C121  C     C_2   0.919635 0.033205 0.616434 0.319342
H17   H     H_    0.930589 0.056084 0.591928 0.145832
O65   O     O_2   0.880525 0.038804 0.595124 -0.513651
C122  C     C_2   0.085151 0.961950 0.393895 0.458536
H18   H     H_    0.118623 0.959061 0.406343 0.060577
O66   O     O_2   0.077341 0.937615 0.430059 -0.535285
C123  C     C_2   0.994538 0.912793 0.307929 0.515128
H19   H     H_    0.997613 0.909502 0.360168 0.072140
O67   O     O_2   0.008473 0.880918 0.291625 -0.526243
C124  C     C_2   0.006602 0.088467 0.687778 0.296175
H20   H     H_    0.003893 0.120362 0.709575 0.108302
O68   O     O_2   0.001238 0.090487 0.627636 -0.569215
C125  C     C_2   0.498789 0.410577 0.682088 0.363064
H21   H     H_    0.504951 0.377240 0.708401 0.097656
O69   O     O_2   0.477558 0.411984 0.613228 -0.542806
C126  C     C_2   0.585266 0.462179 0.394012 0.460688
H22   H     H_    0.618759 0.459426 0.406508 0.062923
O70   O     O_2   0.577511 0.437766 0.430170 -0.535403
C127  C     C_2   0.494759 0.412767 0.308130 0.518031
H23   H     H_    0.497858 0.409475 0.360390 0.054925
O71   O     O_2   0.508754 0.380928 0.291868 -0.523712
C128  C     C_2   0.417276 0.469777 0.614404 0.625139
H24   H     H_    0.418187 0.437064 0.636801 0.037212
O72   O     O_2   0.389010 0.474086 0.545574 -0.484084
C129  C     C_2   0.922435 0.953087 0.606823 0.605299
H25   H     H_    0.937832 0.932496 0.586770 0.086298
O73   O     O_2   0.882669 0.945247 0.580234 -0.500280
C130  C     C_2   0.076551 0.042953 0.375573 0.360745
H26   H     H_    0.074185 0.072741 0.343931 0.156461
O74   O     O_2   0.099251 0.046762 0.444616 -0.522283
C131  C     C_2   0.923603 0.949335 0.242884 0.468712
H27   H     H_    0.906683 0.975588 0.251745 0.166374
O75   O     O_2   0.902439 0.913775 0.215707 -0.480138
C132  C     C_2   0.075130 0.047474 0.769580 0.489781
H28   H     H_    0.091109 0.023119 0.756156 0.159843
O76   O     O_2   0.098538 0.080688 0.804574 -0.573240
C133  C     C_2   0.571248 0.448855 0.759389 0.414585
H29   H     H_    0.598821 0.465753 0.810266 0.142833
O77   O     O_2   0.581544 0.426340 0.724859 -0.515517
C134  C     C_2   0.576421 0.543158 0.375468 0.358010
H30   H     H_    0.573966 0.572940 0.343742 0.155812
O78   O     O_2   0.599102 0.547033 0.444498 -0.523711
C135  C     C_2   0.423736 0.449127 0.243037 0.465953
H31   H     H_    0.406765 0.475316 0.251904 0.166987
O79   O     O_2   0.402651 0.413524 0.215896 -0.476563
C136  C     C_2   0.425035 0.551264 0.613560 0.494770
H32   H     H_    0.437146 0.566660 0.584096 0.078692
O80   O     O_2   0.388381 0.564723 0.596642 -0.489492
O81   O     O_3   0.035321 0.919664 0.853713 -0.622362
C137  C     C_3   0.066282 0.909493 0.932491 -0.231428
H33   H     H_    0.081384 0.940023 0.969105 0.189848
H34   H     H_    0.093221 0.885861 0.943271 0.128650
H35   H     H_    0.047619 0.890628 0.950019 0.189418
O82   O     O_3   0.008325 0.082610 0.200467 -0.567645
C138  C     C_3   0.994963 0.129014 0.192567 -0.178721
H36   H     H_    0.016876 0.146224 0.248328 0.195530
H37   H     H_    0.958832 0.134628 0.168414 0.149475
H38   H     H_    0.001360 0.146416 0.154752 0.155726
O83   O     O_3   0.930971 0.058065 0.125736 -0.619852
C139  C     C_3   0.921606 0.073538 0.056702 -0.267432
H39   H     H_    0.948500 0.094164 0.061712 0.196994
H40   H     H_    0.891057 0.095823 0.028359 0.170757
H41   H     H_    0.911974 0.044252 0.018781 0.144877
O84   O     O_3   0.084801 0.982047 0.879042 -0.601761
C140  C     C_3   0.123984 0.955661 0.903709 -0.200174
H42   H     H_    0.143563 0.973356 0.886892 0.199708
H43   H     H_    0.116837 0.920489 0.881510 0.161897
H44   H     H_    0.146428 0.953870 0.966674 0.152769
O85   O     O_3   0.586337 0.520841 0.881391 -0.641895
C141  C     C_3   0.607066 0.531343 0.958671 -0.280121
H45   H     H_    0.583626 0.544315 0.970540 0.191896
H46   H     H_    0.634881 0.556242 0.979202 0.149682
H47   H     H_    0.624524 0.500705 0.994148 0.200501
O86   O     O_3   0.508153 0.582654 0.200410 -0.566408
C142  C     C_3   0.494675 0.629021 0.192443 -0.186015
H48   H     H_    0.516539 0.646262 0.248183 0.194694
H49   H     H_    0.458527 0.634536 0.168271 0.150139
H50   H     H_    0.501035 0.646466 0.154613 0.151982
O87   O     O_3   0.430861 0.557944 0.125658 -0.619541
C143  C     C_3   0.421507 0.573363 0.056607 -0.270869
H51   H     H_    0.448365 0.594064 0.061625 0.197489
H52   H     H_    0.390891 0.595560 0.028129 0.168549
H53   H     H_    0.411989 0.544038 0.018795 0.148534
O88   O     O_3   0.531725 0.578926 0.849491 -0.611137
C144  C     C_3   0.560378 0.616813 0.867420 -0.252506
H54   H     H_    0.545960 0.639515 0.817460 0.199955
H55   H     H_    0.596051 0.608334 0.892988 0.145637
H56   H     H_    0.561087 0.637237 0.910471 0.171359
O89   O     O_3   0.004006 0.912956 0.710012 -0.622221
C145  C     C_3   0.025420 0.870375 0.744347 -0.146295
H57   H     H_    0.006119 0.852259 0.761271 0.228014
H58   H     H_    0.061360 0.872787 0.795045 0.153364
H59   H     H_    0.023913 0.848629 0.701704 0.127967
O90   O     O_3   0.998496 0.086509 0.304317 -0.645780
C146  C     C_3   0.993305 0.100144 0.359772 -0.351942
H60   H     H_    0.026011 0.093909 0.415925 0.209244
H61   H     H_    0.964665 0.083951 0.355449 0.196752
H62   H     H_    0.987165 0.137463 0.354145 0.171334
O91   O     O_3   0.928990 0.045355 0.236838 -0.604790
C147  C     C_3   0.903565 0.086641 0.209188 -0.157360
H63   H     H_    0.923114 0.117199 0.215482 0.154572
H64   H     H_    0.888702 0.092955 0.240073 0.140557
H65   H     H_    0.874540 0.082712 0.148405 0.215469
O92   O     O_3   0.073160 0.950616 0.755301 -0.661569
C148  C     C_3   0.076171 0.921625 0.706905 -0.258736
H66   H     H_    0.042758 0.912872 0.653541 0.174823
H67   H     H_    0.095242 0.890155 0.737936 0.142858
H68   H     H_    0.096852 0.938881 0.691954 0.198300
O93   O     O_3   0.575178 0.539497 0.755120 -0.601340
C149  C     C_3   0.609229 0.572762 0.798204 -0.244326
H69   H     H_    0.596392 0.607252 0.794463 0.146753
H70   H     H_    0.629234 0.575549 0.775383 0.174478
H71   H     H_    0.633713 0.561670 0.858087 0.195840
O94   O     O_3   0.498243 0.586501 0.304250 -0.652740
C150  C     C_3   0.493032 0.600016 0.359754 -0.322157
H72   H     H_    0.525689 0.593668 0.415920 0.218230
H73   H     H_    0.464338 0.583851 0.355291 0.204912
H74   H     H_    0.486969 0.637346 0.354331 0.171290
O95   O     O_3   0.428862 0.545148 0.236738 -0.604031
C151  C     C_3   0.403336 0.586373 0.209022 -0.161321
H75   H     H_    0.422824 0.616998 0.215366 0.153268
H76   H     H_    0.388404 0.592595 0.239820 0.141269
H77   H     H_    0.374357 0.582411 0.148218 0.215138
O96   O     O_3   0.510622 0.586118 0.714209 -0.660410
C152  C     C_3   0.518291 0.608249 0.665180 -0.363189
H78   H     H_    0.485454 0.620289 0.613559 0.167195
H79   H     H_    0.535657 0.587169 0.648085 0.202072
H80   H     H_    0.538147 0.639812 0.692218 0.181312

loop_
_geom_bond_atom_site_label_1
_geom_bond_atom_site_label_2
_ccdc_geom_bond_type
C149  H70   S    
C135  O79   D    
C87   C91   S    
C117  O61   D    
O87   C143  S    
Cu3   O13   S    
C152  H78   S    
C70   C114  S    
O89   C145  S    
C3    O8    A    
C107  O51   D    
C141  H45   S    
C134  O78   D    
C81   C95   S    
C95   C99   S    
C149  H71   S    
C76   C120  S    
O83   C139  S    
C22   C38   S    
C74   C92   S    
C9    C13   T    
C75   C119  S    
C12   C16   T    
C139  H39   S    
C142  H49   S    
O94   C150  S    
C79   C131  S    
Cu6   O29   S    
C25   O17   A    
Cu12  O38   S    
C31   O31   A    
Cu2   O2    S    
C128  O72   D    
Cu4   O8    S    
C41   C49   T    
C126  H22   S    
C110  O54   D    
C63   C67   T    
C121  O65   D    
C2    O2    A    
C5    C101  T    
Cu5   O17   S    
Cu8   O22   S    
C86   C90   S    
C25   C41   S    
Cu1   O11   S    
Cu10  O45   S    
C73   C117  S    
C28   C44   S    
C17   C21   T    
O92   C148  S    
C1    O4    A    
C148  H68   S    
C19   C23   T    
C111  H7    S    
C79   C123  S    
C99   O96   S    
C16   C20   S    
O90   C146  S    
C4    O6    A    
C50   C54   S    
C8    C104  T    
C46   C90   S    
O88   C144  S    
C55   C57   T    
C10   C14   T    
Cu10  O34   S    
C69   C113  S    
C1    C101  S    
C152  H80   S    
Cu7   O21   S    
C3    C103  S    
O96   C152  S    
C36   C68   S    
C57   C61   S    
C59   C63   S    
C85   O84   S    
Cu1   O9    S    
C60   C64   S    
C143  H52   S    
C30   C94   S    
C33   O33   A    
Cu7   O32   S    
C78   C94   S    
C139  H41   S    
C49   C53   S    
C4    C104  S    
C51   C55   S    
C6    C102  T    
C31   O27   A    
C25   O19   A    
C32   O28   A    
C85   C97   S    
C115  H11   S    
C61   C65   T    
C74   C118  S    
O93   C149  S    
C116  O60   D    
Cu9   O41   S    
C80   C93   S    
C20   C24   T    
C3    O5    A    
C134  H30   S    
C69   C77   S    
Cu7   Cu8   S    
C43   C51   T    
C34   C66   S    
C71   C79   S    
C133  H29   S    
C47   O13   A    
C64   C68   T    
C82   C134  S    
C35   O39   A    
C86   O83   S    
C40   O48   A    
O81   C137  S    
C138  H38   S    
C2    C102  S    
Cu11  Cu12  S    
C147  H63   S    
C37   O41   A    
C113  O57   D    
C108  H4    S    
C109  O53   D    
Cu3   Cu4   S    
C48   O15   A    
Cu4   O14   S    
Cu7   O27   S    
C44   C52   T    
C105  O49   D    
C7    C103  T    
C129  H25   S    
C144  H55   S    
C11   C15   T    
C69   C89   S    
C145  H58   S    
C62   C66   T    
C46   O11   A    
C26   O20   A    
C151  H75   S    
C79   C94   S    
C33   O35   A    
C150  H73   S    
C34   O36   A    
C27   O23   A    
C84   C95   S    
C114  O58   D    
C84   C128  S    
C5    C9    S    
C26   O18   A    
C71   C115  S    
C35   C67   S    
C8    C12   S    
C29   O25   A    
C1    O1    A    
C124  O68   D    
C42   C50   T    
C120  O64   D    
C71   C107  S    
Cu6   O18   S    
C93   C97   S    
C26   C42   S    
C132  H28   S    
C18   C22   T    
C35   O37   A    
C138  H36   S    
C137  H33   S    
C141  H46   S    
C87   O88   S    
Cu8   O31   S    
C13   C17   S    
C146  H62   S    
C140  H43   S    
C136  H32   S    
C112  H8    S    
C72   C80   S    
C71   C90   S    
C83   C127  S    
C83   C96   S    
C96   C100  S    
C130  H26   S    
C125  O69   D    
C56   C58   T    
C80   C132  S    
C69   C105  S    
Cu4   O16   S    
C76   C91   S    
C80   C124  S    
O84   C140  S    
C141  H47   S    
C139  H40   S    
C48   C92   S    
C140  H44   S    
C98   O91   S    
C119  O63   D    
Cu5   O25   S    
Cu11  O37   S    
C115  O59   D    
C58   C62   S    
Cu11  O40   S    
Cu12  O47   S    
C151  H77   S    
Cu3   O7    S    
O91   C147  S    
C48   O14   A    
C76   C84   S    
C137  H35   S    
C126  O70   D    
C34   O34   A    
C77   C121  S    
C121  H17   S    
C15   C19   S    
C27   O21   A    
Cu12  O44   S    
C29   O29   A    
C98   O90   S    
C94   C98   S    
C45   O12   A    
C131  H27   S    
Cu2   O12   S    
C117  H13   S    
C73   C81   S    
C148  H67   S    
Cu10  O42   S    
C97   O92   S    
C72   C108  S    
C45   C89   S    
C106  O50   D    
C149  H69   S    
C77   C129  S    
Cu9   O36   S    
Cu1   O1    S    
Cu10  O35   S    
C74   C82   S    
C152  H79   S    
Cu7   O24   S    
C119  H15   S    
C28   O22   A    
C38   O42   A    
Cu4   O6    S    
C123  H19   S    
C85   C89   S    
C146  H60   S    
Cu11  O43   S    
O95   C151  S    
C70   C106  S    
C99   O93   S    
C142  H48   S    
C142  H50   S    
C127  O71   D    
C88   C100  S    
C128  H24   S    
Cu3   O5    S    
C39   O47   A    
C110  H6    S    
C36   O40   A    
C37   O45   A    
Cu9   Cu10  S    
C39   O43   A    
C47   C91   S    
C40   O44   A    
C122  O66   D    
C6    C10   S    
C147  H65   S    
C32   O32   A    
Cu1   Cu2   S    
Cu2   O10   S    
C30   O26   A    
C47   O16   A    
C150  H72   S    
Cu5   Cu6   S    
C29   C93   S    
C138  H37   S    
C75   C83   S    
C82   C126  S    
C31   C95   S    
C77   C93   S    
C147  H64   S    
C113  H9    S    
C86   C98   S    
C108  O52   D    
C72   C116  S    
C27   C43   S    
C21   C37   S    
C109  H5    S    
C83   C135  S    
Cu1   O3    S    
C107  H3    S    
C105  H1    S    
C70   C78   S    
C88   O87   S    
C144  H54   S    
C14   C18   S    
Cu5   O30   S    
C28   O24   A    
C75   C111  S    
C53   C59   T    
C33   C65   S    
C54   C60   T    
C7    C11   S    
C145  H59   S    
C81   C125  S    
C148  H66   S    
C84   C136  S    
C143  H51   S    
C151  H76   S    
C111  O55   D    
O86   C142  S    
Cu11  O48   S    
Cu6   O26   S    
Cu12  O39   S    
Cu9   O46   S    
C88   C92   S    
C45   O9    A    
C131  O75   D    
C100  O94   S    
C116  H12   S    
C81   C133  S    
C73   C109  S    
Cu5   O20   S    
Cu8   O23   S    
Cu6   O19   S    
C70   C90   S    
C30   O30   A    
C87   C99   S    
C36   O38   A    
C100  O95   S    
C132  O76   D    
C133  O77   D    
C82   C96   S    
Cu9   O33   S    
C122  H18   S    
C73   C91   S    
Cu3   O15   S    
C78   C122  S    
C137  H34   S    
O85   C141  S    
C4    O7    A    
C146  H61   S    
C136  O80   D    
C87   O85   S    
C88   O86   S    
C123  O67   D    
C130  O74   D    
C125  H21   S    
C118  H14   S    
C75   C92   S    
C32   C96   S    
C118  O62   D    
C129  O73   D    
C144  H56   S    
C97   O89   S    
C135  H31   S    
C76   C112  S    
C145  H57   S    
C106  H2    S    
C78   C130  S    
Cu2   O4    S    
C46   O10   A    
C143  H53   S    
C85   O81   S    
C150  H74   S    
C2    O3    A    
C114  H10   S    
Cu8   O28   S    
C72   C89   S    
C23   C39   S    
C24   C40   S    
C124  H20   S    
O82   C138  S    
C38   O46   A    
C74   C110  S    
C120  H16   S    
C127  H23   S    
C86   O82   S    
C140  H42   S    
C112  O56   D    
C52   C56   S    
