data_mof_unit_17460.cif
_audit_creation_date              2012-12-10T18:38:09-0500
_audit_creation_method            fapswitch 2.2
_symmetry_space_group_name_H-M    P1
_symmetry_Int_Tables_number       1
_space_group_crystal_system       triclinic
_cell_length_a                    15.19825
_cell_length_b                    13.831119
_cell_length_c                    10.686318
_cell_angle_alpha                 86.840562
_cell_angle_beta                  90.557146
_cell_angle_gamma                 89.311537
_cell_volume                      2242.66046285

loop_
_atom_site_label
_atom_site_type_symbol
_atom_type_description
_atom_site_fract_x
_atom_site_fract_y
_atom_site_fract_z
_atom_type_partial_charge
C1    C     C_R   0.329472 0.499957 0.505475 0.784100
C2    C     C_R   0.670270 0.499712 0.493904 0.784370
C3    C     C_R   0.538718 0.103301 0.598658 -0.286200
C4    C     C_R   0.433510 0.895542 0.438113 -0.272364
C5    C     C_R   0.460541 0.112291 0.401850 -0.284303
C6    C     C_R   0.564450 0.888278 0.566806 -0.299777
C7    C     C_R   0.539420 0.205031 0.595568 0.117263
C8    C     C_R   0.435198 0.793989 0.438466 0.111319
C9    C     C_R   0.460363 0.213741 0.404385 0.112316
C10   C     C_R   0.563291 0.786795 0.565277 0.111533
C11   C     C_R   0.499425 0.054541 0.500744 0.111488
C12   C     C_R   0.499194 0.945156 0.501847 0.117522
C13   C     C_R   0.496670 0.503015 0.258954 0.788853
C14   C     C_R   0.503722 0.497337 0.740722 0.796319
C15   C     C_3   0.489418 0.595504 0.022716 0.026353
C16   C     C_3   0.513463 0.407319 0.975887 0.029101
C17   C     C_3   0.569128 0.553498 0.954432 0.009703
C18   C     C_3   0.433589 0.449186 0.044119 0.009104
C19   C     C_3   0.427521 0.534200 0.944159 -0.252408
C20   C     C_3   0.576021 0.468295 0.054658 -0.255308
C21   C     C_3   0.507061 0.492580 0.877366 -0.085926
C22   C     C_3   0.495114 0.509709 0.121784 -0.087172
C23   C     C_R   0.091706 0.586237 0.485756 -0.213884
C24   C     C_R   0.909060 0.418302 0.506955 -0.213875
C25   C     C_R   0.902166 0.578777 0.407589 -0.220115
C26   C     C_R   0.098104 0.415017 0.452800 -0.218148
C27   C     C_R   0.182072 0.586251 0.511194 -0.017660
C28   C     C_R   0.817982 0.415987 0.515692 -0.036181
C29   C     C_R   0.810571 0.581424 0.420595 -0.013428
C30   C     C_R   0.186526 0.411547 0.488195 0.006606
C31   C     C_R   0.231782 0.499265 0.504510 -0.144763
C32   C     C_R   0.766789 0.498971 0.476038 -0.134386
C33   C     C_R   0.049185 0.501232 0.455779 0.082956
C34   C     C_R   0.951996 0.498601 0.452849 0.084187
Cu1   Cu    Cu3+1 0.500000 0.596430 0.500000 0.944523
Cu2   Cu    Cu3+1 0.500000 0.403570 0.500000 0.948878
H1    H     H_    0.366134 0.560586 0.896022 0.130664
H2    H     H_    0.638403 0.446452 0.103797 0.125750
H3    H     H_    0.053432 0.651328 0.499624 0.130613
H4    H     H_    0.946503 0.356933 0.547297 0.140674
H5    H     H_    0.934927 0.640868 0.363783 0.131332
H6    H     H_    0.065731 0.347937 0.434008 0.125495
H7    H     H_    0.568594 0.063540 0.678138 0.133468
H8    H     H_    0.379769 0.934280 0.390101 0.113045
H9    H     H_    0.430544 0.080084 0.322227 0.125050
H10   H     H_    0.617717 0.921229 0.616198 0.122161
H11   H     H_    0.571923 0.241211 0.669878 0.154174
H12   H     H_    0.383605 0.757120 0.390917 0.113817
H13   H     H_    0.428191 0.256349 0.329256 0.133882
H14   H     H_    0.613896 0.744459 0.615629 0.139194
N1    N     N_R   0.500000 0.258690 0.500000 -0.181877
N2    N     N_R   0.500000 0.741310 0.500000 -0.174699
O1    O     O_R   0.371460 0.581430 0.500010 -0.582760
O2    O     O_R   0.628540 0.418570 0.499990 -0.577443
O3    O     O_R   0.628540 0.581430 0.499990 -0.576832
O4    O     O_R   0.371460 0.418570 0.500010 -0.567827
O5    O     O_R   0.499980 0.581420 0.316850 -0.599990
O6    O     O_R   0.500020 0.418580 0.683150 -0.598913
O7    O     O_R   0.500020 0.581420 0.683150 -0.581123
O8    O     O_R   0.499980 0.418580 0.316850 -0.586254
C35   C     C_R   0.460240 0.699879 0.027306 0.083370
C36   C     C_R   0.475905 0.765073 0.924345 -0.165230
C37   C     C_R   0.443538 0.860067 0.922548 -0.173202
C38   C     C_R   0.392527 0.890166 0.021439 -0.119815
C39   C     C_R   0.372494 0.824568 0.120842 -0.153239
C40   C     C_R   0.405492 0.729548 0.123313 -0.157210
H15   H     H_    0.511764 0.742015 0.844046 0.156094
H16   H     H_    0.456165 0.909496 0.842845 0.128701
H17   H     H_    0.366617 0.963488 0.019399 0.119603
H18   H     H_    0.329849 0.846892 0.194694 0.110232
H19   H     H_    0.385544 0.678592 0.197495 0.135429
C41   C     C_R   0.530673 0.301652 0.955952 0.107587
C42   C     C_R   0.602007 0.251656 0.015899 -0.148622
C43   C     C_R   0.611795 0.151683 0.007829 -0.150124
C44   C     C_R   0.550330 0.100463 0.941095 -0.130871
C45   C     C_R   0.479531 0.149339 0.880876 -0.182055
C46   C     C_R   0.470949 0.249941 0.885601 -0.156227
H20   H     H_    0.649616 0.288608 0.070973 0.116490
H21   H     H_    0.666627 0.113739 0.054547 0.118932
H22   H     H_    0.558021 0.023025 0.935727 0.127621
H23   H     H_    0.432027 0.109187 0.829286 0.131234
H24   H     H_    0.415978 0.287450 0.839037 0.147150
C47   C     C_R   0.652305 0.599154 0.903211 0.101774
C48   C     C_R   0.678496 0.691771 0.934786 -0.172087
C49   C     C_R   0.755623 0.732206 0.886039 -0.144293
C50   C     C_R   0.808450 0.679715 0.807218 -0.113825
C51   C     C_R   0.784443 0.586507 0.777917 -0.139114
C52   C     C_R   0.706768 0.546372 0.825484 -0.146150
H25   H     H_    0.639983 0.733126 0.996942 0.128861
H26   H     H_    0.774683 0.804068 0.910100 0.125301
H27   H     H_    0.868352 0.710847 0.769815 0.120091
H28   H     H_    0.826372 0.545373 0.718815 0.138897
H29   H     H_    0.688775 0.474196 0.801591 0.110965
C53   C     C_R   0.347842 0.405821 0.088908 0.113684
C54   C     C_R   0.276095 0.467864 0.110372 -0.167942
C55   C     C_R   0.192575 0.430250 0.133463 -0.114238
C56   C     C_R   0.179879 0.330446 0.135611 -0.122722
C57   C     C_R   0.251601 0.267958 0.121350 -0.170981
C58   C     C_R   0.335552 0.305357 0.100930 -0.167428
H30   H     H_    0.284135 0.545652 0.105295 0.116042
H31   H     H_    0.137480 0.478564 0.147851 0.132437
H32   H     H_    0.114974 0.301326 0.152119 0.117526
H33   H     H_    0.242306 0.190379 0.127739 0.119989
H34   H     H_    0.390084 0.255419 0.095260 0.139615
C59   C     C_R   0.217497 0.672284 0.569688 0.153612
C60   C     C_R   0.250615 0.662680 0.692925 -0.117506
C61   C     C_R   0.276627 0.744189 0.754388 -0.130406
C62   C     C_R   0.270065 0.835902 0.693350 -0.091343
C63   C     C_R   0.236507 0.846275 0.570991 -0.151407
C64   C     C_R   0.209938 0.764797 0.509213 -0.188767
H35   H     H_    0.253850 0.592215 0.742273 0.094398
H36   H     H_    0.300122 0.736246 0.850206 0.149462
H37   H     H_    0.289933 0.898818 0.741672 0.115347
H38   H     H_    0.230601 0.917425 0.524246 0.119404
H39   H     H_    0.183117 0.773723 0.414961 0.116075
C65   C     C_R   0.782002 0.324870 0.571608 0.145495
C66   C     C_R   0.784534 0.306554 0.702144 -0.178694
C67   C     C_R   0.766452 0.214131 0.754312 -0.131333
C68   C     C_R   0.747788 0.138920 0.676499 -0.135373
C69   C     C_R   0.745409 0.156522 0.546376 -0.153909
C70   C     C_R   0.762113 0.249269 0.493949 -0.103005
H40   H     H_    0.804235 0.362505 0.763061 0.118408
H41   H     H_    0.769294 0.200218 0.854898 0.132254
H42   H     H_    0.735119 0.067035 0.716986 0.116565
H43   H     H_    0.730921 0.098199 0.486184 0.125830
H44   H     H_    0.762606 0.261458 0.392955 0.114511
C71   C     C_R   0.765012 0.673640 0.379255 0.125819
C72   C     C_R   0.697917 0.676368 0.287505 -0.071554
C73   C     C_R   0.653322 0.763421 0.255070 -0.118420
C74   C     C_R   0.679111 0.849209 0.306992 -0.116806
C75   C     C_R   0.747784 0.847784 0.394835 -0.156708
C76   C     C_R   0.789967 0.760369 0.431891 -0.165224
H45   H     H_    0.678325 0.610747 0.244542 0.107558
H46   H     H_    0.597940 0.764545 0.191000 0.137771
H47   H     H_    0.644849 0.916487 0.280826 0.132493
H48   H     H_    0.767140 0.914105 0.436130 0.122932
H49   H     H_    0.841683 0.760092 0.502398 0.121610
C77   C     C_R   0.222728 0.315560 0.533448 0.155076
C78   C     C_R   0.223749 0.237026 0.455768 -0.163044
C79   C     C_R   0.253274 0.145754 0.501826 -0.139550
C80   C     C_R   0.279047 0.131287 0.627241 -0.095698
C81   C     C_R   0.274352 0.207812 0.706889 -0.154951
C82   C     C_R   0.247748 0.299995 0.660070 -0.110215
H50   H     H_    0.200639 0.245976 0.360496 0.134252
H51   H     H_    0.255343 0.086129 0.440447 0.110561
H52   H     H_    0.301585 0.060650 0.663058 0.110258
H53   H     H_    0.290245 0.195415 0.805326 0.120772
H54   H     H_    0.244387 0.358621 0.723130 0.109006

loop_
_geom_bond_atom_site_label_1
_geom_bond_atom_site_label_2
_ccdc_geom_bond_type
C59   C64   A    
C16   C21   S    
C30   C77   S    
Cu1   O1    S    
C66   C67   A    
C42   C43   A    
C74   H47   S    
C9    N1    A    
C66   H40   S    
C4    C8    A    
C10   N2    A    
C72   C73   A    
C56   C57   A    
C13   O8    A    
C68   H42   S    
C62   C63   A    
C15   C19   S    
C14   O7    A    
C3    H7    S    
C50   H27   S    
C41   C46   A    
C36   H15   S    
C47   C48   A    
C46   H24   S    
C14   C21   S    
C2    C32   S    
C19   C21   S    
C1    O4    A    
C5    C11   A    
C29   C32   A    
C3    C7    A    
C2    O3    A    
C6    C12   A    
C30   C31   A    
C23   H3    S    
C13   O5    A    
C60   C61   A    
C27   C59   S    
C57   H33   S    
C57   C58   A    
C1    C31   S    
C17   C20   S    
C65   C66   A    
Cu1   O7    S    
C18   C19   S    
C61   H36   S    
C1    O1    A    
C67   C68   A    
C19   H1    S    
C24   H4    S    
C71   C76   A    
C35   C40   A    
C15   C22   S    
C54   C55   A    
C23   C33   A    
C16   C41   S    
C42   H20   S    
C23   C27   A    
C4    C12   A    
C28   C65   S    
C44   H22   S    
C8    N2    A    
C56   H32   S    
C25   C34   A    
C47   C52   A    
Cu2   O2    S    
C55   H31   S    
C53   C54   A    
C60   H35   S    
C25   C29   A    
C82   H54   S    
C14   O6    A    
C78   C79   A    
C65   C70   A    
Cu1   O3    S    
C28   C32   A    
C9    H13   S    
C45   C46   A    
C75   H48   S    
C2    O2    A    
C25   H5    S    
C54   H30   S    
C4    H8    S    
C76   H49   S    
C49   C50   A    
C5    H9    S    
C24   C34   A    
C37   C38   A    
C17   C47   S    
Cu1   Cu2   S    
C7    H11   S    
C62   H37   S    
C79   H51   S    
C44   C45   A    
C8    H12   S    
C5    C9    A    
C36   C37   A    
Cu2   O4    S    
C20   H2    S    
C78   H50   S    
C26   C33   A    
C40   H19   S    
C16   C20   S    
C55   C56   A    
C33   C34   S    
C15   C35   S    
C38   H17   S    
C48   C49   A    
C68   C69   A    
Cu2   N1    S    
C80   H52   S    
C63   H38   S    
C20   C22   S    
C26   C30   A    
C43   H21   S    
C29   C71   S    
C27   C31   A    
C18   C53   S    
C48   H25   S    
C61   C62   A    
C71   C72   A    
C10   H14   S    
C51   H28   S    
C69   C70   A    
C50   C51   A    
C73   C74   A    
C15   C17   S    
C52   H29   S    
C6    H10   S    
C18   C22   S    
C81   H53   S    
C24   C28   A    
C41   C42   A    
Cu2   O8    S    
C75   C76   A    
C45   H23   S    
C6    C10   A    
C49   H26   S    
C59   C60   A    
C37   H16   S    
Cu2   O6    S    
Cu1   O5    S    
C77   C82   A    
C38   C39   A    
C74   C75   A    
C7    N1    A    
C70   H44   S    
C72   H45   S    
C53   C58   A    
C79   C80   A    
C69   H43   S    
C13   C22   S    
C58   H34   S    
C67   H41   S    
C26   H6    S    
C35   C36   A    
C17   C21   S    
C3    C11   A    
C77   C78   A    
C73   H46   S    
C43   C44   A    
C51   C52   A    
C16   C18   S    
C39   C40   A    
C63   C64   A    
Cu1   N2    S    
C81   C82   A    
C80   C81   A    
C64   H39   S    
C39   H18   S    
C11   C12   S    
