data_mof_unit_52607.cif
_audit_creation_date              2012-10-26T20:37:58-0400
_audit_creation_method            fapswitch 2.2
_symmetry_space_group_name_H-M    P1
_symmetry_Int_Tables_number       1
_space_group_crystal_system       triclinic
_cell_length_a                    9.976408
_cell_length_b                    10.914454
_cell_length_c                    13.122968
_cell_angle_alpha                 89.562191
_cell_angle_beta                  74.776303
_cell_angle_gamma                 110.094183
_cell_volume                      1287.27788086

loop_
_atom_site_label
_atom_site_type_symbol
_atom_type_description
_atom_site_fract_x
_atom_site_fract_y
_atom_site_fract_z
_atom_type_partial_charge
C1    C     C_R   0.440905 0.253474 0.510630 0.564164
C2    C     C_R   0.691793 0.510572 0.999853 0.331925
C3    C     C_R   0.323290 0.492718 0.892446 0.056265
C4    C     C_R   0.674557 0.498605 0.109140 0.049879
C5    C     C_R   0.564929 0.470844 0.858935 0.094953
C6    C     C_R   0.437184 0.528008 0.140236 0.086946
C7    C     C_R   0.566096 0.495528 0.963783 -0.016668
C8    C     C_R   0.436074 0.501595 0.035834 -0.024596
C9    C     C_2   0.413565 0.111902 0.520887 0.110920
C10   C     C_2   0.581284 0.886389 0.498107 0.094484
C11   C     C_2   0.497047 0.066482 0.566202 0.142910
C12   C     C_R   0.557563 0.746079 0.495989 0.589787
C13   C     C_2   0.481374 0.927379 0.568424 0.117588
C14   C     C_2   0.081125 0.515711 0.497777 0.071135
C15   C     C_2   0.918582 0.483873 0.502121 0.079298
C16   C     C_R   0.471635 0.493532 0.703060 0.527473
C17   C     C_R   0.528252 0.505646 0.297042 0.533316
C18   C     C_R   0.546615 0.509286 0.181242 -0.040973
C19   C     C_R   0.453527 0.487983 0.819000 -0.047647
C20   C     C_R   0.308503 0.481510 0.001243 0.336074
Cu1   Cu    Cu3+1 0.647370 0.522180 0.481340 1.099568
Cu2   Cu    Cu3+1 0.352630 0.477820 0.518660 1.073516
H1    H     H_    0.835642 0.395601 0.548073 0.167432
H2    H     H_    0.239990 0.589840 0.807164 0.244528
H3    H     H_    0.913948 0.277423 0.088877 0.368124
H4    H     H_    0.983998 0.668276 0.754759 0.362165
H5    H     H_    0.279627 0.778678 0.621130 0.267401
H6    H     H_    0.402705 0.784304 0.692450 0.223648
H7    H     H_    0.551140 0.106326 0.703053 0.260518
H8    H     H_    0.696620 0.149575 0.593436 0.277071
H9    H     H_    0.777276 0.040724 0.457360 0.276084
H10   H     H_    0.668813 0.030995 0.375135 0.235223
H11   H     H_    0.200105 0.032477 0.517968 0.295538
H12   H     H_    0.164099 0.604255 0.451845 0.164644
H13   H     H_    0.327091 0.054858 0.398847 0.243872
H14   H     H_    0.968839 0.853303 0.281526 0.373908
H15   H     H_    0.035784 0.150612 0.721518 0.368809
H16   H     H_    0.406480 0.676675 0.224764 0.246288
H17   H     H_    0.260375 0.530776 0.260266 0.313071
H18   H     H_    0.593340 0.321705 0.774870 0.251445
H19   H     H_    0.740116 0.466898 0.737656 0.307568
H20   H     H_    0.842312 0.560595 0.177774 0.331375
H21   H     H_    0.744591 0.393714 0.198707 0.237470
H22   H     H_    0.155535 0.421382 0.824535 0.331644
N1    N     N_2   0.131210 0.444490 0.546730 -0.074196
N2    N     N_3   0.301799 0.023657 0.479416 -0.580240
N3    N     N_2   0.868790 0.555510 0.453270 -0.077377
N4    N     N_3   0.342637 0.593688 0.196664 -0.496246
N5    N     N_3   0.658471 0.404772 0.801884 -0.498380
N6    N     N_3   0.789914 0.477683 0.144088 -0.484828
N7    N     N_3   0.202307 0.504921 0.859686 -0.447829
N8    N     N_3   0.361413 0.840010 0.652640 -0.587991
N9    N     N_3   0.589257 0.149277 0.624435 -0.615594
N10   N     N_3   0.706667 0.976664 0.419284 -0.591152
O1    O     O_R   0.578710 0.332530 0.490040 -0.519525
O2    O     O_2   0.086299 0.533742 0.131923 -0.186203
O3    O     O_3   0.001999 0.330166 0.030602 -0.443190
O4    O     O_2   0.988145 0.635765 0.966127 -0.192498
O5    O     O_2   0.903905 0.441944 0.873634 -0.200390
O6    O     O_3   0.889293 0.661550 0.807200 -0.526004
O7    O     O_2   0.040252 0.800287 0.455582 -0.286623
O8    O     O_2   0.118884 0.688683 0.302519 -0.279684
O9    O     O_3   0.899033 0.763467 0.311332 -0.453173
O10   O     O_2   0.878685 0.305197 0.693575 -0.298370
O11   O     O_2   0.972109 0.196843 0.542181 -0.319987
O12   O     O_R   0.421290 0.667470 0.509960 -0.561184
O13   O     O_3   0.103728 0.240844 0.691304 -0.468083
O14   O     O_R   0.329810 0.295070 0.521560 -0.423389
O15   O     O_R   0.670190 0.704930 0.478440 -0.399210
O16   O     O_R   0.604230 0.515670 0.637800 -0.523571
O17   O     O_R   0.395770 0.484330 0.362200 -0.521844
O18   O     O_R   0.355330 0.478200 0.669330 -0.494463
O19   O     O_R   0.644670 0.521800 0.330670 -0.486809
O20   O     O_2   0.123745 0.333551 0.182450 -0.304951
S1    S     S_3+6 0.126794 0.419582 0.091142 0.076470
S2    S     S_3+6 0.874482 0.562068 0.911400 0.075500
S3    S     S_3+6 0.987506 0.704204 0.380520 0.118532
S4    S     S_3+6 0.015262 0.294615 0.618523 0.094342

loop_
_geom_bond_atom_site_label_1
_geom_bond_atom_site_label_2
_ccdc_geom_bond_type
C12   O15   A    
H6    N8    S    
O8    S3    D    
C2    C7    A    
C16   O18   A    
C15   N3    D    
O4    S2    D    
C7    C8    A    
C8    C20   A    
C6    N4    S    
Cu2   O18   S    
H18   N5    S    
Cu1   O19   S    
C1    O14   A    
H19   N5    S    
Cu2   O12   S    
O7    S3    D    
C3    C19   A    
N1    S4    S    
H14   O9    S    
H16   N4    S    
C11   N9    S    
C4    C18   A    
H2    N7    S    
C15   H1    S    
C9    N2    S    
O2    S1    D    
Cu1   Cu2   S    
C17   O19   A    
H11   N2    S    
C5    N5    S    
O13   S4    S    
H3    O3    S    
H10   N10   S    
C14   N1    D    
C6    C18   A    
H8    N9    S    
O20   S1    D    
C16   O16   A    
Cu1   O1    S    
C3    N7    S    
C6    C8    A    
C12   O12   A    
O6    S2    S    
C20   S1    S    
Cu1   O15   S    
C2    C4    A    
C13   N8    S    
C17   C18   S    
C1    C9    S    
C3    C20   A    
C9    C11   D    
Cu2   O14   S    
C10   C12   S    
H20   N6    S    
H22   N7    S    
C17   O17   A    
N3    S3    S    
Cu2   O17   S    
C2    S2    S    
H5    N8    S    
C5    C7    A    
O9    S3    S    
O11   S4    D    
O10   S4    D    
C10   C13   D    
C14   H12   S    
H21   N6    S    
C5    C19   A    
Cu1   O16   S    
O3    S1    S    
C1    O1    A    
C11   C13   S    
H7    N9    S    
C16   C19   S    
H15   O13   S    
H9    N10   S    
C10   N10   S    
Cu2   N1    S    
C4    N6    S    
C14   C15   S    
H13   N2    S    
H4    O6    S    
O5    S2    D    
H17   N4    S    
Cu1   N3    S    
