data_mof_unit_26979.cif
_audit_creation_date              2012-10-26T21:27:11-0400
_audit_creation_method            fapswitch 2.2
_symmetry_space_group_name_H-M    P1
_symmetry_Int_Tables_number       1
_space_group_crystal_system       monoclinic
_cell_length_a                    12.214197
_cell_length_b                    12.214197
_cell_length_c                    23.117953
_cell_angle_alpha                 90.0
_cell_angle_beta                  90.0
_cell_angle_gamma                 90.00002
_cell_volume                      3448.88900018

loop_
_atom_site_label
_atom_site_type_symbol
_atom_type_description
_atom_site_fract_x
_atom_site_fract_y
_atom_site_fract_z
_atom_type_partial_charge
C1    C     C_3   0.000000 0.000000 0.250000 -0.003097
C2    C     C_R   0.901897 0.000000 0.291555 0.026806
C3    C     C_R   0.000000 0.652014 0.922100 0.552399
C4    C     C_R   1.000000 0.347986 0.077900 0.552399
C5    C     C_R   0.347986 1.000000 0.422100 0.552399
C6    C     C_R   0.652014 0.000000 0.577900 0.552399
C7    C     C_R   1.000000 0.347986 0.922100 0.552399
C8    C     C_R   0.000000 0.652014 0.077900 0.552399
C9    C     C_R   0.652014 1.000000 0.422100 0.552399
C10   C     C_R   0.347986 1.000000 0.577900 0.552399
C11   C     C_R   0.099039 0.137617 0.185016 -0.122157
C12   C     C_3   0.000000 0.000000 0.750000 -0.003097
C13   C     C_R   0.900961 0.862383 0.814984 -0.122157
C14   C     C_R   0.862384 0.099039 0.685015 -0.122156
C15   C     C_R   0.137616 0.900961 0.314985 -0.122156
C16   C     C_R   0.900961 0.862383 0.185016 -0.122157
C17   C     C_R   0.099039 0.137617 0.814984 -0.122157
C18   C     C_R   0.137616 0.900961 0.685015 -0.122157
C19   C     C_R   0.862384 0.099039 0.314984 -0.122157
C20   C     C_R   0.099039 0.862384 0.814984 -0.122157
C21   C     C_R   0.900961 0.137616 0.185016 -0.122157
C22   C     C_R   0.862383 0.900961 0.314984 -0.122157
C23   C     C_R   1.000000 0.098103 0.208445 0.026806
C24   C     C_R   0.137616 0.099039 0.685016 -0.122157
C25   C     C_R   0.900961 0.137616 0.814984 -0.122156
C26   C     C_R   0.099039 0.862384 0.185015 -0.122156
C27   C     C_R   0.137617 0.099039 0.314984 -0.122157
C28   C     C_R   0.862383 0.900961 0.685016 -0.122157
C29   C     C_R   0.099041 0.219674 0.143282 -0.130991
C30   C     C_R   0.900959 0.780326 0.856718 -0.130991
C31   C     C_R   0.780327 0.099041 0.643281 -0.130991
C32   C     C_R   0.219673 0.900959 0.356719 -0.130991
C33   C     C_R   0.900959 0.780326 0.143282 -0.130991
C34   C     C_R   0.000000 0.901897 0.791555 0.026806
C35   C     C_R   0.099041 0.219674 0.856718 -0.130991
C36   C     C_R   0.219673 0.900959 0.643281 -0.130991
C37   C     C_R   0.780327 0.099041 0.356719 -0.130991
C38   C     C_R   0.099041 0.780327 0.856719 -0.130991
C39   C     C_R   0.900959 0.219673 0.143281 -0.130991
C40   C     C_R   0.780326 0.900959 0.356718 -0.130991
C41   C     C_R   0.219674 0.099041 0.643281 -0.130991
C42   C     C_R   0.900959 0.219673 0.856719 -0.130991
C43   C     C_R   0.099041 0.780327 0.143281 -0.130991
C44   C     C_R   0.219674 0.099041 0.356718 -0.130991
C45   C     C_R   0.901897 1.000000 0.708445 0.026806
C46   C     C_R   0.780326 0.900959 0.643282 -0.130991
C47   C     C_R   1.000000 0.261882 0.122300 0.017484
C48   C     C_R   0.000000 0.738118 0.877700 0.017484
C49   C     C_R   0.738118 0.000000 0.622300 0.017484
C50   C     C_R   0.261882 1.000000 0.377700 0.017484
C51   C     C_R   0.000000 0.738118 0.122300 0.017484
C52   C     C_R   1.000000 0.261882 0.877700 0.017484
C53   C     C_R   0.261882 1.000000 0.622300 0.017484
C54   C     C_R   0.738118 0.000000 0.377700 0.017484
C55   C     C_R   0.098103 0.000000 0.291555 0.026806
C56   C     C_R   0.000000 0.901897 0.208445 0.026806
C57   C     C_R   0.000000 0.098103 0.791555 0.026806
C58   C     C_R   0.098103 1.000000 0.708445 0.026806
Cu1   Cu    Cu3+1 0.889520 0.500000 0.000000 0.912285
Cu2   Cu    Cu3+1 0.110480 0.500000 0.000000 0.912285
Cu3   Cu    Cu3+1 0.500000 0.889520 0.500000 0.912285
Cu4   Cu    Cu3+1 0.500000 0.110480 0.500000 0.912285
H1    H     H_    0.177011 0.104077 0.198404 0.111874
H2    H     H_    0.822989 0.104076 0.198404 0.111875
H3    H     H_    0.895923 0.822989 0.301596 0.111874
H4    H     H_    0.104077 0.177011 0.698404 0.111874
H5    H     H_    0.822989 0.104076 0.801597 0.111874
H6    H     H_    0.177011 0.895924 0.198403 0.111874
H7    H     H_    0.104078 0.177011 0.301596 0.111875
H8    H     H_    0.895922 0.822989 0.698404 0.111875
H9    H     H_    0.176813 0.248850 0.126903 0.128870
H10   H     H_    0.823187 0.751150 0.873097 0.128870
H11   H     H_    0.751151 0.176813 0.626903 0.128870
H12   H     H_    0.822989 0.895923 0.801596 0.111874
H13   H     H_    0.248849 0.823187 0.373097 0.128870
H14   H     H_    0.823187 0.751149 0.126904 0.128870
H15   H     H_    0.176813 0.248851 0.873096 0.128870
H16   H     H_    0.248850 0.823187 0.626903 0.128870
H17   H     H_    0.751150 0.176813 0.373097 0.128870
H18   H     H_    0.176813 0.751150 0.873097 0.128870
H19   H     H_    0.823187 0.248850 0.126903 0.128870
H20   H     H_    0.751150 0.823187 0.373097 0.128870
H21   H     H_    0.248850 0.176813 0.626903 0.128870
H22   H     H_    0.823187 0.248849 0.873097 0.128870
H23   H     H_    0.895924 0.177011 0.698403 0.111874
H24   H     H_    0.176813 0.751151 0.126903 0.128870
H25   H     H_    0.248851 0.176813 0.373096 0.128870
H26   H     H_    0.751149 0.823187 0.626903 0.128870
H27   H     H_    0.104076 0.822989 0.301596 0.111874
H28   H     H_    0.822989 0.895922 0.198404 0.111875
H29   H     H_    0.177011 0.104078 0.801596 0.111875
H30   H     H_    0.104076 0.822989 0.698403 0.111875
H31   H     H_    0.895924 0.177011 0.301596 0.111875
H32   H     H_    0.177011 0.895924 0.801596 0.111875
O1    O     O_R   0.907020 0.615090 0.941240 -0.513625
O2    O     O_R   0.092980 0.615090 0.941240 -0.513625
O3    O     O_R   0.384910 0.092980 0.558760 -0.513625
O4    O     O_R   0.615090 0.907020 0.441240 -0.513625
O5    O     O_R   0.092980 0.615090 0.058760 -0.513625
O6    O     O_R   0.907020 0.384910 0.941240 -0.513625
O7    O     O_R   0.615090 0.907020 0.558760 -0.513625
O8    O     O_R   0.384910 0.092980 0.441240 -0.513625
O9    O     O_R   0.092980 0.384910 0.058760 -0.513625
O10   O     O_R   0.384910 0.907020 0.441240 -0.513625
O11   O     O_R   0.615090 0.092980 0.558760 -0.513625
O12   O     O_R   0.092980 0.384910 0.941240 -0.513625
O13   O     O_R   0.907020 0.615090 0.058760 -0.513625
O14   O     O_R   0.615090 0.092980 0.441240 -0.513625
O15   O     O_R   0.384910 0.907020 0.558760 -0.513625
O16   O     O_R   0.907020 0.384910 0.058760 -0.513625

loop_
_geom_bond_atom_site_label_1
_geom_bond_atom_site_label_2
_ccdc_geom_bond_type
C16   H28   S    
C9    O4    A    
C24   C41   A    
Cu3   O4    S    
C17   H29   S    
C14   C31   A    
Cu2   O5    S    
Cu3   O15   S    
C32   H13   S    
C15   C32   A    
Cu4   O11   S    
C9    O14   A    
C37   H17   S    
C46   C49   A    
C28   C46   A    
Cu1   O1    S    
C29   C47   A    
C30   C48   A    
C8    O5    A    
C7    C52   S    
C11   H1    S    
C27   C55   A    
C31   H11   S    
Cu4   O14   S    
C41   H21   S    
C4    O9    A    
C3    C48   S    
Cu1   O16   S    
C10   O15   A    
C1    C2    S    
C6    O7    A    
C10   C53   S    
C21   H2    S    
C4    O16   A    
C36   C53   A    
C19   C37   A    
C27   C44   A    
C18   C58   A    
C25   H5    S    
C2    C22   A    
C3    O2    A    
Cu2   O9    S    
C38   C48   A    
C19   H31   S    
C24   H4    S    
C12   C58   S    
C5    O10   A    
Cu1   Cu2   S    
Cu1   O6    S    
C25   C57   A    
C31   C49   A    
C26   C43   A    
C14   C45   A    
C46   H26   S    
C28   C45   A    
C7    O6    A    
C40   H20   S    
C13   C30   A    
Cu3   O10   S    
C42   H22   S    
C39   H19   S    
C35   H15   S    
Cu1   O13   S    
C26   C56   A    
C15   C55   A    
C10   O3    A    
Cu3   O7    S    
C16   C56   A    
C22   H3    S    
C16   C33   A    
C15   H27   S    
Cu4   O3    S    
C20   C38   A    
C33   H14   S    
C21   C39   A    
C22   C40   A    
C7    O12   A    
C8    C51   S    
C41   C53   A    
C37   C54   A    
Cu2   O2    S    
C1    C23   S    
C40   C54   A    
C21   C23   A    
C5    C50   S    
C12   C57   S    
C12   C34   S    
C44   H25   S    
C8    O13   A    
Cu2   O12   S    
C39   C47   A    
C44   C50   A    
C20   H32   S    
C5    O8    A    
C2    C19   A    
C43   H24   S    
C1    C56   S    
C28   H8    S    
C14   H23   S    
C12   C45   S    
C27   H7    S    
C25   C42   A    
C30   H10   S    
C33   C51   A    
C18   H30   S    
C1    C55   S    
C26   H6    S    
C13   C34   A    
C36   H16   S    
C43   C51   A    
C38   H18   S    
C11   C23   A    
C6    O11   A    
C32   C50   A    
C6    C49   S    
Cu3   Cu4   S    
C20   C34   A    
C13   H12   S    
C11   C29   A    
C24   C58   A    
C17   C57   A    
C35   C52   A    
C3    O1    A    
C9    C54   S    
C17   C35   A    
C29   H9    S    
C18   C36   A    
C42   C52   A    
Cu4   O8    S    
C4    C47   S    
