data_mof_unit_59392.cif
_audit_creation_date              2013-03-05T16:49:18-0500
_audit_creation_method            fapswitch 2.2
_symmetry_space_group_name_H-M    P1
_symmetry_Int_Tables_number       1
_space_group_crystal_system       triclinic
_cell_length_a                    8.10392
_cell_length_b                    8.928988
_cell_length_c                    16.877105
_cell_angle_alpha                 90.155089
_cell_angle_beta                  95.761186
_cell_angle_gamma                 90.001423
_cell_volume                      1215.05103535

loop_
_atom_site_label
_atom_site_type_symbol
_atom_site_description
_atom_site_fract_x
_atom_site_fract_y
_atom_site_fract_z
_atom_type_partial_charge
O1    O     O_R   0.636850 0.285340 0.500000 -0.609048
O2    O     O_R   0.363150 0.714660 0.500000 -0.597368
O3    O     O_R   0.363100 0.285350 0.500000 -0.619830
O4    O     O_R   0.636900 0.714650 0.500000 -0.618172
C1    C     C_R   0.500114 0.217997 0.500477 0.965808
C2    C     C_R   0.499831 0.781980 0.498775 1.013531
O5    O     O_R   0.652140 0.498630 0.616140 -0.582865
O6    O     O_R   0.347860 0.501370 0.383860 -0.603595
O7    O     O_R   0.378390 0.498650 0.616130 -0.584612
O8    O     O_R   0.621610 0.501350 0.383870 -0.581721
C3    C     C_R   0.523216 0.500224 0.653642 1.002584
C4    C     C_R   0.476645 0.499386 0.346631 1.029870
Zn1   Zn    Zn3+2 0.682780 0.499990 0.500010 1.119285
Zn2   Zn    Zn3+2 0.317220 0.500010 0.499990 1.118378
N1    N     N_1   0.073640 0.500030 0.499990 0.018608
N2    N     N_1   0.926360 0.499970 0.500010 0.020079
C5    C     C_R   0.541389 0.499507 0.739979 -0.325883
C6    C     C_R   0.456243 0.501669 0.260735 -0.327026
C7    C     C_R   0.457976 0.607324 0.782113 0.384787
C8    C     C_R   0.497813 0.374735 0.217541 0.374733
C9    C     C_R   0.461975 0.594390 0.863761 -0.211104
C10   C     C_R   0.478139 0.380419 0.135223 -0.200279
C11   C     C_R   0.547394 0.476445 0.904770 0.103713
C12   C     C_R   0.420492 0.511264 0.095778 0.104789
C13   C     C_R   0.641823 0.375450 0.864073 0.274372
C14   C     C_R   0.369056 0.635287 0.138346 0.252291
C15   C     C_R   0.636428 0.385604 0.780733 0.142289
C16   C     C_R   0.386589 0.629803 0.221867 0.137008
N3    N     N_2   0.541138 0.459022 0.987423 -0.079895
N4    N     N_2   0.420139 0.522587 0.012802 -0.079932
C17   C     C_1   0.500072 0.065213 0.499445 -0.092811
C18   C     C_1   0.499997 0.934831 0.498645 -0.069257
H1    H     H_    0.510026 0.283670 0.101057 0.251184
H2    H     H_    0.396450 0.676626 0.895807 0.262209
S1    S     S_3+6 0.565066 0.205331 0.264710 0.096803
O9    O     O_2   0.434901 0.154615 0.316121 -0.279224
O10   O     O_2   0.590490 0.085879 0.204173 -0.213885
O11   O     O_3   0.744574 0.234124 0.321762 -0.519154
H3    H     H_    0.763272 0.141282 0.353395 0.388875
S2    S     S_3+6 0.351267 0.762469 0.735725 0.102492
O12   O     O_2   0.195367 0.709827 0.688043 -0.250507
O13   O     O_2   0.306261 0.873624 0.797135 -0.194462
O14   O     O_3   0.474459 0.846700 0.675201 -0.552280
H4    H     H_    0.417021 0.941710 0.659789 0.388080
S3    S     S_3+6 0.758590 0.232239 0.917294 0.154776
O15   O     O_2   0.648795 0.097813 0.922674 -0.157151
O16   O     O_2   0.906564 0.187659 0.875598 -0.172796
O17   O     O_3   0.825422 0.289060 0.010121 -0.490691
H5    H     H_    0.900587 0.374317 0.002771 0.368862
S4    S     S_3+6 0.297540 0.798762 0.085064 0.146967
O18   O     O_2   0.144915 0.758843 0.031101 -0.206637
O19   O     O_2   0.256661 0.925524 0.138461 -0.154351
O20   O     O_3   0.444537 0.856579 0.028516 -0.474929
H6    H     H_    0.544274 0.873435 0.066450 0.387982
N5    N     N_R   0.718216 0.275248 0.736839 0.240624
O21   O     O_R   0.657914 0.140488 0.728794 -0.310848
O22   O     O_R   0.859085 0.306264 0.709851 -0.304408
N6    N     N_R   0.338187 0.754273 0.267874 0.255954
O23   O     O_R   0.450415 0.830674 0.311162 -0.350217
O24   O     O_R   0.182197 0.775675 0.276494 -0.291993

loop_
_geom_bond_atom_site_label_1
_geom_bond_atom_site_label_2
_geom_bond_distance
_ccdc_geom_bond_type
C1    C17   1.364267 S    
S3    O15   1.502458 D    
S4    O19   1.502467 D    
O7    Zn2   1.973056 S    
N3    N4    1.245051 D    
C16   N6    1.431238 S    
C13   C15   1.405991 A    
C14   C16   1.403461 A    
C17   C18   1.164227 T    
O6    C4    1.271190 A    
O14   H4    0.990406 S    
S1    O11   1.681318 S    
N5    O21   1.300334 A    
C14   S4    1.782602 S    
S4    O18   1.502792 D    
N5    O22   1.300938 A    
O20   H6    0.990658 S    
O5    C3    1.274788 A    
O7    C3    1.276425 A    
O2    C2    1.262250 A    
O3    Zn2   1.952432 S    
O8    C4    1.275593 A    
O1    C1    1.261469 A    
C11   N3    1.409969 S    
S2    O13   1.504193 D    
O17   H5    0.990768 S    
S1    O10   1.503430 D    
C8    C10   1.383489 A    
C15   N5    1.433074 S    
S3    O16   1.503192 D    
C9    C11   1.405377 A    
O11   H3    0.990632 S    
O2    Zn2   1.952404 S    
C10   C12   1.402913 A    
Zn1   N2    1.973953 S    
S4    O20   1.681455 S    
O1    Zn1   1.952402 S    
C7    S2    1.774761 S    
C12   N4    1.404020 S    
N6    O24   1.300954 A    
N1    N2    1.193579 T    
C5    C15   1.413549 A    
C13   S3    1.781293 S    
O5    Zn1   2.000250 S    
C11   C13   1.404563 A    
C6    C16   1.409857 A    
C6    C8    1.405111 A    
O4    C2    1.261433 A    
C2    C18   1.364808 S    
S3    O17   1.682407 S    
C4    C6    1.442677 S    
O4    Zn1   1.952432 S    
C10   H1    1.082947 S    
Zn2   N1    1.973953 S    
S2    O12   1.502835 D    
O6    Zn2   2.000250 S    
C9    H2    1.081293 S    
C5    C7    1.407916 A    
N6    O23   1.300060 A    
C7    C9    1.380259 A    
C8    S1    1.771505 S    
S2    O14   1.677675 S    
C3    C5    1.449789 S    
S1    O9    1.502154 D    
C12   C14   1.404293 A    
O3    C1    1.262092 A    
O8    Zn1   1.973056 S    
