data_mof_unit_35405.cif
_audit_creation_date              2013-03-05T15:44:40-0500
_audit_creation_method            fapswitch 2.2
_symmetry_space_group_name_H-M    P1
_symmetry_Int_Tables_number       1
_space_group_crystal_system       triclinic
_cell_length_a                    25.265726
_cell_length_b                    7.1695
_cell_length_c                    14.214671
_cell_angle_alpha                 90.083294
_cell_angle_beta                  103.155704
_cell_angle_gamma                 89.815032
_cell_volume                      2507.29162873

loop_
_atom_site_label
_atom_site_type_symbol
_atom_site_description
_atom_site_fract_x
_atom_site_fract_y
_atom_site_fract_z
_atom_type_partial_charge
O1    O     O_R   0.319150 0.364170 0.330530 -0.575632
O2    O     O_R   0.680850 0.635830 0.669470 -0.573763
O3    O     O_R   0.180850 0.864170 0.169470 -0.579156
O4    O     O_R   0.819150 0.135830 0.830530 -0.566696
O5    O     O_R   0.210330 0.696850 0.354180 -0.561600
O6    O     O_R   0.789670 0.303150 0.645820 -0.557339
O7    O     O_R   0.289670 0.196850 0.145820 -0.574257
O8    O     O_R   0.710330 0.803150 0.854180 -0.555670
C1    C     C_R   0.196530 0.524843 0.378371 1.057921
C2    C     C_R   0.802891 0.474032 0.621254 1.080057
C3    C     C_R   0.302748 0.024417 0.120622 1.059802
C4    C     C_R   0.696981 0.974635 0.878885 1.078993
O9    O     O_R   0.320550 0.694110 0.341970 -0.572830
O10   O     O_R   0.679450 0.305890 0.658030 -0.540819
O11   O     O_R   0.179450 0.194110 0.158030 -0.572115
O12   O     O_R   0.820550 0.805890 0.841970 -0.561536
O13   O     O_R   0.291860 0.861000 0.157170 -0.551842
O14   O     O_R   0.708140 0.139000 0.842830 -0.580712
O15   O     O_R   0.208140 0.361000 0.342830 -0.554249
O16   O     O_R   0.791860 0.639000 0.657170 -0.591292
C5    C     C_R   0.342327 0.525459 0.360791 1.092999
C6    C     C_R   0.658328 0.476117 0.636158 1.080661
C7    C     C_R   0.157414 0.026022 0.139946 1.101327
C8    C     C_R   0.841321 0.975899 0.864735 1.103902
O17   O     O_3   0.240460 0.529330 0.189380 -0.268441
O18   O     O_3   0.759540 0.470670 0.810620 -0.265668
O19   O     O_3   0.259540 0.029330 0.310620 -0.261235
O20   O     O_3   0.740460 0.970670 0.689380 -0.257737
V1    V     V_3+5 0.251770 0.805510 0.261240 1.353626
V2    V     V_3+5 0.748230 0.194490 0.738760 1.367304
V3    V     V_3+5 0.248230 0.305510 0.238760 1.347220
V4    V     V_3+5 0.751770 0.694490 0.761240 1.354992
C9    C     C_R   0.101071 0.016083 0.077989 -0.421254
C10   C     C_R   0.895546 0.993183 0.933750 -0.411336
C11   C     C_R   0.398247 0.515374 0.423818 -0.420814
C12   C     C_R   0.603352 0.496144 0.569411 -0.407342
C13   C     C_R   0.953847 0.104151 0.084521 0.332614
C14   C     C_R   0.040608 0.925640 0.925447 0.338025
C15   C     C_R   0.542811 0.654976 0.432700 0.333337
C16   C     C_R   0.458324 0.425177 0.577234 0.330522
C17   C     C_R   0.903709 0.111274 0.016348 0.245055
C18   C     C_R   0.093132 0.945072 0.983807 0.208508
C19   C     C_R   0.594642 0.631159 0.494677 0.242507
C20   C     C_R   0.405754 0.452193 0.519473 0.216327
C21   C     C_R   0.941479 0.904471 0.913039 0.377690
C22   C     C_R   0.055617 0.079990 0.111515 0.396427
C23   C     C_R   0.557730 0.404625 0.588953 0.395552
C24   C     C_R   0.444083 0.567352 0.388744 0.394616
C25   C     C_R   0.994613 0.955472 0.964467 -0.142426
C26   C     C_R   0.001581 0.045327 0.055891 -0.137270
C27   C     C_R   0.504428 0.457636 0.538915 -0.134373
C28   C     C_R   0.497209 0.558229 0.450852 -0.145945
C29   C     C_R   0.664442 0.986901 0.953652 -0.347635
C30   C     C_R   0.337544 0.013465 0.048934 -0.357036
C31   C     C_R   0.834459 0.481529 0.545476 -0.355247
C32   C     C_R   0.161742 0.512239 0.449843 -0.345906
C33   C     C_R   0.655649 0.124857 0.104979 -0.183578
C34   C     C_R   0.347550 0.951154 0.886316 -0.158636
C35   C     C_R   0.841189 0.546421 0.381224 -0.160730
C36   C     C_R   0.150233 0.438286 0.610572 -0.158933
C37   C     C_R   0.688592 0.049633 0.047614 0.321709
C38   C     C_R   0.316340 0.943223 0.954984 0.300369
C39   C     C_R   0.808818 0.516284 0.447699 0.304787
C40   C     C_R   0.181499 0.428390 0.541560 0.308930
C41   C     C_R   0.607652 0.960499 0.927324 0.252848
C42   C     C_R   0.393127 0.067297 0.076110 0.291480
C43   C     C_R   0.891330 0.455557 0.571778 0.253624
C44   C     C_R   0.107164 0.578105 0.425410 0.277330
C45   C     C_R   0.573501 0.043885 0.983972 0.026095
C46   C     C_R   0.426690 0.063039 0.006215 0.010338
C47   C     C_R   0.924293 0.510427 0.507164 0.028330
C48   C     C_R   0.071541 0.540626 0.488368 0.029292
C49   C     C_R   0.599096 0.128127 0.072939 0.048399
C50   C     C_R   0.401639 0.005819 0.910687 0.032567
C51   C     C_R   0.897885 0.544849 0.409804 0.035629
C52   C     C_R   0.096067 0.493201 0.585070 0.029369
C53   C     C_R   0.515258 0.045891 0.957454 0.069404
C54   C     C_R   0.484275 0.100531 0.025993 0.082773
C55   C     C_R   0.982332 0.524734 0.533720 0.066209
C56   C     C_R   0.013139 0.544335 0.461113 0.076639
C57   C     C_R   0.511769 0.202529 0.106734 -0.068266
C58   C     C_R   0.486878 0.014028 0.862173 -0.058003
C59   C     C_R   0.984394 0.550442 0.364049 -0.050837
C60   C     C_R   0.010570 0.525783 0.630854 -0.058735
C61   C     C_R   0.568079 0.213185 0.130743 -0.072666
C62   C     C_R   0.431157 0.994506 0.839141 -0.041246
C63   C     C_R   0.928126 0.562709 0.339506 -0.047383
C64   C     C_R   0.066143 0.498233 0.656035 -0.036127
H1    H     H_    0.587559 0.288511 0.195540 0.176276
H2    H     H_    0.411235 0.962967 0.764880 0.183562
H3    H     H_    0.907951 0.575444 0.263836 0.195065
H4    H     H_    0.085816 0.480246 0.731662 0.187438
H5    H     H_    0.674175 0.178194 0.176241 0.206100
H6    H     H_    0.330471 0.900253 0.813879 0.199924
H7    H     H_    0.822049 0.567607 0.305623 0.207006
H8    H     H_    0.167032 0.388997 0.683385 0.200988
H9    H     H_    0.490564 0.287019 0.148669 0.202684
H10   H     H_    0.506852 0.012810 0.803029 0.216339
H11   H     H_    0.004238 0.537906 0.305058 0.210858
H12   H     H_    0.990128 0.544415 0.688726 0.218381
Br1   Br    Br    0.071274 0.239242 0.224253 -0.459463
Br2   Br    Br    0.930730 0.696944 0.824294 -0.458892
Br3   Br    Br    0.432784 0.606379 0.250992 -0.441935
Br4   Br    Br    0.569042 0.190692 0.673662 -0.441820
N1    N     N_R   0.138943 0.913438 0.942864 0.262945
O21   O     O_R   0.171372 0.051501 0.937327 -0.365917
O22   O     O_R   0.142735 0.758763 0.896808 -0.284885
N2    N     N_R   0.863418 0.243523 0.032380 0.278100
O23   O     O_R   0.811742 0.214673 0.001323 -0.350814
O24   O     O_R   0.878947 0.402687 0.073579 -0.335775
N3    N     N_R   0.359662 0.420379 0.559606 0.262135
O25   O     O_R   0.324915 0.554457 0.560146 -0.372706
O26   O     O_R   0.355693 0.265114 0.604743 -0.283633
N4    N     N_R   0.637838 0.752337 0.483617 0.256840
O27   O     O_R   0.646288 0.904219 0.534929 -0.308109
O28   O     O_R   0.655538 0.743763 0.404791 -0.281677
Br5   Br    Br    0.949030 0.129577 0.217622 -0.396491
Br6   Br    Br    0.034241 0.922764 0.787107 -0.399054
Br7   Br    Br    0.535220 0.861731 0.343506 -0.337053
Br8   Br    Br    0.465060 0.412860 0.715424 -0.415134
Br9   Br    Br    0.420403 0.104605 0.213663 -0.450607
Br10  Br    Br    0.583535 0.765235 0.832884 -0.469940
Br11  Br    Br    0.087478 0.751777 0.318945 -0.475338
Br12  Br    Br    0.917492 0.283166 0.677494 -0.462429
N5    N     N_R   0.264954 0.849791 0.928874 0.262121
O29   O     O_R   0.253555 0.719973 0.984863 -0.328473
O30   O     O_R   0.237610 0.854493 0.839381 -0.282867
N6    N     N_R   0.745483 0.020534 0.089010 0.264684
O31   O     O_R   0.771096 0.881715 0.060030 -0.366930
O32   O     O_R   0.769665 0.112388 0.165820 -0.309419
N7    N     N_R   0.232913 0.333978 0.567468 0.263282
O33   O     O_R   0.244943 0.206846 0.510372 -0.322120
O34   O     O_R   0.259712 0.335103 0.657321 -0.286402
N8    N     N_R   0.750682 0.503651 0.412428 0.257482
O35   O     O_R   0.721204 0.409829 0.459761 -0.401994
O36   O     O_R   0.728401 0.555893 0.324603 -0.314121

loop_
_geom_bond_atom_site_label_1
_geom_bond_atom_site_label_2
_geom_bond_distance
_ccdc_geom_bond_type
C34   C38   1.388732 A    
C59   C63   1.387094 A    
O1    C5    1.324148 A    
C17   N2    1.444288 S    
C63   H3    1.084232 S    
O19   V1    1.744206 S    
O13   V1    2.014701 S    
C45   C53   1.433582 A    
O3    C7    1.325569 A    
N3    O25   1.300937 A    
C48   C52   1.414687 A    
O15   V3    2.012559 S    
C43   Br12  1.941807 S    
C47   C55   1.432557 A    
N4    O27   1.300628 A    
C14   C25   1.412543 A    
C53   C54   1.435106 A    
O7    C3    1.347508 A    
N1    O22   1.301260 A    
C9    C18   1.402916 A    
O9    V1    2.015089 S    
C14   C18   1.402996 A    
C19   N4    1.433615 S    
C55   C60   1.402523 A    
O4    C8    1.318501 A    
C15   Br7   1.932482 S    
C46   C54   1.443679 A    
O1    V3    2.007120 S    
N2    O23   1.296715 A    
C12   C23   1.409790 A    
O2    V4    2.007118 S    
C33   C49   1.397564 A    
O3    V1    2.005492 S    
C46   C50   1.421839 A    
C29   C37   1.409808 A    
C1    O15   1.335905 A    
C23   C27   1.423176 A    
C64   H4    1.084484 S    
C2    O16   1.340924 A    
C7    C9    1.495644 S    
C31   C39   1.415493 A    
O2    C6    1.318770 A    
C32   C40   1.419281 A    
C45   C49   1.417856 A    
O14   V2    2.014700 S    
C29   C41   1.411310 A    
C52   C64   1.391902 A    
C16   C20   1.406501 A    
C4    C29   1.486643 S    
C44   C48   1.432514 A    
O11   C7    1.329143 A    
C15   C28   1.419942 A    
O12   C8    1.338461 A    
C33   H5    1.084264 S    
N6    O31   1.301939 A    
C9    C22   1.414591 A    
C58   H10   1.074535 S    
C10   C17   1.423339 A    
C35   H7    1.084070 S    
O10   V2    2.015089 S    
C56   C59   1.406016 A    
C11   C24   1.412348 A    
C44   Br11  1.935684 S    
O5    V1    2.021477 S    
C22   Br1   1.933192 S    
O7    V3    2.017384 S    
C27   C28   1.420633 A    
C60   H12   1.074213 S    
C39   N8    1.443112 S    
C62   H2    1.084875 S    
C10   C21   1.410038 A    
C61   H1    1.084512 S    
O18   V4    1.744918 S    
C15   C19   1.412099 A    
C30   C38   1.413583 A    
C58   C62   1.378448 A    
C24   Br3   1.934048 S    
C36   C52   1.389391 A    
C8    C10   1.497896 S    
O8    V4    2.017386 S    
O5    C1    1.348777 A    
C11   C20   1.404926 A    
N4    O28   1.298843 A    
C40   N7    1.434763 S    
C21   C25   1.423392 A    
O8    C4    1.341132 A    
C42   Br9   1.937998 S    
O9    C5    1.328904 A    
N3    O26   1.301137 A    
C1    C32   1.490000 S    
C41   Br10  1.939317 S    
C50   C62   1.393458 A    
C33   C37   1.397605 A    
C2    C31   1.480148 S    
C49   C61   1.396324 A    
C3    C30   1.491485 S    
C5    C11   1.492440 S    
C36   H8    1.084620 S    
C51   C63   1.395440 A    
C16   Br8   1.934820 S    
N5    O29   1.300313 A    
N7    O33   1.300080 A    
C35   C51   1.397187 A    
C34   C50   1.388797 A    
O16   V4    2.012559 S    
C3    O13   1.336851 A    
C23   Br4   1.931309 S    
O6    V2    2.021477 S    
O17   V3    1.744917 S    
C60   C64   1.381393 A    
N7    O34   1.302374 A    
N6    O32   1.302274 A    
O6    C2    1.338456 A    
C38   N5    1.434438 S    
C31   C43   1.411737 A    
N2    O24   1.302079 A    
O11   V3    2.018215 S    
N8    O35   1.300974 A    
C30   C42   1.423566 A    
O12   V4    2.018213 S    
C16   C27   1.413751 A    
C6    C12   1.499790 S    
N1    O21   1.300823 A    
C22   C26   1.435650 A    
C35   C39   1.400735 A    
C36   C40   1.394139 A    
O10   C6    1.338772 A    
O20   V2    1.744205 S    
C34   H6    1.085020 S    
C48   C56   1.437956 A    
C32   C44   1.422461 A    
C47   C51   1.414564 A    
C13   C26   1.420425 A    
C54   C57   1.404454 A    
C42   C46   1.445803 A    
C57   H9    1.073091 S    
C53   C58   1.399577 A    
C41   C45   1.435908 A    
N8    O36   1.302232 A    
C37   N6    1.438504 S    
C43   C47   1.429457 A    
C13   C17   1.409732 A    
C18   N1    1.426321 S    
O4    V2    2.005493 S    
C21   Br2   1.928743 S    
C55   C56   1.434422 A    
C14   Br6   1.936283 S    
C20   N3    1.427616 S    
C24   C28   1.430235 A    
C13   Br5   1.931673 S    
C25   C26   1.424439 A    
C4    O14   1.341827 A    
N5    O30   1.302549 A    
C12   C19   1.417454 A    
C59   H11   1.073987 S    
C57   C61   1.387807 A    
