data_mof_unit_60969.cif
_audit_creation_date              2012-12-10T18:01:50-0500
_audit_creation_method            fapswitch 2.2
_symmetry_space_group_name_H-M    P1
_symmetry_Int_Tables_number       1
_space_group_crystal_system       triclinic
_cell_length_a                    21.75316
_cell_length_b                    21.730061
_cell_length_c                    47.211839
_cell_angle_alpha                 89.991648
_cell_angle_beta                  90.086403
_cell_angle_gamma                 90.193743
_cell_volume                      22316.7647858

loop_
_atom_site_label
_atom_site_type_symbol
_atom_type_description
_atom_site_fract_x
_atom_site_fract_y
_atom_site_fract_z
_atom_type_partial_charge
C1    C     C_R   0.999960 0.881074 0.999914 0.809002
C2    C     C_R   0.118928 0.999904 0.999929 0.806068
C3    C     C_R   0.000357 0.118979 0.999912 0.803352
C4    C     C_R   0.881073 0.000106 0.999897 0.809705
C5    C     C_R   0.499960 0.381074 0.499914 0.809002
C6    C     C_R   0.618928 0.499904 0.499930 0.806069
C7    C     C_R   0.500357 0.618979 0.499912 0.803352
C8    C     C_R   0.381073 0.500106 0.499897 0.809705
C9    C     C_R   0.684259 0.000671 0.999616 -0.075371
C10   C     C_R   0.999926 0.684223 0.999634 -0.074723
C11   C     C_R   0.315741 0.999328 0.999676 -0.075109
C12   C     C_R   0.998924 0.314881 0.999408 -0.086377
C13   C     C_R   0.184259 0.500671 0.499616 -0.075373
C14   C     C_R   0.499926 0.184223 0.499634 -0.074722
C15   C     C_R   0.815741 0.499328 0.499676 -0.075109
C16   C     C_R   0.498924 0.814881 0.499408 -0.086377
C17   C     C_R   0.718238 0.996551 0.024316 0.056487
C18   C     C_R   0.004690 0.718133 0.024320 0.056546
C19   C     C_R   0.281933 0.004051 0.024358 0.056611
C20   C     C_R   0.964500 0.282183 0.019257 0.081226
C21   C     C_R   0.218238 0.496556 0.524316 0.056484
C22   C     C_R   0.504689 0.218133 0.524320 0.056546
C23   C     C_R   0.781933 0.504050 0.524358 0.056612
C24   C     C_R   0.464500 0.782183 0.519257 0.081226
C25   C     C_3   0.713994 0.990179 0.055735 -0.229763
C26   C     C_3   0.011277 0.713793 0.055733 -0.229567
C27   C     C_3   0.286398 0.011024 0.055750 -0.229757
C28   C     C_3   0.966716 0.285442 0.050935 -0.223970
C29   C     C_3   0.213994 0.490189 0.555736 -0.229764
C30   C     C_3   0.511276 0.213793 0.555733 -0.229567
C31   C     C_3   0.786398 0.511021 0.555750 -0.229758
C32   C     C_3   0.466715 0.785442 0.550934 -0.223969
C33   C     C_3   0.785087 0.989907 0.055657 -0.465923
C34   C     C_3   0.011460 0.784962 0.055664 -0.465963
C35   C     C_3   0.215303 0.011338 0.055676 -0.465853
C36   C     C_3   0.966760 0.215251 0.051096 -0.469886
C37   C     C_3   0.285086 0.489916 0.555657 -0.465924
C38   C     C_3   0.511459 0.284962 0.555664 -0.465965
C39   C     C_3   0.715303 0.511336 0.555676 -0.465856
C40   C     C_3   0.466759 0.715251 0.551096 -0.469886
C41   C     C_R   0.051287 0.478081 0.100696 -0.255493
C42   C     C_R   0.521917 0.051281 0.100698 -0.258770
C43   C     C_R   0.948866 0.521627 0.100652 -0.260515
C44   C     C_R   0.477832 0.948701 0.100649 -0.258384
C45   C     C_R   0.551287 0.978081 0.600696 -0.255491
C46   C     C_R   0.021925 0.551278 0.600698 -0.258776
C47   C     C_R   0.448865 0.021627 0.600652 -0.260514
C48   C     C_R   0.977826 0.448705 0.600649 -0.258381
C49   C     C_R   0.500002 0.000003 0.945375 0.790792
C50   C     C_R   0.999960 0.500020 0.945383 0.792246
C51   C     C_R   0.000002 0.500003 0.445375 0.790792
C52   C     C_R   0.499959 0.000020 0.445383 0.792244
C53   C     C_R   0.618445 0.000237 0.000181 0.802525
C54   C     C_R   0.999945 0.618415 0.000201 0.802466
C55   C     C_R   0.381558 0.999763 0.000215 0.802244
C56   C     C_R   0.999970 0.381291 0.000136 0.793991
C57   C     C_R   0.118445 0.500237 0.500181 0.802526
C58   C     C_R   0.499945 0.118415 0.500201 0.802465
C59   C     C_R   0.881558 0.499763 0.500215 0.802244
C60   C     C_R   0.499970 0.881291 0.500136 0.793990
C61   C     C_R   0.499987 0.999996 0.054408 0.794139
C62   C     C_R   0.000033 0.499969 0.054401 0.790867
C63   C     C_R   0.999988 0.499996 0.554408 0.794142
C64   C     C_R   0.500033 0.999969 0.554401 0.790867
C65   C     C_R   0.957478 0.465082 0.190041 0.529072
C66   C     C_R   0.534203 0.957331 0.190099 0.528492
C67   C     C_R   0.042797 0.534607 0.190090 0.528110
C68   C     C_R   0.465187 0.042625 0.190033 0.528530
C69   C     C_R   0.457478 0.965082 0.690041 0.529072
C70   C     C_R   0.034189 0.457319 0.690099 0.528494
C71   C     C_R   0.542797 0.034608 0.690090 0.528110
C72   C     C_R   0.965204 0.542637 0.690033 0.528532
C73   C     C_R   0.043902 0.535017 0.219865 -0.010293
C74   C     C_R   0.464789 0.043746 0.219807 -0.010604
C75   C     C_R   0.956348 0.464725 0.219814 -0.010811
C76   C     C_R   0.534557 0.956214 0.219873 -0.010416
C77   C     C_R   0.543902 0.035018 0.719865 -0.010293
C78   C     C_R   0.964806 0.543759 0.719807 -0.010605
C79   C     C_R   0.456348 0.964725 0.719814 -0.010812
C80   C     C_R   0.034542 0.456201 0.719873 -0.010413
C81   C     C_R   0.500057 0.999994 0.854311 0.348193
C82   C     C_R   0.999732 0.500084 0.854315 0.348079
C83   C     C_R   0.000057 0.499994 0.354311 0.348193
C84   C     C_R   0.499732 0.000083 0.354315 0.348072
C85   C     C_R   0.000117 0.499887 0.234783 -0.019777
C86   C     C_R   0.499666 0.999983 0.234784 -0.019832
C87   C     C_R   0.500117 0.999887 0.734783 -0.019778
C88   C     C_R   0.999667 0.499984 0.734784 -0.019830
C89   C     C_R   0.087510 0.569771 0.235023 -0.166945
C90   C     C_R   0.430306 0.087356 0.234908 -0.167022
C91   C     C_R   0.912722 0.430005 0.234921 -0.167061
C92   C     C_R   0.569024 0.912608 0.235038 -0.167010
C93   C     C_R   0.587509 0.069771 0.735023 -0.166944
C94   C     C_R   0.930340 0.587381 0.734908 -0.167024
C95   C     C_R   0.412722 0.930005 0.734921 -0.167061
C96   C     C_R   0.068992 0.412583 0.735038 -0.167012
C97   C     C_R   0.587702 0.069535 0.764605 -0.165569
C98   C     C_R   0.930604 0.587605 0.764490 -0.165547
C99   C     C_R   0.412493 0.930306 0.764502 -0.165599
C100  C     C_R   0.068711 0.412380 0.764619 -0.165599
C101  C     C_R   0.087703 0.569534 0.264605 -0.165568
C102  C     C_R   0.430570 0.087580 0.264490 -0.165544
C103  C     C_R   0.912493 0.430307 0.264502 -0.165599
C104  C     C_R   0.568744 0.912405 0.264619 -0.165595
C105  C     C_R   0.544106 0.034774 0.779714 -0.013888
C106  C     C_R   0.965105 0.544024 0.779657 -0.013730
C107  C     C_R   0.456071 0.965101 0.779662 -0.013738
C108  C     C_R   0.034211 0.455979 0.779721 -0.013853
C109  C     C_R   0.044106 0.534774 0.279714 -0.013888
C110  C     C_R   0.465087 0.044011 0.279657 -0.013729
C111  C     C_R   0.956071 0.465101 0.279662 -0.013738
C112  C     C_R   0.534228 0.955991 0.279721 -0.013851
C113  C     C_R   0.500098 0.999920 0.764744 -0.018183
C114  C     C_R   0.999659 0.499994 0.764745 -0.018182
C115  C     C_R   0.000098 0.499920 0.264744 -0.018183
C116  C     C_R   0.499658 0.999994 0.264745 -0.018185
C117  C     C_R   0.543470 0.033795 0.809490 0.530717
C118  C     C_R   0.966121 0.543431 0.809435 0.530615
C119  C     C_R   0.456671 0.966142 0.809438 0.530557
C120  C     C_R   0.033212 0.456615 0.809496 0.530975
C121  C     C_R   0.043471 0.533795 0.309490 0.530716
C122  C     C_R   0.466104 0.043418 0.309435 0.530613
C123  C     C_R   0.956671 0.466142 0.309438 0.530559
C124  C     C_R   0.533229 0.956627 0.309496 0.530973
C125  C     C_R   0.509307 0.945092 0.869334 -0.104203
C126  C     C_R   0.054671 0.509370 0.869336 -0.104277
C127  C     C_R   0.490793 0.054904 0.869307 -0.104337
C128  C     C_R   0.944857 0.490809 0.869313 -0.103751
C129  C     C_R   0.009308 0.445092 0.369334 -0.104203
C130  C     C_R   0.554669 0.009387 0.369336 -0.104276
C131  C     C_R   0.990793 0.554904 0.369307 -0.104337
C132  C     C_R   0.444859 0.990792 0.369313 -0.103749
C133  C     C_R   0.509068 0.945011 0.898928 -0.217646
C134  C     C_R   0.054824 0.509135 0.898931 -0.218725
C135  C     C_R   0.490997 0.054995 0.898902 -0.217673
C136  C     C_R   0.944841 0.491023 0.898909 -0.215231
C137  C     C_R   0.009069 0.445011 0.398928 -0.217646
C138  C     C_R   0.554822 0.009152 0.398931 -0.218724
C139  C     C_R   0.990997 0.554995 0.398902 -0.217672
C140  C     C_R   0.444843 0.991006 0.398909 -0.215229
C141  C     C_R   0.500021 0.000005 0.914038 -0.041535
C142  C     C_R   0.999870 0.500062 0.914044 -0.041257
C143  C     C_R   0.000021 0.500005 0.414038 -0.041535
C144  C     C_R   0.499870 0.000062 0.414044 -0.041254
C145  C     C_R   0.051139 0.477744 0.130281 -0.141940
C146  C     C_R   0.522161 0.051104 0.130282 -0.146786
C147  C     C_R   0.949075 0.521942 0.130234 -0.147122
C148  C     C_R   0.477426 0.948881 0.130233 -0.146893
C149  C     C_R   0.551139 0.977744 0.630281 -0.141942
C150  C     C_R   0.022169 0.551101 0.630282 -0.146786
C151  C     C_R   0.449075 0.021942 0.630234 -0.147123
C152  C     C_R   0.977420 0.448884 0.630233 -0.146896
C153  C     C_R   0.000073 0.499892 0.085625 -0.027039
C154  C     C_R   0.499920 0.999989 0.085627 -0.021462
C155  C     C_R   0.500073 0.999892 0.585625 -0.027039
C156  C     C_R   0.999921 0.499989 0.585627 -0.021447
C157  C     C_R   0.000122 0.499841 0.145249 0.363177
C158  C     C_R   0.499757 0.999991 0.145249 0.362528
C159  C     C_R   0.500122 0.999841 0.645249 0.363176
C160  C     C_R   0.999758 0.499991 0.645249 0.362506
C161  C     C_R   0.780349 0.996772 0.024293 0.095834
C162  C     C_R   0.004336 0.780285 0.024308 0.095613
C163  C     C_R   0.219814 0.003827 0.024345 0.095827
C164  C     C_R   0.965170 0.218501 0.019491 0.072240
C165  C     C_R   0.280348 0.496776 0.524294 0.095837
C166  C     C_R   0.504336 0.280285 0.524308 0.095614
C167  C     C_R   0.719814 0.503826 0.524345 0.095829
C168  C     C_R   0.465170 0.718501 0.519491 0.072240
C169  C     C_R   0.814403 0.000752 0.999509 -0.101933
C170  C     C_R   0.999598 0.814393 0.999542 -0.101060
C171  C     C_R   0.185597 0.999257 0.999582 -0.101156
C172  C     C_R   0.998751 0.185766 0.999362 -0.080929
C173  C     C_R   0.314403 0.500751 0.499509 -0.101934
C174  C     C_R   0.499598 0.314393 0.499542 -0.101059
C175  C     C_R   0.685597 0.499258 0.499582 -0.101156
C176  C     C_R   0.498751 0.685766 0.499362 -0.080928
C177  C     C_R   0.781189 0.005415 0.973776 -0.195594
C178  C     C_R   0.994481 0.781233 0.973820 -0.196341
C179  C     C_R   0.218645 0.993998 0.973874 -0.197594
C180  C     C_R   0.027239 0.218423 0.977190 -0.198697
C181  C     C_R   0.281189 0.505410 0.473776 -0.195594
C182  C     C_R   0.494481 0.281233 0.473820 -0.196341
C183  C     C_R   0.718645 0.493999 0.473874 -0.197594
C184  C     C_R   0.527239 0.718423 0.477190 -0.198698
C185  C     C_R   0.716384 0.005502 0.973867 -0.205086
C186  C     C_R   0.994486 0.716396 0.973906 -0.205382
C187  C     C_R   0.283440 0.993891 0.973960 -0.205627
C188  C     C_R   0.028102 0.282847 0.977449 -0.199646
C189  C     C_R   0.216384 0.505497 0.473867 -0.205085
C190  C     C_R   0.494487 0.216396 0.473906 -0.205382
C191  C     C_R   0.783439 0.493893 0.473960 -0.205628
C192  C     C_R   0.528102 0.782847 0.477449 -0.199648
Cu1   Cu    Cu3+1 0.000000 0.000000 0.028100 0.936685
Cu2   Cu    Cu3+1 0.500000 0.500000 0.528100 0.936684
Cu3   Cu    Cu3+1 0.000000 0.000000 0.971820 0.952765
Cu4   Cu    Cu3+1 0.500000 0.500000 0.471820 0.952764
Cu5   Cu    Cu3+1 0.500040 0.061910 0.999920 0.955611
Cu6   Cu    Cu3+1 0.938090 0.500040 0.999920 0.958040
Cu7   Cu    Cu3+1 0.499960 0.938090 0.999920 0.956188
Cu8   Cu    Cu3+1 0.061910 0.499960 0.999920 0.953748
Cu9   Cu    Cu3+1 0.000040 0.561910 0.499920 0.955612
Cu10  Cu    Cu3+1 0.438090 0.000040 0.499920 0.958042
Cu11  Cu    Cu3+1 0.999960 0.438090 0.499920 0.956188
Cu12  Cu    Cu3+1 0.561910 0.999960 0.499920 0.953749
H1    H     H_    0.090738 0.460294 0.141602 0.148186
H2    H     H_    0.539796 0.090747 0.141603 0.148449
H3    H     H_    0.909501 0.539392 0.141516 0.148242
H4    H     H_    0.459736 0.909235 0.141515 0.148827
H5    H     H_    0.590738 0.960294 0.641602 0.148187
H6    H     H_    0.039811 0.590741 0.641602 0.148463
H7    H     H_    0.409500 0.039391 0.641516 0.148243
H8    H     H_    0.959724 0.409242 0.641515 0.148842
H9    H     H_    0.622052 0.096776 0.775577 0.187785
H10   H     H_    0.903594 0.621971 0.775416 0.187701
H11   H     H_    0.378129 0.903090 0.775433 0.187643
H12   H     H_    0.095717 0.378023 0.775595 0.187646
H13   H     H_    0.122053 0.596775 0.275577 0.187784
H14   H     H_    0.403546 0.121935 0.275416 0.187700
H15   H     H_    0.878129 0.403090 0.275433 0.187643
H16   H     H_    0.595764 0.878058 0.275595 0.187645
H17   H     H_    0.516880 0.902420 0.858044 0.147866
H18   H     H_    0.097320 0.516955 0.858045 0.147751
H19   H     H_    0.483233 0.097571 0.857995 0.147775
H20   H     H_    0.902158 0.483221 0.858004 0.148071
H21   H     H_    0.016880 0.402420 0.358044 0.147866
H22   H     H_    0.597316 0.016985 0.358045 0.147754
H23   H     H_    0.983233 0.597571 0.357995 0.147775
H24   H     H_    0.402162 0.983190 0.358004 0.148074
H25   H     H_    0.516386 0.901949 0.909953 0.163096
H26   H     H_    0.097919 0.516470 0.909952 0.162829
H27   H     H_    0.483668 0.098060 0.909907 0.162958
H28   H     H_    0.901800 0.483679 0.909915 0.163376
H29   H     H_    0.016386 0.401949 0.409953 0.163096
H30   H     H_    0.597915 0.016500 0.409952 0.162826
H31   H     H_    0.983668 0.598060 0.409907 0.162958
H32   H     H_    0.401804 0.983649 0.409915 0.163373
H33   H     H_    0.804919 0.008934 0.953695 0.171454
H34   H     H_    0.990409 0.805029 0.953757 0.171090
H35   H     H_    0.194790 0.989999 0.953810 0.170908
H36   H     H_    0.051262 0.194282 0.960487 0.161097
H37   H     H_    0.304919 0.508925 0.453695 0.171455
H38   H     H_    0.490411 0.305029 0.453757 0.171089
H39   H     H_    0.694790 0.490001 0.453810 0.170909
H40   H     H_    0.551262 0.694282 0.460487 0.161097
H41   H     H_    0.691612 0.009007 0.954012 0.145898
H42   H     H_    0.990467 0.691636 0.954070 0.145733
H43   H     H_    0.308069 0.989910 0.954120 0.145740
H44   H     H_    0.052279 0.307521 0.960900 0.152757
H45   H     H_    0.191612 0.508998 0.454011 0.145897
H46   H     H_    0.490468 0.191636 0.454070 0.145732
H47   H     H_    0.808069 0.489912 0.454120 0.145740
H48   H     H_    0.552279 0.807521 0.460900 0.152758
H49   H     H_    0.694515 0.032161 0.065756 0.146059
H50   H     H_    0.969424 0.693925 0.065783 0.146419
H51   H     H_    0.305916 0.969217 0.065943 0.146309
H52   H     H_    0.010921 0.305250 0.058712 0.142303
H53   H     H_    0.194515 0.532173 0.565755 0.146059
H54   H     H_    0.469422 0.193925 0.565783 0.146420
H55   H     H_    0.805915 0.469214 0.565943 0.146308
H56   H     H_    0.510921 0.805249 0.558712 0.142302
H57   H     H_    0.805746 0.031252 0.065803 0.192336
H58   H     H_    0.970217 0.805256 0.065864 0.192839
H59   H     H_    0.194693 0.970217 0.066010 0.192928
H60   H     H_    0.010420 0.195477 0.059256 0.199042
H61   H     H_    0.305747 0.531262 0.565802 0.192334
H62   H     H_    0.470215 0.305256 0.565864 0.192839
H63   H     H_    0.694693 0.470215 0.566010 0.192927
H64   H     H_    0.510420 0.695477 0.559256 0.199041
H65   H     H_    0.806399 0.945428 0.061839 0.197702
H66   H     H_    0.055912 0.806642 0.061794 0.197524
H67   H     H_    0.194061 0.055955 0.061660 0.197684
H68   H     H_    0.924447 0.193665 0.059860 0.195419
H69   H     H_    0.306398 0.445437 0.561841 0.197704
H70   H     H_    0.555910 0.306642 0.561794 0.197525
H71   H     H_    0.694062 0.555953 0.561660 0.197684
H72   H     H_    0.424447 0.693665 0.559860 0.195419
H73   H     H_    0.091222 0.460818 0.089616 0.161080
H74   H     H_    0.539455 0.091274 0.089618 0.160371
H75   H     H_    0.908919 0.538942 0.089540 0.161784
H76   H     H_    0.460350 0.908710 0.089531 0.160743
H77   H     H_    0.591222 0.960819 0.589616 0.161080
H78   H     H_    0.039468 0.591269 0.589618 0.160368
H79   H     H_    0.408918 0.038942 0.589540 0.161784
H80   H     H_    0.960339 0.408716 0.589530 0.160741
H81   H     H_    0.121717 0.597183 0.224090 0.186563
H82   H     H_    0.403091 0.121546 0.223930 0.186536
H83   H     H_    0.878526 0.402572 0.223948 0.186456
H84   H     H_    0.596246 0.878411 0.224110 0.186491
H85   H     H_    0.621717 0.097183 0.724090 0.186563
H86   H     H_    0.903138 0.621581 0.723930 0.186537
H87   H     H_    0.378526 0.902571 0.723948 0.186456
H88   H     H_    0.096201 0.378376 0.724111 0.186492
N1    N     N_R   0.000142 0.499834 0.175772 -0.462156
N2    N     N_R   0.499709 0.999979 0.175772 -0.461893
N3    N     N_R   0.500142 0.999834 0.675772 -0.462156
N4    N     N_R   0.999711 0.499979 0.675772 -0.461887
N5    N     N_R   0.500064 0.999981 0.823770 -0.466307
N6    N     N_R   0.999679 0.500039 0.823772 -0.466265
N7    N     N_R   0.000064 0.499981 0.323770 -0.466306
N8    N     N_R   0.499679 0.000039 0.323772 -0.466265
O1    O     O_R   0.000030 0.909910 0.023730 -0.586826
O2    O     O_R   0.090090 0.000030 0.023730 -0.586652
O3    O     O_R   0.999970 0.090090 0.023730 -0.588013
O4    O     O_R   0.909910 0.999970 0.023730 -0.586467
O5    O     O_R   0.500030 0.409910 0.523730 -0.586826
O6    O     O_R   0.590090 0.500030 0.523730 -0.586652
O7    O     O_R   0.499970 0.590090 0.523730 -0.588014
O8    O     O_R   0.409910 0.499970 0.523730 -0.586467
O9    O     O_R   0.000060 0.909970 0.976200 -0.590194
O10   O     O_R   0.090030 0.000060 0.976200 -0.591460
O11   O     O_R   0.999940 0.090030 0.976200 -0.585611
O12   O     O_R   0.909970 0.999940 0.976200 -0.589149
O13   O     O_R   0.500060 0.409970 0.476200 -0.590195
O14   O     O_R   0.590030 0.500060 0.476200 -0.591461
O15   O     O_R   0.499940 0.590030 0.476200 -0.585611
O16   O     O_R   0.409970 0.499940 0.476200 -0.589149
O17   O     O_R   0.500060 0.052300 0.958860 -0.587457
O18   O     O_R   0.947700 0.500060 0.958860 -0.586315
O19   O     O_R   0.499940 0.947700 0.958860 -0.587450
O20   O     O_R   0.052300 0.499940 0.958860 -0.588315
O21   O     O_R   0.000060 0.552300 0.458860 -0.587457
O22   O     O_R   0.447700 0.000060 0.458860 -0.586314
O23   O     O_R   0.999940 0.447700 0.458860 -0.587450
O24   O     O_R   0.552300 0.999940 0.458860 -0.588313
O25   O     O_R   0.590210 0.052300 0.999920 -0.585155
O26   O     O_R   0.947700 0.590210 0.999920 -0.584642
O27   O     O_R   0.409790 0.947700 0.999920 -0.584991
O28   O     O_R   0.052300 0.409790 0.999920 -0.586724
O29   O     O_R   0.090210 0.552300 0.499920 -0.585155
O30   O     O_R   0.447700 0.090210 0.499920 -0.584641
O31   O     O_R   0.909790 0.447700 0.499920 -0.584991
O32   O     O_R   0.552300 0.909790 0.499920 -0.586723
O33   O     O_R   0.590210 0.947930 0.999950 -0.578342
O34   O     O_R   0.052070 0.590210 0.999950 -0.578225
O35   O     O_R   0.409790 0.052070 0.999950 -0.578598
O36   O     O_R   0.947930 0.409790 0.999950 -0.575936
O37   O     O_R   0.090210 0.447930 0.499950 -0.578345
O38   O     O_R   0.552070 0.090210 0.499950 -0.578227
O39   O     O_R   0.909790 0.552070 0.499950 -0.578598
O40   O     O_R   0.447930 0.909790 0.499950 -0.575938
O41   O     O_R   0.500010 0.052300 0.040980 -0.584331
O42   O     O_R   0.947700 0.500010 0.040980 -0.584798
O43   O     O_R   0.499990 0.947700 0.040980 -0.584143
O44   O     O_R   0.052300 0.499990 0.040980 -0.582928
O45   O     O_R   0.000010 0.552300 0.540980 -0.584330
O46   O     O_R   0.447700 0.000010 0.540980 -0.584798
O47   O     O_R   0.999990 0.447700 0.540980 -0.584143
O48   O     O_R   0.552300 0.999990 0.540980 -0.582929
O49   O     O_2   0.916625 0.430506 0.175480 -0.566444
O50   O     O_2   0.568534 0.916486 0.175595 -0.568008
O51   O     O_2   0.083658 0.569161 0.175575 -0.567762
O52   O     O_2   0.430880 0.083468 0.175461 -0.567396
O53   O     O_2   0.416625 0.930506 0.675480 -0.566445
O54   O     O_2   0.068506 0.416463 0.675595 -0.568029
O55   O     O_2   0.583657 0.069162 0.675575 -0.567764
O56   O     O_2   0.930911 0.583491 0.675461 -0.567406
O57   O     O_2   0.586288 0.065917 0.824045 -0.542941
O58   O     O_2   0.934296 0.586278 0.823934 -0.543273
O59   O     O_2   0.413835 0.934051 0.823941 -0.543276
O60   O     O_2   0.065041 0.413784 0.824053 -0.543039
O61   O     O_2   0.086288 0.565916 0.324045 -0.542941
O62   O     O_2   0.434263 0.086254 0.323934 -0.543273
O63   O     O_2   0.913835 0.434052 0.323941 -0.543276
O64   O     O_2   0.565074 0.913807 0.324053 -0.543039
C193  C     C_R   0.684966 0.930420 0.065592 0.158212
C194  C     C_R   0.646470 0.930861 0.089457 -0.142371
C195  C     C_R   0.619517 0.876330 0.099181 -0.098092
C196  C     C_R   0.630406 0.820925 0.085109 -0.122791
C197  C     C_R   0.668704 0.819820 0.061402 -0.145227
C198  C     C_R   0.696124 0.874125 0.051702 -0.111538
H89   H     H_    0.637588 0.973359 0.100678 0.137768
H90   H     H_    0.590247 0.876977 0.117678 0.180387
H91   H     H_    0.609359 0.778808 0.092644 0.130906
H92   H     H_    0.677316 0.776810 0.050576 0.131209
H93   H     H_    0.725940 0.872160 0.033388 0.131104
C199  C     C_R   0.071059 0.685135 0.065532 0.158235
C200  C     C_R   0.070785 0.646358 0.089346 -0.141083
C201  C     C_R   0.125338 0.619710 0.099009 -0.098228
C202  C     C_R   0.180602 0.631204 0.084931 -0.123033
C203  C     C_R   0.181540 0.669789 0.061275 -0.145413
C204  C     C_R   0.127209 0.696891 0.051632 -0.111842
H94   H     H_    0.028400 0.637014 0.100572 0.138305
H95   H     H_    0.124816 0.590208 0.117464 0.179125
H96   H     H_    0.222739 0.610400 0.092420 0.130830
H97   H     H_    0.224440 0.678865 0.050443 0.131204
H98   H     H_    0.129038 0.726928 0.033355 0.131077
C205  C     C_R   0.315548 0.070936 0.065361 0.158087
C206  C     C_R   0.354199 0.070905 0.089228 -0.140894
C207  C     C_R   0.381285 0.125586 0.098724 -0.098024
C208  C     C_R   0.370369 0.180733 0.084420 -0.123240
C209  C     C_R   0.331918 0.181431 0.060708 -0.145017
C210  C     C_R   0.304369 0.126976 0.051235 -0.111233
H99   H     H_    0.363105 0.028612 0.100627 0.138398
H100  H     H_    0.410679 0.125255 0.117224 0.178984
H101  H     H_    0.391516 0.222967 0.091779 0.130550
H102  H     H_    0.323289 0.224242 0.049702 0.130775
H103  H     H_    0.274439 0.128624 0.032912 0.130332
C211  C     C_R   0.910223 0.314295 0.064094 0.165854
C212  C     C_R   0.917380 0.355053 0.086979 -0.138613
C213  C     C_R   0.866013 0.381932 0.099661 -0.098396
C214  C     C_R   0.807077 0.368704 0.089552 -0.121766
C215  C     C_R   0.799322 0.328272 0.066824 -0.149399
C216  C     C_R   0.850487 0.301004 0.054156 -0.119967
H104  H     H_    0.962704 0.365765 0.095153 0.133211
H105  H     H_    0.871851 0.412917 0.117396 0.178677
H106  H     H_    0.767403 0.389646 0.099386 0.132228
H107  H     H_    0.753608 0.317921 0.059053 0.132180
H108  H     H_    0.843440 0.269587 0.036647 0.128691
C217  C     C_R   0.184966 0.430432 0.565595 0.158213
C218  C     C_R   0.146476 0.430876 0.589462 -0.142392
C219  C     C_R   0.119522 0.376347 0.599188 -0.098096
C220  C     C_R   0.130405 0.320941 0.585116 -0.122784
C221  C     C_R   0.168697 0.319832 0.561407 -0.145228
C222  C     C_R   0.196117 0.374135 0.551705 -0.111537
H109  H     H_    0.137599 0.473375 0.600683 0.137763
H110  H     H_    0.090257 0.376998 0.617686 0.180415
H111  H     H_    0.109358 0.278825 0.592653 0.130911
H112  H     H_    0.177304 0.276821 0.550581 0.131208
H113  H     H_    0.225928 0.372167 0.533389 0.131105
C223  C     C_R   0.571057 0.185135 0.565532 0.158235
C224  C     C_R   0.570783 0.146359 0.589346 -0.141084
C225  C     C_R   0.625336 0.119711 0.599010 -0.098229
C226  C     C_R   0.680600 0.131205 0.584932 -0.123033
C227  C     C_R   0.681538 0.169789 0.561276 -0.145412
C228  C     C_R   0.627207 0.196890 0.551632 -0.111841
H114  H     H_    0.528397 0.137016 0.600573 0.138305
H115  H     H_    0.624813 0.090210 0.617465 0.179129
H116  H     H_    0.722736 0.110401 0.592422 0.130831
H117  H     H_    0.724438 0.178865 0.550445 0.131204
H118  H     H_    0.629036 0.226927 0.533355 0.131076
C229  C     C_R   0.815549 0.570933 0.565361 0.158092
C230  C     C_R   0.854200 0.570900 0.589229 -0.140910
C231  C     C_R   0.881287 0.625580 0.598725 -0.098026
C232  C     C_R   0.870372 0.680728 0.584422 -0.123232
C233  C     C_R   0.831921 0.681427 0.560710 -0.145019
C234  C     C_R   0.804371 0.626973 0.551236 -0.111233
H119  H     H_    0.863105 0.528607 0.600627 0.138391
H120  H     H_    0.910682 0.625248 0.617225 0.178996
H121  H     H_    0.891520 0.722961 0.591781 0.130552
H122  H     H_    0.823293 0.724239 0.549703 0.130776
H123  H     H_    0.774441 0.628623 0.532913 0.130333
C235  C     C_R   0.410222 0.814295 0.564094 0.165855
C236  C     C_R   0.417380 0.855053 0.586979 -0.138612
C237  C     C_R   0.366013 0.881932 0.599661 -0.098397
C238  C     C_R   0.307076 0.868704 0.589551 -0.121767
C239  C     C_R   0.299321 0.828272 0.566824 -0.149398
C240  C     C_R   0.350487 0.801004 0.554156 -0.119969
H124  H     H_    0.462704 0.865765 0.595153 0.133211
H125  H     H_    0.371850 0.912917 0.617396 0.178677
H126  H     H_    0.267403 0.889646 0.599386 0.132229
H127  H     H_    0.253608 0.817921 0.559053 0.132180
H128  H     H_    0.343440 0.769588 0.536647 0.128690

loop_
_geom_bond_atom_site_label_1
_geom_bond_atom_site_label_2
_ccdc_geom_bond_type
C53   O33   A    
C89   H81   S    
Cu9   Cu11  S    
C5    C174  S    
C108  C120  A    
C91   H83   S    
Cu4   O16   S    
C128  H20   S    
C79   C87   A    
C48   H80   S    
C25   C193  S    
C6    O6    A    
C52   C144  S    
C170  C178  A    
C65   N1    A    
C73   C85   A    
C117  O57   S    
C223  C224  A    
C159  N3    S    
C112  C124  A    
C160  N4    S    
C95   C99   A    
C40   H72   S    
C117  N5    A    
C190  H46   S    
C52   O22   A    
C30   C38   S    
Cu5   Cu7   S    
C94   H86   S    
C107  C113  A    
C16   C192  A    
C195  H90   S    
Cu2   O7    S    
C56   O36   A    
C2    C171  S    
C97   C105  A    
C98   H10   S    
C207  H100  S    
C106  C118  A    
C63   O45   A    
C230  H119  S    
C3    O11   A    
C123  O63   S    
C137  H29   S    
C196  C197  A    
C227  H117  S    
C166  C174  A    
C38   H70   S    
Cu8   O34   S    
C20   C28   S    
C27   C35   S    
C21   C29   S    
C35   C163  S    
C23   C31   S    
C33   C161  S    
C24   C32   S    
C83   C131  A    
C213  H105  S    
C27   C205  S    
C64   O46   A    
C66   C76   A    
C12   C20   A    
C82   N6    S    
C13   C21   A    
C71   N3    A    
C2    O2    A    
C72   N4    A    
C208  C209  A    
C61   O41   A    
C23   C167  A    
C230  C231  A    
Cu4   O13   S    
C139  H31   S    
C207  C208  A    
C205  C206  A    
C130  C138  A    
C110  C116  A    
C177  H33   S    
Cu9   O45   S    
C224  H114  S    
C176  C184  A    
C15   C191  A    
C100  H12   S    
C89   C101  A    
C123  N7    A    
C96   H88   S    
C91   C103  A    
C52   O24   A    
Cu12  O32   S    
C51   C143  S    
C145  C157  A    
C98   C106  A    
C17   C25   S    
C74   C90   A    
C128  C136  A    
C44   C154  A    
C200  H94   S    
C80   C88   A    
C193  C194  A    
C109  C121  A    
C202  H96   S    
C10   C18   A    
C84   C130  A    
C12   C56   S    
C39   H63   S    
C238  C239  A    
Cu2   O5    S    
C87   C113  A    
C49   O17   A    
Cu3   O12   S    
C92   C104  A    
C197  H92   S    
C178  C186  A    
Cu7   O33   S    
C129  C137  A    
C130  H22   S    
C94   C98   A    
C34   H66   S    
Cu6   Cu8   S    
C182  C190  A    
C217  C218  A    
C194  H89   S    
C110  C122  A    
C203  C204  A    
C224  C225  A    
C71   C77   A    
C55   O35   A    
C119  O59   S    
C174  C182  A    
C145  H1    S    
C214  C215  A    
C177  C185  A    
C150  H6    S    
C29   C217  S    
C220  C221  A    
C42   C154  A    
C78   C94   A    
C83   C129  A    
C72   O56   S    
C50   O18   A    
C13   C57   S    
C64   O48   A    
C68   C74   A    
C231  H120  S    
C59   O31   A    
C217  C222  A    
C41   C145  A    
C14   C22   A    
C16   C60   S    
C7    O15   A    
C90   C102  A    
C72   C78   A    
C194  C195  A    
C139  C143  A    
C204  H98   S    
Cu9   O39   S    
Cu4   O15   S    
C206  C207  A    
C47   H79   S    
C90   H82   S    
C179  H35   S    
C228  H118  S    
C95   H87   S    
C75   C91   A    
C161  C169  A    
C7    O7    A    
C225  H115  S    
C60   O40   A    
C171  C179  A    
C223  C228  A    
C183  H39   S    
C169  C177  A    
C181  H37   S    
C41   C153  A    
C36   H68   S    
C100  C108  A    
Cu5   O35   S    
C118  N6    A    
C32   H56   S    
C104  C112  A    
C25   H49   S    
C37   C165  S    
C192  H48   S    
C84   C132  A    
C70   O54   S    
C237  C238  A    
C54   O34   A    
C151  C159  A    
C210  H103  S    
C49   O19   A    
Cu3   O10   S    
Cu9   O21   S    
Cu1   O2    S    
C62   O42   A    
C229  C230  A    
Cu11  O47   S    
C53   O25   A    
C7    C176  S    
C184  H40   S    
C43   H75   S    
C19   C163  A    
C82   C128  A    
C218  C219  A    
C17   C161  A    
C239  H127  S    
C222  H113  S    
C227  C228  A    
C58   O38   A    
C225  C226  A    
C46   H78   S    
C69   C79   A    
Cu6   O36   S    
C93   C97   A    
C186  H42   S    
C167  C175  A    
C215  C216  A    
C39   H71   S    
C168  C176  A    
C164  C172  A    
C44   C148  A    
C22   C30   S    
C81   C125  A    
C219  H110  S    
C30   H54   S    
C198  H93   S    
C213  C214  A    
C34   C162  S    
C237  H125  S    
C146  C158  A    
C103  C111  A    
C125  H17   S    
C46   C156  A    
C62   C153  S    
C66   O50   S    
C120  O60   S    
C216  H108  S    
C201  C202  A    
C138  C144  A    
Cu5   O25   S    
C44   H76   S    
C71   O55   S    
Cu7   O43   S    
C96   C100  A    
C10   C186  A    
C121  O61   S    
C134  H26   S    
C48   C156  A    
C41   H73   S    
C234  H123  S    
C102  H14   S    
C173  C181  A    
C14   C190  A    
C135  C141  A    
C77   C87   A    
C129  H21   S    
C135  H27   S    
Cu10  O30   S    
Cu7   O19   S    
C235  C236  A    
Cu2   O8    S    
C60   O32   A    
C8    O16   A    
C50   C142  S    
C25   C33   S    
Cu10  O46   S    
C83   N7    S    
C35   H59   S    
C221  C222  A    
C18   C26   S    
C112  C116  A    
C61   C154  S    
C232  C233  A    
C202  C203  A    
C64   C155  S    
C11   C19   A    
Cu10  Cu12  S    
C118  O58   S    
C149  H5    S    
C63   C156  S    
C132  H24   S    
Cu1   O4    S    
C42   H74   S    
C57   O37   A    
C3    C172  S    
C179  C187  A    
C6    C175  S    
C180  H36   S    
C101  C109  A    
C20   C164  A    
C33   H57   S    
C1    C170  S    
C21   C165  A    
C189  H45   S    
C4    O4    A    
C157  N1    S    
C201  H95   S    
C240  H128  S    
C82   C126  A    
C136  C142  A    
C180  C188  A    
C181  C189  A    
C238  H126  S    
C75   C85   A    
C49   C141  S    
C184  C192  A    
C67   C73   A    
C163  C171  A    
C214  H106  S    
C124  N8    A    
C146  H2    S    
C172  C180  A    
C152  H8    S    
Cu4   O14   S    
C97   H9    S    
C81   C127  A    
C105  C117  A    
C119  N5    A    
C107  C119  A    
C99   H11   S    
C212  H104  S    
C14   C58   S    
C70   C80   A    
C85   C115  A    
C35   H67   S    
C208  H101  S    
Cu11  O31   S    
C199  C204  A    
C206  H99   S    
C111  C123  A    
C108  C114  A    
C79   C95   A    
C134  C142  A    
C6    O14   A    
C162  C170  A    
C30   C223  S    
C37   H61   S    
Cu2   O6    S    
C62   O44   A    
C236  H124  S    
Cu3   O11   S    
C40   H64   S    
Cu8   O44   S    
C26   C199  S    
C48   C152  A    
C138  H30   S    
C9    C53   S    
C42   C146  A    
C76   C86   A    
C178  H34   S    
C11   C55   S    
C233  H122  S    
C150  C160  A    
C78   C88   A    
C38   C166  S    
C1    O9    A    
C61   O43   A    
C15   C59   S    
C211  C216  A    
C140  C144  A    
C56   O28   A    
Cu7   O27   S    
C229  C234  A    
C132  C140  A    
C99   C107  A    
C8    O8    A    
C133  C141  A    
C93   H85   S    
C73   C89   A    
C218  H109  S    
C4    O12   A    
C67   O51   S    
C18   C162  A    
C5    O5    A    
C31   C229  S    
C102  C110  A    
C77   C93   A    
C121  N7    A    
C122  N8    A    
C88   C114  A    
C133  H25   S    
C148  H4    S    
C215  H107  S    
Cu6   O42   S    
C131  H23   S    
C28   C211  S    
C28   C36   S    
C29   C37   S    
C219  C220  A    
C140  H32   S    
C66   N2    A    
C31   H55   S    
C43   C153  A    
C27   H51   S    
C221  H112  S    
C212  C213  A    
C103  H15   S    
C152  C160  A    
C239  C240  A    
C195  C196  A    
C54   O26   A    
C92   H84   S    
C13   C189  A    
C209  C210  A    
C51   O23   A    
C136  H28   S    
C58   O30   A    
C151  H7    S    
C106  C114  A    
C11   C187  A    
C36   H60   S    
C24   C168  A    
C9    C185  A    
C196  H91   S    
C165  C173  A    
C12   C188  A    
C50   O20   A    
Cu6   O18   S    
C86   C116  A    
C235  C240  A    
C104  H16   S    
Cu3   O9    S    
C37   H69   S    
C26   C34   S    
C31   C39   S    
Cu1   Cu3   S    
C68   N2    A    
C105  C113  A    
C187  H43   S    
C69   N3    A    
C45   C155  A    
C22   C166  A    
C70   N4    A    
C80   C96   A    
Cu12  O24   S    
C232  H121  S    
C127  H19   S    
Cu1   O1    S    
C15   C23   A    
C137  C143  A    
C16   C24   A    
C1    O1    A    
C10   C54   S    
C182  H38   S    
C126  C134  A    
C3    O3    A    
C29   H53   S    
C209  H102  S    
C36   C164  S    
C45   H77   S    
C4    C169  S    
C34   H58   S    
C131  C139  A    
C158  N2    S    
C205  C210  A    
C26   H50   S    
C63   O47   A    
C226  C227  A    
C8    C173  S    
C55   O27   A    
C69   O53   S    
Cu10  O22   S    
C81   N5    S    
Cu8   O28   S    
C191  H47   S    
Cu12  O38   S    
C125  C133  A    
C67   N1    A    
Cu2   Cu4   S    
C148  C158  A    
C74   C86   A    
C147  H3    S    
C149  C159  A    
C120  N6    A    
C200  C201  A    
C68   O52   S    
C193  C198  A    
C76   C92   A    
C9    C17   A    
C46   C150  A    
C59   O39   A    
C220  H111  S    
Cu5   O17   S    
C147  C157  A    
C19   C27   S    
C199  C200  A    
C185  H41   S    
C197  C198  A    
C51   O21   A    
C57   O29   A    
Cu11  O37   S    
C33   H65   S    
C175  C183  A    
C28   H52   S    
C47   C151  A    
Cu5   O41   S    
C183  C191  A    
C126  H18   S    
C226  H116  S    
C5    O13   A    
C32   C235  S    
C65   C75   A    
C65   O49   S    
C38   H62   S    
C236  C237  A    
Cu6   O26   S    
Cu1   O3    S    
C47   C155  A    
Cu12  O48   S    
C122  O62   S    
Cu8   O20   S    
C203  H97   S    
C188  H44   S    
C45   C149  A    
C32   C40   S    
C39   C167  S    
C127  C135  A    
C40   C168  S    
C43   C147  A    
C109  C115  A    
C233  C234  A    
C101  H13   S    
C231  C232  A    
C2    O10   A    
Cu10  O40   S    
C211  C212  A    
C111  C115  A    
Cu9   O29   S    
Cu11  O23   S    
C84   N8    S    
C124  O64   S    
