data_mof_unit_51543.cif
_audit_creation_date              2012-12-10T18:23:51-0500
_audit_creation_method            fapswitch 2.2
_symmetry_space_group_name_H-M    P1
_symmetry_Int_Tables_number       1
_space_group_crystal_system       triclinic
_cell_length_a                    22.456066
_cell_length_b                    22.475123
_cell_length_c                    14.649443
_cell_angle_alpha                 89.985149
_cell_angle_beta                  90.227441
_cell_angle_gamma                 89.9897
_cell_volume                      7393.55694406

loop_
_atom_site_label
_atom_site_type_symbol
_atom_type_description
_atom_site_fract_x
_atom_site_fract_y
_atom_site_fract_z
_atom_type_partial_charge
C1    C     C_R   0.419787 0.919744 0.499878 0.824229
C2    C     C_R   0.580213 0.080256 0.500122 0.824235
C3    C     C_R   0.580215 0.919736 0.500135 0.823863
C4    C     C_R   0.419783 0.080262 0.499865 0.823862
C5    C     C_R   0.919788 0.419743 0.499878 0.824229
C6    C     C_R   0.080212 0.580257 0.500122 0.824218
C7    C     C_R   0.080217 0.419739 0.500135 0.823870
C8    C     C_R   0.919784 0.580263 0.499865 0.823871
C9    C     C_1   0.337575 0.162907 0.499676 -0.052096
C10   C     C_1   0.662421 0.837089 0.500324 -0.052064
C11   C     C_1   0.662439 0.162845 0.500342 -0.058778
C12   C     C_1   0.337561 0.837155 0.499659 -0.058743
C13   C     C_1   0.837575 0.662905 0.499680 -0.052048
C14   C     C_1   0.162430 0.337100 0.500318 -0.052129
C15   C     C_1   0.162433 0.662853 0.500346 -0.058761
C16   C     C_1   0.837567 0.337147 0.499652 -0.058780
C17   C     C_1   0.500119 0.000007 0.194446 0.150381
C18   C     C_1   0.499881 0.999993 0.805554 0.150377
C19   C     C_1   0.000118 0.500009 0.194446 0.150394
C20   C     C_1   0.999881 0.499991 0.805554 0.150419
C21   C     C_3   0.528191 0.047766 0.969814 0.281252
C22   C     C_3   0.471810 0.952235 0.030186 0.281244
C23   C     C_3   0.472369 0.048111 0.030119 0.281693
C24   C     C_3   0.527632 0.951890 0.969881 0.281679
C25   C     C_3   0.027701 0.548054 0.969810 0.281268
C26   C     C_3   0.972297 0.451947 0.030190 0.281279
C27   C     C_3   0.971875 0.547830 0.030114 0.281658
C28   C     C_3   0.028123 0.452170 0.969886 0.281642
C29   C     C_3   0.702184 0.730041 0.548022 -0.255531
C30   C     C_3   0.297779 0.269914 0.451846 -0.255589
C31   C     C_3   0.298479 0.729556 0.454037 -0.277485
C32   C     C_3   0.701533 0.270433 0.546003 -0.277451
C33   C     C_3   0.202228 0.230095 0.548142 -0.255523
C34   C     C_3   0.797811 0.769951 0.451989 -0.255521
C35   C     C_3   0.798474 0.229556 0.453985 -0.277462
C36   C     C_3   0.201514 0.770455 0.545975 -0.277513
C37   C     C_3   0.228774 0.201155 0.461777 0.299460
C38   C     C_3   0.771192 0.798816 0.538359 0.299453
C39   C     C_3   0.770824 0.201701 0.540372 0.295002
C40   C     C_3   0.229185 0.798290 0.459589 0.295010
C41   C     C_3   0.728804 0.701176 0.461652 0.299464
C42   C     C_3   0.271233 0.298854 0.538210 0.299457
C43   C     C_3   0.270807 0.701721 0.540423 0.294995
C44   C     C_3   0.729183 0.298288 0.459617 0.294981
C45   C     C_1   0.375157 0.125115 0.499622 -0.179056
C46   C     C_1   0.624840 0.874882 0.500378 -0.179055
C47   C     C_1   0.624845 0.125082 0.500349 -0.178677
C48   C     C_1   0.375155 0.874918 0.499652 -0.178670
C49   C     C_1   0.875158 0.625115 0.499623 -0.179022
C50   C     C_1   0.124846 0.374889 0.500376 -0.179030
C51   C     C_1   0.124841 0.625087 0.500350 -0.178708
C52   C     C_1   0.875159 0.374913 0.499650 -0.178706
C53   C     C_3   0.266274 0.238332 0.586639 0.063110
C54   C     C_3   0.733798 0.761740 0.413351 0.062982
C55   C     C_3   0.734877 0.237119 0.413406 0.086717
C56   C     C_3   0.265100 0.762902 0.586597 0.086717
C57   C     C_3   0.766198 0.738251 0.586658 0.062967
C58   C     C_3   0.233733 0.261679 0.413349 0.063039
C59   C     C_3   0.234892 0.737111 0.413414 0.086754
C60   C     C_3   0.765130 0.262869 0.586583 0.086723
C61   C     C_3   0.291908 0.208737 0.500209 0.025152
C62   C     C_3   0.708090 0.791260 0.499791 0.025214
C63   C     C_3   0.708123 0.208628 0.499919 0.025260
C64   C     C_3   0.291876 0.791372 0.500084 0.025264
C65   C     C_3   0.791905 0.708732 0.500218 0.025216
C66   C     C_3   0.208099 0.291272 0.499780 0.025160
C67   C     C_3   0.208116 0.708639 0.499926 0.025285
C68   C     C_3   0.791884 0.291361 0.500071 0.025260
C69   C     C_3   0.557498 0.999659 0.031384 -0.303055
C70   C     C_3   0.442503 0.000342 0.968616 -0.303061
C71   C     C_3   0.057500 0.500246 0.031385 -0.303071
C72   C     C_3   0.942498 0.499754 0.968615 -0.303037
C73   C     C_3   0.500426 0.000011 0.092298 -0.114292
C74   C     C_3   0.499575 0.999990 0.907702 -0.114287
C75   C     C_3   0.000424 0.500017 0.092298 -0.114296
C76   C     C_3   0.999574 0.499983 0.907702 -0.114296
Cu1   Cu    Cu3+1 0.500000 0.000000 0.590220 0.973302
Cu2   Cu    Cu3+1 0.500000 0.000000 0.409780 0.973301
Cu3   Cu    Cu3+1 1.000000 0.500000 0.590220 0.973303
Cu4   Cu    Cu3+1 0.000000 0.500000 0.409780 0.973305
H1    H     H_    0.395585 0.000620 0.944526 0.151576
H2    H     H_    0.604416 0.999381 0.055475 0.151577
H3    H     H_    0.895577 0.499551 0.944523 0.151570
H4    H     H_    0.104421 0.500448 0.055476 0.151577
H5    H     H_    0.662667 0.714356 0.586421 0.144531
H6    H     H_    0.337265 0.285567 0.413343 0.144571
H7    H     H_    0.338445 0.713355 0.417257 0.146177
H8    H     H_    0.661577 0.286625 0.582816 0.146172
H9    H     H_    0.162741 0.214444 0.586645 0.144547
H10   H     H_    0.837328 0.785637 0.413592 0.144548
H11   H     H_    0.838430 0.213364 0.417172 0.146170
H12   H     H_    0.161548 0.786656 0.582755 0.146161
N1    N     N_1   0.499980 0.000000 0.274190 -0.156729
N2    N     N_1   0.500020 0.000000 0.725810 -0.156728
N3    N     N_1   0.999980 0.500000 0.274190 -0.156729
N4    N     N_1   0.000020 0.500000 0.725810 -0.156729
O1    O     O_R   0.439540 0.939530 0.576170 -0.572208
O2    O     O_R   0.560460 0.060470 0.423830 -0.572207
O3    O     O_R   0.560460 0.939530 0.423830 -0.570928
O4    O     O_R   0.439540 0.060470 0.576170 -0.570925
O5    O     O_R   0.939540 0.439530 0.576170 -0.572207
O6    O     O_R   0.060460 0.560470 0.423830 -0.572206
O7    O     O_R   0.060460 0.439530 0.423830 -0.570925
O8    O     O_R   0.939540 0.560470 0.576170 -0.570929
O9    O     O_R   0.439530 0.939530 0.423800 -0.571712
O10   O     O_R   0.560470 0.060470 0.576200 -0.571713
O11   O     O_R   0.560470 0.939530 0.576200 -0.574063
O12   O     O_R   0.439530 0.060470 0.423800 -0.574065
O13   O     O_R   0.939530 0.439530 0.423800 -0.571745
O14   O     O_R   0.060470 0.560470 0.576200 -0.571747
O15   O     O_R   0.060470 0.439530 0.576200 -0.574031
O16   O     O_R   0.939530 0.560470 0.423800 -0.574028
N5    N     N_2   0.208216 0.145676 0.422542 -0.423682
H13   H     H_    0.236266 0.128429 0.373742 0.243818
C77   C     C_3   0.145943 0.143451 0.397574 -0.702706
H14   H     H_    0.133699 0.097001 0.379906 0.227834
H15   H     H_    0.137237 0.172041 0.337284 0.220867
H16   H     H_    0.117620 0.157955 0.455403 0.232902
N6    N     N_2   0.791708 0.854266 0.577747 -0.423694
H17   H     H_    0.763626 0.871451 0.626550 0.243824
C78   C     C_3   0.853961 0.856484 0.602814 -0.702707
H18   H     H_    0.866161 0.902909 0.620715 0.227823
H19   H     H_    0.882331 0.842108 0.544963 0.232919
H20   H     H_    0.862648 0.827783 0.662987 0.220877
N7    N     N_2   0.791219 0.147282 0.583291 -0.433716
H21   H     H_    0.776679 0.109622 0.549806 0.254004
C79   C     C_3   0.854082 0.145114 0.604551 -0.711771
H22   H     H_    0.863994 0.103780 0.643236 0.228916
H23   H     H_    0.867281 0.183574 0.647377 0.236636
H24   H     H_    0.880678 0.145004 0.540776 0.220711
N8    N     N_2   0.208801 0.852706 0.416641 -0.433708
H25   H     H_    0.223301 0.890366 0.450163 0.254005
C80   C     C_3   0.145954 0.854854 0.395275 -0.711820
H26   H     H_    0.136040 0.896222 0.356672 0.228882
H27   H     H_    0.119309 0.854880 0.459002 0.220735
H28   H     H_    0.132817 0.816429 0.352331 0.236664
N9    N     N_2   0.708287 0.645726 0.422266 -0.423707
H29   H     H_    0.736359 0.628544 0.373451 0.243834
C81   C     C_3   0.646027 0.643498 0.397236 -0.702693
H30   H     H_    0.633830 0.597072 0.379332 0.227816
H31   H     H_    0.637316 0.672207 0.337079 0.220875
H32   H     H_    0.617672 0.657858 0.455114 0.232910
N10   N     N_2   0.291797 0.354334 0.577436 -0.423720
H33   H     H_    0.263728 0.371616 0.626168 0.243861
C82   C     C_3   0.354053 0.356534 0.602509 -0.702750
H34   H     H_    0.366346 0.403014 0.619922 0.227896
H35   H     H_    0.382411 0.341837 0.544830 0.232895
H36   H     H_    0.362662 0.328087 0.662996 0.220841
N11   N     N_2   0.291191 0.647310 0.583381 -0.433739
H37   H     H_    0.276674 0.609644 0.549901 0.254022
C83   C     C_3   0.354041 0.645152 0.604716 -0.711812
H38   H     H_    0.363952 0.603804 0.643376 0.228884
H39   H     H_    0.367197 0.683600 0.647595 0.236678
H40   H     H_    0.380668 0.645079 0.540974 0.220740
N12   N     N_2   0.708788 0.352708 0.416701 -0.433741
H41   H     H_    0.723321 0.390365 0.450193 0.254017
C84   C     C_3   0.645928 0.354873 0.395421 -0.711738
H42   H     H_    0.636012 0.396221 0.356768 0.228901
H43   H     H_    0.619321 0.354953 0.459188 0.220714
H44   H     H_    0.632747 0.316424 0.352555 0.236656
C85   C     C_3   0.714413 0.779150 0.316689 -0.383017
C86   C     C_3   0.748768 0.744595 0.243728 -0.346689
C87   C     C_3   0.730577 0.764428 0.147932 -0.862307
H45   H     H_    0.682260 0.756562 0.136671 0.254295
H46   H     H_    0.740361 0.812464 0.138290 0.253350
H47   H     H_    0.755972 0.738610 0.096484 0.243071
H48   H     H_    0.797383 0.751997 0.252620 0.218963
H49   H     H_    0.739701 0.696278 0.250407 0.221322
H50   H     H_    0.665860 0.771245 0.308954 0.197053
H51   H     H_    0.722603 0.827574 0.307827 0.204198
C88   C     C_3   0.285739 0.221013 0.683299 -0.382990
C89   C     C_3   0.251414 0.255610 0.756247 -0.346716
C90   C     C_3   0.269716 0.235899 0.852052 -0.862324
H52   H     H_    0.259992 0.187863 0.861838 0.253348
H53   H     H_    0.318035 0.243828 0.863185 0.254297
H54   H     H_    0.244343 0.261746 0.903491 0.243085
H55   H     H_    0.260418 0.303930 0.749423 0.221331
H56   H     H_    0.202799 0.248144 0.747480 0.218961
H57   H     H_    0.277584 0.172593 0.692274 0.204175
H58   H     H_    0.334293 0.228954 0.690933 0.197109
C91   C     C_3   0.282480 0.780849 0.683859 -0.388497
C92   C     C_3   0.249376 0.743688 0.755190 -0.321991
C93   C     C_3   0.266189 0.762817 0.851880 -0.873830
H59   H     H_    0.314733 0.756803 0.863564 0.256117
H60   H     H_    0.254334 0.810248 0.862980 0.254061
H61   H     H_    0.241626 0.735203 0.902087 0.245182
H62   H     H_    0.200522 0.749097 0.745867 0.216183
H63   H     H_    0.260573 0.695875 0.746774 0.249316
H64   H     H_    0.331305 0.775696 0.692845 0.195640
H65   H     H_    0.271411 0.828654 0.693202 0.195178
C94   C     C_3   0.717471 0.219199 0.316143 -0.388542
C95   C     C_3   0.750547 0.256387 0.244822 -0.321976
C96   C     C_3   0.733687 0.237304 0.148124 -0.873804
H66   H     H_    0.745537 0.189878 0.136957 0.254047
H67   H     H_    0.685139 0.243322 0.136502 0.256119
H68   H     H_    0.758223 0.264940 0.097916 0.245176
H69   H     H_    0.739360 0.304198 0.253303 0.249336
H70   H     H_    0.799404 0.250968 0.254092 0.216168
H71   H     H_    0.728542 0.171400 0.306754 0.195181
H72   H     H_    0.668643 0.224347 0.307196 0.195660
C97   C     C_3   0.214263 0.279013 0.316696 -0.382956
C98   C     C_3   0.248563 0.244413 0.243726 -0.346726
C99   C     C_3   0.230275 0.264165 0.147933 -0.862290
H73   H     H_    0.181952 0.256268 0.136788 0.254332
H74   H     H_    0.240026 0.312199 0.138185 0.253358
H75   H     H_    0.255636 0.238322 0.096476 0.243118
H76   H     H_    0.297183 0.251841 0.252500 0.218933
H77   H     H_    0.239522 0.196097 0.250518 0.221318
H78   H     H_    0.165705 0.271093 0.309072 0.197082
H79   H     H_    0.222435 0.327432 0.307732 0.204200
C100  C     C_3   0.785588 0.720834 0.683315 -0.382997
C101  C     C_3   0.751238 0.755384 0.756288 -0.346703
C102  C     C_3   0.769439 0.735554 0.852085 -0.862285
H80   H     H_    0.759687 0.687510 0.861718 0.253371
H81   H     H_    0.817749 0.743452 0.863349 0.254319
H82   H     H_    0.744029 0.761349 0.903543 0.243102
H83   H     H_    0.760298 0.803703 0.749605 0.221315
H84   H     H_    0.702624 0.747974 0.747404 0.218937
H85   H     H_    0.777397 0.672409 0.692171 0.204194
H86   H     H_    0.834141 0.728737 0.691044 0.197076
C103  C     C_3   0.782526 0.280782 0.683853 -0.388509
C104  C     C_3   0.749429 0.243596 0.755160 -0.321971
C105  C     C_3   0.766259 0.262684 0.851860 -0.873870
H87   H     H_    0.814804 0.256660 0.863520 0.256101
H88   H     H_    0.754412 0.310112 0.863009 0.254050
H89   H     H_    0.741699 0.235053 0.902047 0.245140
H90   H     H_    0.700575 0.249013 0.745862 0.216206
H91   H     H_    0.760620 0.195787 0.746696 0.249344
H92   H     H_    0.831352 0.275623 0.692818 0.195629
H93   H     H_    0.771463 0.328584 0.693241 0.195169
C106  C     C_3   0.217524 0.719171 0.316143 -0.388572
C107  C     C_3   0.250620 0.756357 0.244833 -0.321985
C108  C     C_3   0.233849 0.737220 0.148131 -0.873848
H94   H     H_    0.245753 0.689800 0.137031 0.254056
H95   H     H_    0.185302 0.743188 0.136423 0.256089
H96   H     H_    0.258399 0.764862 0.097941 0.245135
H97   H     H_    0.239385 0.804160 0.253244 0.249329
H98   H     H_    0.299474 0.750985 0.254186 0.216246
H99   H     H_    0.228611 0.671371 0.306786 0.195193
H100  H     H_    0.168697 0.724307 0.307151 0.195614
N13   N     N_2   0.442613 0.100692 0.064242 -0.428086
H101  H     H_    0.414107 0.091523 0.117400 0.246599
C109  C     C_3   0.415822 0.138209 0.995198 -0.683162
H102  H     H_    0.398159 0.179182 0.027623 0.221321
H103  H     H_    0.378463 0.114531 0.961044 0.215163
H104  H     H_    0.449301 0.151491 0.943529 0.262339
N14   N     N_2   0.557386 0.899308 0.935758 -0.428086
H105  H     H_    0.585886 0.908475 0.882597 0.246613
C110  C     C_3   0.584189 0.861796 0.004796 -0.683193
H106  H     H_    0.601829 0.820809 0.972374 0.221310
H107  H     H_    0.550721 0.848534 0.056497 0.262336
H108  H     H_    0.621565 0.885472 0.038908 0.215174
N15   N     N_2   0.558558 0.099971 0.935594 -0.427720
H109  H     H_    0.586976 0.090427 0.882485 0.248078
C111  C     C_3   0.585761 0.137213 0.004563 -0.681846
H110  H     H_    0.603943 0.177934 0.972043 0.221742
H111  H     H_    0.622805 0.113099 0.038838 0.215140
H112  H     H_    0.552412 0.150960 0.056139 0.261923
N16   N     N_2   0.441442 0.900030 0.064406 -0.427695
H113  H     H_    0.413021 0.909577 0.117513 0.248067
C112  C     C_3   0.414240 0.862788 0.995434 -0.681809
H114  H     H_    0.396059 0.822068 0.027952 0.221737
H115  H     H_    0.447588 0.849043 0.943855 0.261916
H116  H     H_    0.377194 0.886901 0.961158 0.215127
N17   N     N_2   0.941580 0.600110 0.064232 -0.428092
H117  H     H_    0.913169 0.590652 0.117380 0.246632
C113  C     C_3   0.914410 0.637359 0.995196 -0.683116
H118  H     H_    0.896288 0.678131 0.027639 0.221293
H119  H     H_    0.877324 0.613287 0.960986 0.215177
H120  H     H_    0.947768 0.651023 0.943572 0.262343
N18   N     N_2   0.058421 0.399892 0.935767 -0.428077
H121  H     H_    0.086860 0.409362 0.882655 0.246622
C114  C     C_3   0.085563 0.362628 0.004812 -0.683131
H122  H     H_    0.103693 0.321860 0.972373 0.221308
H123  H     H_    0.052188 0.348961 0.056403 0.262367
H124  H     H_    0.122639 0.386690 0.039059 0.215171
N19   N     N_2   0.057537 0.600568 0.935590 -0.427702
H125  H     H_    0.086047 0.591314 0.882480 0.248079
C115  C     C_3   0.084368 0.638082 0.004558 -0.681970
H126  H     H_    0.102112 0.678996 0.972050 0.221718
H127  H     H_    0.121673 0.614353 0.038797 0.215163
H128  H     H_    0.050893 0.651468 0.056157 0.261921
N20   N     N_2   0.942463 0.399432 0.064410 -0.427709
H129  H     H_    0.913957 0.408684 0.117535 0.248059
C116  C     C_3   0.915625 0.361921 0.995438 -0.681894
H130  H     H_    0.897889 0.321002 0.027947 0.221724
H131  H     H_    0.949096 0.348542 0.943820 0.261898
H132  H     H_    0.878310 0.385652 0.961214 0.215141

loop_
_geom_bond_atom_site_label_1
_geom_bond_atom_site_label_2
_ccdc_geom_bond_type
C89   H55   S    
C17   C73   S    
C88   C89   S    
C57   C100  S    
C9    C45   T    
C84   H42   S    
C39   N7    S    
N20   C116  S    
N5    C77   S    
C26   C72   S    
C97   C98   S    
C11   C47   T    
C87   H45   S    
C72   C76   S    
C99   H73   S    
C59   C106  S    
C60   C103  S    
C111  H111  S    
C82   H34   S    
C36   C67   S    
C40   C59   S    
C100  H85   S    
C13   C65   S    
C90   H52   S    
C100  H86   S    
C4    O12   A    
C110  H106  S    
C103  C104  S    
N7    H21   S    
C31   C43   S    
Cu2   O9    S    
C9    C61   S    
C104  H90   S    
C106  H99   S    
Cu1   O10   S    
C87   H46   S    
C94   H71   S    
C86   C87   S    
C116  H132  S    
C11   C63   S    
N11   C83   S    
C42   C53   S    
N15   H109  S    
C12   C64   S    
C81   H32   S    
C83   H40   S    
C37   N5    S    
C56   C91   S    
Cu2   N1    S    
N10   H33   S    
C32   H8    S    
C3    O3    A    
Cu1   N2    S    
C114  H124  S    
C20   C76   S    
Cu1   O4    S    
Cu2   O12   S    
N13   H101  S    
C115  H128  S    
C31   C59   S    
C70   H1    S    
C92   C93   S    
C78   H20   S    
C69   H2    S    
C59   C67   S    
N5    H13   S    
C53   C61   S    
C58   C66   S    
C105  H87   S    
C58   C97   S    
C96   H67   S    
C114  H123  S    
C55   C63   S    
C103  H93   S    
C70   C74   S    
C80   H28   S    
C83   H38   S    
C56   C64   S    
C5    C52   S    
Cu1   O1    S    
C16   C68   S    
C15   C51   T    
C6    C51   S    
C23   N13   S    
N17   H117  S    
C41   N9    S    
C37   C58   S    
C43   N11   S    
C12   C48   T    
N16   H113  S    
C85   H50   S    
C109  H104  S    
N14   C110  S    
N18   H121  S    
C20   N4    T    
C111  H112  S    
C18   C74   S    
C28   N18   S    
C7    O7    A    
N19   H125  S    
C83   H39   S    
C107  H98   S    
C6    O14   A    
C23   C70   S    
C88   H57   S    
C10   C62   S    
C91   H64   S    
C79   H23   S    
C23   C73   S    
C27   C75   S    
C34   C65   S    
C97   H78   S    
C82   H35   S    
C24   C69   S    
C114  H122  S    
N12   H41   S    
C4    C45   S    
C102  H81   S    
C33   C53   S    
C99   H75   S    
C5    O5    A    
C105  H89   S    
C31   H7    S    
C98   C99   S    
C14   C50   T    
Cu4   O7    S    
C35   C55   S    
C94   C95   S    
N16   C112  S    
C36   C40   S    
C87   H47   S    
C94   H72   S    
C7    C50   S    
C25   N19   S    
C93   H61   S    
C1    O1    A    
C112  H115  S    
C41   C65   S    
C54   C62   S    
C109  H103  S    
C91   C92   S    
C21   C74   S    
C2    O10   A    
C33   C37   S    
C86   H48   S    
C21   C69   S    
C106  H100  S    
N13   C109  S    
C55   C94   S    
Cu4   O13   S    
C96   H66   S    
C35   C39   S    
C93   H59   S    
C34   H10   S    
Cu2   O2    S    
C116  H130  S    
C36   C56   S    
N7    C79   S    
C33   H9    S    
C93   H60   S    
N9    C81   S    
C91   H65   S    
C100  C101  S    
Cu1   O11   S    
C115  H126  S    
C77   H16   S    
C15   C67   S    
C33   C66   S    
Cu4   O16   S    
C26   C75   S    
C14   C66   S    
C92   H63   S    
C95   H69   S    
Cu4   N3    S    
C69   C73   S    
N12   C84   S    
C8    O8    A    
C32   C60   S    
C2    O2    A    
C78   H18   S    
C86   H49   S    
N6    C78   S    
C25   C71   S    
C38   N6    S    
C43   C67   S    
C40   N8    S    
C29   C57   S    
C34   C54   S    
C110  H107  S    
C95   H70   S    
C98   H76   S    
N19   C115  S    
C42   N10   S    
C107  H97   S    
C18   N2    T    
C13   C49   T    
C88   H58   S    
C44   C68   S    
C28   C71   S    
C30   H6    S    
C26   N20   S    
C77   H14   S    
C103  H92   S    
C111  H110  S    
C28   C76   S    
N18   C114  S    
C97   H79   S    
C106  C107  S    
C82   H36   S    
C19   N3    T    
C89   C90   S    
C81   H30   S    
N15   C111  S    
C71   H4    S    
C32   C44   S    
C90   H54   S    
C89   H56   S    
N10   C82   S    
C77   H15   S    
C29   C62   S    
C110  H108  S    
Cu3   O14   S    
C29   C41   S    
C34   C38   S    
C44   N12   S    
C29   H5    S    
C31   C64   S    
C30   C42   S    
C16   C52   T    
C32   C63   S    
C57   C65   S    
N8    C80   S    
C40   C64   S    
C99   H74   S    
C112  H116  S    
C37   C61   S    
N6    H17   S    
C105  H88   S    
C1    C48   S    
Cu4   O6    S    
C79   H22   S    
C22   N16   S    
C84   H44   S    
C39   C63   S    
N9    H29   S    
C3    C46   S    
C26   C28   S    
C2    C47   S    
C4    O4    A    
Cu3   O15   S    
C113  H118  S    
C3    O11   A    
C95   C96   S    
N20   H129  S    
C21   C23   S    
C79   H24   S    
Cu3   N4    S    
C116  H131  S    
N17   C113  S    
C85   C86   S    
N11   H37   S    
C96   H68   S    
C71   C75   S    
C81   H31   S    
C44   C55   S    
C24   C74   S    
C90   H53   S    
C80   H26   S    
C38   C57   S    
C101  H84   S    
C35   C68   S    
C102  H80   S    
C39   C60   S    
C30   C58   S    
C102  H82   S    
C19   C75   S    
C107  C108  S    
C113  H120  S    
C8    O16   A    
C7    O15   A    
C22   C24   S    
C92   H62   S    
C6    O6    A    
C54   C85   S    
N8    H25   S    
Cu3   O8    S    
C108  H96   S    
C10   C46   T    
C41   C54   S    
C78   H19   S    
C72   H3    S    
C36   H12   S    
C53   C88   S    
C21   N15   S    
Cu3   Cu4   S    
C115  H127  S    
C43   C56   S    
C85   H51   S    
C17   N1    T    
C101  C102  S    
C60   C68   S    
C25   C76   S    
C84   H43   S    
C104  H91   S    
C101  H83   S    
C30   C61   S    
C108  H95   S    
Cu2   O3    S    
C42   C66   S    
C80   H27   S    
C112  H114  S    
Cu1   Cu2   S    
Cu3   O5    S    
C24   N14   S    
C98   H77   S    
C8    C49   S    
C5    O13   A    
C22   C73   S    
C38   C62   S    
C108  H94   S    
C113  H119  S    
C104  C105  S    
C22   C70   S    
C27   C72   S    
C109  H102  S    
N14   H105  S    
C1    O9    A    
C27   N17   S    
C25   C27   S    
C35   H11   S    
