data_mof_unit_49877.cif
_audit_creation_date              2012-12-11T16:27:25-0500
_audit_creation_method            fapswitch 2.2
_symmetry_space_group_name_H-M    P1
_symmetry_Int_Tables_number       1
_space_group_crystal_system       triclinic
_cell_length_a                    8.52068
_cell_length_b                    17.575465
_cell_length_c                    19.009124
_cell_angle_alpha                 98.323264
_cell_angle_beta                  92.271396
_cell_angle_gamma                 97.414685
_cell_volume                      2788.23518871

loop_
_atom_site_label
_atom_site_type_symbol
_atom_type_description
_atom_site_fract_x
_atom_site_fract_y
_atom_site_fract_z
_atom_type_partial_charge
Ba1   Ba    Ba6+2 0.848080 0.535720 0.465810 1.892890
Ba2   Ba    Ba6+2 0.341750 0.464340 0.534200 1.835165
C1    C     C_3   0.512601 0.733860 0.184363 0.179107
C2    C     C_3   0.390983 0.557799 0.245122 -0.089904
C3    C     C_2   0.346086 0.542757 0.164876 0.034239
C4    C     C_3   0.062815 0.676759 0.274276 0.438399
C5    C     C_2   0.189269 0.515972 0.145013 -0.042116
C6    C     C_2   0.085951 0.487012 0.202826 -0.151252
C7    C     C_1   0.151157 0.476159 0.266174 0.004506
C8    C     C_R   0.024867 0.501895 0.927631 0.458396
C9    C     C_R   0.124702 0.512069 0.068509 0.448587
C10   C     C_R   0.077347 0.523698 0.799424 -0.167247
C11   C     C_R   0.030311 0.514054 0.725587 -0.027206
C12   C     C_3   0.607154 0.745417 0.257562 0.550853
C13   C     C_R   0.774830 0.448324 0.751950 0.045878
C14   C     C_R   0.822631 0.457063 0.824391 -0.138747
C15   C     C_R   0.974815 0.494298 0.849551 -0.052934
C16   C     C_3   0.036427 0.684339 0.196317 -0.217488
C17   C     C_R   0.880083 0.474236 0.702873 -0.242689
C18   C     C_R   0.395306 0.732687 0.490097 0.086868
C19   C     C_R   0.555884 0.751915 0.514064 0.010604
C20   C     C_R   0.619403 0.832429 0.520208 -0.050760
C21   C     C_R   0.522870 0.886935 0.498729 0.056424
C22   C     C_R   0.372779 0.860287 0.461727 -0.093690
C23   C     C_3   0.479999 0.215051 0.316738 0.669112
C24   C     C_R   0.310759 0.780695 0.454863 -0.056585
C25   C     C_R   0.572508 0.175084 0.520310 -0.130940
C26   C     C_R   0.633987 0.252864 0.517539 -0.005711
C27   C     C_R   0.879726 0.231579 0.578181 0.035385
C28   C     C_3   0.288026 0.689865 0.746353 0.212865
C29   C     C_R   0.817365 0.153761 0.579344 -0.050508
C30   C     C_R   0.664983 0.124370 0.548267 0.059389
C31   C     C_1   0.615188 0.040663 0.533014 0.070546
C32   C     C_1   0.574531 0.970960 0.517444 0.043115
C33   C     C_R   0.787172 0.280617 0.547499 -0.177317
C34   C     C_3   0.462380 0.126750 0.327628 0.144357
C35   C     C_3   0.227179 0.741534 0.807644 0.244534
C36   C     C_3   0.033284 0.290893 0.365843 0.319646
C37   C     C_3   0.964714 0.207294 0.334708 0.211801
C38   C     C_3   0.800571 0.698432 0.686954 0.670779
C39   C     C_3   0.769448 0.649509 0.746203 -0.285561
C40   C     C_3   0.005163 0.187379 0.256881 -0.188549
C41   C     C_3   0.498592 0.750766 0.319937 -0.222185
C42   C     C_3   0.612922 0.099083 0.351894 -0.239332
C43   C     C_3   0.160193 0.338611 0.809362 -0.266265
C44   C     C_3   0.470590 0.548627 0.110143 -0.289957
C45   C     C_3   0.058805 0.294420 0.744572 0.357004
C46   C     C_3   0.279629 0.918143 0.433701 -0.260481
C47   C     C_3   0.784205 0.863868 0.552068 -0.244573
C48   C     C_3   0.949263 0.228343 0.768373 -0.266728
C49   C     C_3   0.551167 0.260979 0.698087 0.593804
C50   C     C_3   0.552281 0.186372 0.731518 0.335577
C51   C     C_2   0.308486 0.489445 0.275740 0.095187
H1    H     H_    0.196481 0.794904 0.788938 0.156073
H2    H     H_    0.710342 0.591039 0.722776 0.029138
H3    H     H_    0.362198 0.234076 0.319714 0.011080
H4    H     H_    0.388053 0.120529 0.371849 0.048069
H5    H     H_    0.413857 0.687346 0.184324 -0.058681
H6    H     H_    0.985419 0.627447 0.165610 0.024171
H7    H     H_    0.985611 0.335303 0.723992 -0.025597
H8    H     H_    0.011320 0.198396 0.806345 0.180959
H9    H     H_    0.849987 0.252298 0.795823 0.052629
H10   H     H_    0.903666 0.184814 0.721905 0.086423
H11   H     H_    0.675431 0.278386 0.684858 -0.472442
H12   H     H_    0.121351 0.710055 0.827912 0.055163
H13   H     H_    0.474551 0.249521 0.648203 0.085439
H14   H     H_    0.643917 0.153672 0.707129 -0.030399
H15   H     H_    0.953714 0.644323 0.290525 0.100289
H16   H     H_    0.582321 0.200780 0.789692 0.043139
H17   H     H_    0.960877 0.467395 0.189747 0.146765
H18   H     H_    0.193484 0.553231 0.818171 0.115706
H19   H     H_    0.739436 0.436260 0.861213 0.101116
H20   H     H_    0.840250 0.468469 0.647371 0.040580
H21   H     H_    0.459603 0.151621 0.493688 0.079760
H22   H     H_    0.892031 0.114926 0.598778 0.065290
H23   H     H_    0.989350 0.306508 0.419647 -0.011059
H24   H     H_    0.160707 0.642077 0.279276 -0.160576
H25   H     H_    0.838146 0.339078 0.542456 0.029164
H26   H     H_    0.952070 0.725376 0.189752 0.182388
H27   H     H_    0.149378 0.704185 0.174272 0.159893
H28   H     H_    0.334946 0.641777 0.768230 0.043801
H29   H     H_    0.390454 0.724633 0.726618 0.148393
H30   H     H_    0.796796 0.818186 0.159258 0.329612
H31   H     H_    0.511847 0.708242 0.945119 0.364627
H32   H     H_    0.208148 0.124122 0.457360 0.366481
H33   H     H_    0.950579 0.224126 0.222674 0.157769
H34   H     H_    0.163848 0.297834 0.368324 0.069093
H35   H     H_    0.134251 0.198224 0.252836 0.172823
H36   H     H_    0.959601 0.126109 0.235192 0.190017
H37   H     H_    0.749121 0.902705 0.736405 0.386464
H38   H     H_    0.404399 0.700897 0.315181 -0.065001
H39   H     H_    0.571080 0.752803 0.369996 0.074190
H40   H     H_    0.440160 0.803744 0.323655 0.150363
H41   H     H_    0.350595 0.740478 0.057186 0.343406
H42   H     H_    0.679707 0.160488 0.149776 0.379778
H43   H     H_    0.197680 0.046393 0.165447 0.400175
H44   H     H_    0.693843 0.090218 0.308252 0.220051
H45   H     H_    0.835894 0.206191 0.333982 0.081641
H46   H     H_    0.667918 0.142678 0.395679 0.081337
H47   H     H_    0.585953 0.043126 0.372504 0.150432
H48   H     H_    0.225556 0.392242 0.795433 0.135623
H49   H     H_    0.084828 0.354442 0.853975 0.065216
H50   H     H_    0.246819 0.302574 0.827827 0.180062
H51   H     H_    0.194563 0.079650 0.630823 0.359680
H52   H     H_    0.455551 0.494537 0.070855 0.154361
H53   H     H_    0.461305 0.598611 0.081670 0.101728
H54   H     H_    0.592780 0.555951 0.133736 0.135393
H55   H     H_    0.517516 0.454731 0.362923 0.312762
H56   H     H_    0.893607 0.675550 0.654573 -0.000328
H57   H     H_    0.172171 0.891036 0.400332 0.198517
H58   H     H_    0.243030 0.958101 0.478949 0.111682
H59   H     H_    0.355969 0.952534 0.400570 0.154896
H60   H     H_    0.850102 0.819778 0.569735 0.170245
H61   H     H_    0.853719 0.891506 0.512085 0.137998
H62   H     H_    0.777888 0.908642 0.599022 0.137013
H63   H     H_    0.152205 0.761094 0.583932 0.327574
H64   H     H_    0.590921 0.714999 0.141861 -0.009564
H65   H     H_    0.687980 0.675304 0.784212 0.177461
H66   H     H_    0.881531 0.644458 0.775492 0.044449
N1    N     N_R   0.147613 0.555438 0.957067 -0.194041
N2    N     N_R   0.194901 0.560596 0.025607 -0.240576
N3    N     N_R   0.998737 0.459691 0.039621 -0.208269
N4    N     N_R   0.950067 0.454878 0.970935 -0.234023
O1    O     O_2   0.870670 0.457200 0.328780 -0.375566
O2    O     O_2   0.205739 0.228793 0.559395 -0.411164
O3    O     O_3   0.160092 0.264198 0.693955 -0.532795
O4    O     O_3   0.123190 0.458470 0.416160 -0.487149
O5    O     O_3   0.570980 0.591910 0.535630 -0.420398
O6    O     O_2   0.357950 0.313790 0.466200 -0.456352
O7    O     O_3   0.589134 0.267694 0.365770 -0.645320
O8    O     O_2   0.457288 0.467089 0.753489 -0.490255
O9    O     O_3   0.498417 0.320151 0.745815 -0.611304
O10   O     O_3   0.645490 0.595990 0.371560 -0.494194
O11   O     O_2   0.715163 0.534815 0.246320 -0.435473
O12   O     O_3   0.655640 0.693605 0.648548 -0.603892
O13   O     O_3   0.977230 0.335986 0.318377 -0.597429
O14   O     O_3   0.701947 0.683805 0.258375 -0.648303
O15   O     O_2   0.831760 0.686240 0.533840 -0.460189
O16   O     O_3   0.064740 0.635370 0.406810 -0.441297
O17   O     O_2   0.974593 0.772929 0.440804 -0.440237
O18   O     O_2   0.649736 0.904116 0.284172 -0.211568
O19   O     O_2   0.848327 0.838563 0.335892 -0.228472
O20   O     O_3   0.855746 0.848718 0.202114 -0.398560
O21   O     O_2   0.521534 0.810968 0.852668 -0.220772
O22   O     O_2   0.312787 0.822157 0.937337 -0.164862
O23   O     O_3   0.098530 0.750174 0.316760 -0.546537
O24   O     O_3   0.420274 0.689492 0.910476 -0.546772
O25   O     O_2   0.904434 0.120699 0.441030 -0.360974
O26   O     O_2   0.026863 0.060421 0.338805 -0.194194
O27   O     O_3   0.193376 0.166721 0.429846 -0.562508
O28   O     O_2   0.899760 0.805030 0.804191 -0.264097
O29   O     O_2   0.002640 0.831112 0.690235 -0.343418
O30   O     O_3   0.709714 0.849001 0.713473 -0.487395
O31   O     O_2   0.544770 0.874311 0.137452 -0.154726
O32   O     O_2   0.330082 0.848469 0.216901 -0.181614
O33   O     O_3   0.296669 0.779233 0.086698 -0.432361
O34   O     O_2   0.319030 0.542820 0.671260 -0.427407
O35   O     O_2   0.419895 0.226998 0.176602 -0.175037
O36   O     O_2   0.667818 0.298390 0.234659 -0.186707
O37   O     O_3   0.653520 0.151631 0.198500 -0.523277
O38   O     O_2   0.488851 0.017375 0.212607 -0.119237
O39   O     O_2   0.265826 0.993048 0.285496 -0.195238
O40   O     O_3   0.251877 0.091908 0.198341 -0.473643
O41   O     O_2   0.408062 0.041594 0.728931 -0.232316
O42   O     O_2   0.255922 0.146784 0.768796 -0.275799
O43   O     O_3   0.296712 0.114159 0.632878 -0.541790
O44   O     O_2   0.283000 0.335593 0.257906 -0.351214
O45   O     O_3   0.066510 0.541590 0.583850 -0.403401
O46   O     O_2   0.482748 0.403089 0.191993 -0.202751
O47   O     O_3   0.539131 0.410719 0.327725 -0.436582
O48   O     O_2   0.249766 0.593903 0.491194 -0.265298
O49   O     O_2   0.367880 0.667205 0.603465 -0.326170
O50   O     O_3   0.115871 0.708467 0.557641 -0.479481
O51   O     O_3   0.544220 0.404070 0.628440 -0.485920
O52   O     O_3   0.168766 0.666550 0.689943 -0.603224
O53   O     O_3   0.618730 0.408150 0.464380 -0.449517
O54   O     O_3   0.124970 0.364690 0.593190 -0.493630
P1    P     P_3+3 0.041170 0.434790 0.339740 1.090005
P2    P     P_3+3 0.658290 0.675180 0.554960 1.120883
P3    P     P_3+3 0.113741 0.735942 0.406354 1.078042
P4    P     P_3+3 0.148540 0.565270 0.660270 1.134513
P5    P     P_3+3 0.089287 0.269076 0.606958 1.036359
P6    P     P_3+3 0.607873 0.593596 0.279311 0.945177
P7    P     P_3+3 0.540688 0.307330 0.453317 1.009985
P8    P     P_3+3 0.568607 0.410410 0.720776 0.993256
S1    S     S_3+6 0.741422 0.836411 0.270934 0.040175
S2    S     S_3+6 0.281060 0.671920 0.535840 -0.058967
S3    S     S_3+6 0.375424 0.769192 0.879013 -0.022861
S4    S     S_3+6 0.019769 0.135844 0.386159 -0.129132
S5    S     S_3+6 0.860162 0.798082 0.725528 -0.061866
S6    S     S_3+6 0.422446 0.813274 0.157983 0.029537
S7    S     S_3+6 0.554165 0.224729 0.229575 0.055172
S8    S     S_3+6 0.366625 0.055053 0.254729 0.069186
S9    S     S_3+6 0.372588 0.120406 0.716762 -0.043555
S10   S     S_3+6 0.402904 0.406350 0.261246 -0.032207

loop_
_geom_bond_atom_site_label_1
_geom_bond_atom_site_label_2
_ccdc_geom_bond_type
C6    C7    D    
C47   H60   S    
O31   S6    D    
Ba1   O53   S    
H55   O47   S    
C2    C51   S    
C42   H47   S    
C46   H57   S    
C14   H19   S    
Ba1   O5    S    
O11   P6    D    
O42   S9    D    
C5    C6    S    
O46   S10   D    
C36   H23   S    
C13   C17   A    
C13   P8    S    
H63   O50   S    
C22   C24   A    
C1    S6    S    
O51   P8    S    
C36   C37   S    
C4    O23   S    
C42   H46   S    
O41   S9    D    
C35   S3    S    
O40   S8    S    
C8    C15   S    
C13   C14   A    
C44   H52   S    
O13   P1    S    
Ba2   O6    S    
C6    H17   S    
Ba1   Ba2   S    
C42   H44   S    
C34   S8    S    
C39   H2    S    
O29   S5    D    
C50   H16   S    
C43   H50   S    
Ba2   O53   S    
C45   H7    S    
H32   O27   S    
O10   P6    S    
O28   S5    D    
O17   P3    D    
C26   C33   A    
C16   H26   S    
C35   H12   S    
C10   C15   A    
C21   C22   A    
C23   H3    S    
O16   P3    S    
Ba2   O54   S    
C36   O13   S    
C39   H65   S    
C37   C40   S    
C25   H21   S    
C1    H64   S    
O1    P1    D    
Ba1   O16   S    
O52   P4    S    
Ba2   O4    S    
C4    H15   S    
C47   H61   S    
C25   C30   A    
C19   C20   A    
C48   H10   S    
C9    N2    A    
O34   P4    D    
Ba1   O10   S    
O15   P2    D    
C45   C48   S    
O30   S5    S    
C43   C45   S    
C4    C16   S    
C38   O12   S    
C27   P5    S    
C11   C17   A    
O22   S3    D    
O38   S8    D    
C49   C50   S    
C22   C46   S    
O43   S9    S    
C17   H20   S    
C50   S9    S    
O37   S7    S    
C34   H4    S    
C3    C5    D    
C14   C15   A    
C37   H45   S    
Ba1   O45   S    
C41   H38   S    
H42   O37   S    
C28   C35   S    
Ba2   P4    S    
C28   H29   S    
C5    C9    S    
O33   S6    S    
O35   S7    D    
Ba1   P1    S    
C29   H22   S    
C29   C30   A    
C12   O14   S    
C21   C32   S    
C44   H54   S    
C18   C19   A    
C31   C32   T    
O23   P3    S    
O5    P2    S    
C39   H66   S    
H37   O30   S    
C23   O7    S    
C50   H14   S    
C38   S5    S    
C1    C12   S    
O32   S6    D    
C20   C47   S    
C40   H33   S    
C35   H1    S    
O8    P8    D    
C16   H27   S    
C38   C39   S    
C46   H59   S    
C10   H18   S    
C8    N4    A    
C11   P4    S    
C43   H48   S    
C51   S10   S    
O20   S1    S    
O3    P5    S    
C9    N3    A    
C40   H35   S    
Ba2   O45   S    
C28   O52   S    
N1    N2    A    
C48   H9    S    
C45   O3    S    
O21   S3    D    
H31   O24   S    
O25   S4    D    
O53   P7    S    
O50   S2    S    
C47   H62   S    
O2    P5    D    
O4    P1    S    
O44   S10   D    
O36   S7    D    
O6    P7    D    
C49   H11   S    
Ba1   O4    S    
C2    C3    S    
C4    H24   S    
C23   S7    S    
O9    P8    S    
C49   O9    S    
C38   H56   S    
O14   P6    S    
C24   P3    S    
O24   S3    S    
C48   H8    S    
C3    C44   S    
C27   C33   A    
C33   H25   S    
O26   S4    D    
C41   H39   S    
H43   O40   S    
O48   S2    D    
C36   H34   S    
C40   H36   S    
C30   C31   S    
C28   H28   S    
O19   S1    D    
Ba1   O1    S    
O12   P2    S    
C27   C29   A    
O7    P7    S    
Ba2   O51   S    
O27   S4    S    
H30   O20   S    
Ba1   P2    S    
O47   S10   S    
C18   C24   A    
Ba2   O34   S    
C12   S1    S    
C44   H53   S    
O39   S8    D    
C41   H40   S    
C2    P6    S    
C26   P7    S    
C34   C42   S    
C43   H49   S    
C7    P1    S    
C23   C34   S    
H51   O43   S    
C1    H5    S    
C16   H6    S    
C19   P2    S    
C46   H58   S    
C7    C51   D    
C10   C11   A    
H41   O33   S    
O45   P4    S    
C25   C26   A    
C37   S4    S    
C20   C21   A    
O18   S1    D    
O49   S2    D    
N3    N4    A    
C49   H13   S    
C8    N1    A    
Ba1   O15   S    
O54   P5    S    
C12   C41   S    
C18   S2    S    
Ba2   O5    S    
