data_mof_unit_26836.cif
_audit_creation_date              2012-12-11T15:07:30-0500
_audit_creation_method            fapswitch 2.2
_symmetry_space_group_name_H-M    P1
_symmetry_Int_Tables_number       1
_space_group_crystal_system       triclinic
_cell_length_a                    21.718555
_cell_length_b                    7.197381
_cell_length_c                    18.567253
_cell_angle_alpha                 90.006647
_cell_angle_beta                  96.15547
_cell_angle_gamma                 90.002267
_cell_volume                      2885.63863942

loop_
_atom_site_label
_atom_site_type_symbol
_atom_type_description
_atom_site_fract_x
_atom_site_fract_y
_atom_site_fract_z
_atom_type_partial_charge
O1    O     O_R   0.449650 0.506500 0.414480 -0.529617
O2    O     O_R   0.550350 0.006500 0.585520 -0.529656
O3    O     O_R   0.432010 0.173150 0.560250 -0.510280
O4    O     O_R   0.567990 0.673150 0.439750 -0.510296
C1    C     C_R   0.416247 0.344256 0.581007 0.722647
C2    C     C_R   0.583755 0.844250 0.418996 0.722759
O5    O     O_R   0.442320 0.176650 0.413480 -0.540306
O6    O     O_R   0.557680 0.676650 0.586520 -0.540305
O7    O     O_R   0.560730 0.008380 0.437700 -0.541612
O8    O     O_R   0.439270 0.508380 0.562300 -0.541606
C3    C     C_R   0.428535 0.345024 0.387473 0.684127
C4    C     C_R   0.571462 0.845044 0.612528 0.684088
O9    O     O_3   0.538840 0.339860 0.508120 -0.374123
O10   O     O_3   0.461160 0.839860 0.491880 -0.374095
V1    V     V_3+5 0.492800 0.064220 0.498490 1.484083
V2    V     V_3+5 0.507200 0.564220 0.501510 1.484078
C5    C     C_R   0.868927 0.030382 0.691377 0.413470
C6    C     C_R   0.131106 0.530770 0.308599 0.413450
H1    H     H_    0.953956 0.077094 0.760388 0.130644
H2    H     H_    0.046088 0.577502 0.239580 0.130650
C7    C     C_R   0.886427 0.945524 0.818881 -0.153766
C8    C     C_R   0.113578 0.445610 0.181118 -0.153785
C9    C     C_R   0.586878 0.820144 0.745316 -0.154061
C10   C     C_R   0.413102 0.319817 0.254691 -0.153967
C11   C     C_R   0.623073 0.827830 0.811613 -0.152226
C12   C     C_R   0.376904 0.327398 0.188395 -0.152224
C13   C     C_R   0.686583 0.860024 0.814881 -0.104543
C14   C     C_R   0.313401 0.359715 0.185125 -0.104532
C15   C     C_R   0.716464 0.879966 0.751180 0.094949
C16   C     C_R   0.283531 0.379890 0.248823 0.094941
C17   C     C_R   0.678098 0.884979 0.683624 0.005608
C18   C     C_R   0.321903 0.385014 0.316375 0.005601
C19   C     C_R   0.782290 0.907986 0.752849 -0.155891
C20   C     C_R   0.217710 0.408027 0.247152 -0.155904
C21   C     C_R   0.806371 0.970452 0.688267 -0.059604
C22   C     C_R   0.193648 0.470712 0.311720 -0.059602
C23   C     C_R   0.767402 0.971633 0.621822 0.502507
C24   C     C_R   0.232620 0.471979 0.378162 0.502525
C25   C     C_R   0.704705 0.927554 0.620335 -0.303565
C26   C     C_R   0.295308 0.427793 0.379656 -0.303551
C27   C     C_R   0.825463 0.876774 0.816055 0.386389
C28   C     C_R   0.174525 0.376726 0.183959 0.386404
C29   C     C_R   0.907005 0.024150 0.757337 -0.363605
C30   C     C_R   0.093025 0.524453 0.242642 -0.363631
C31   C     C_R   0.613220 0.851483 0.681009 -0.055787
C32   C     C_R   0.386774 0.351397 0.318993 -0.055797
H3    H     H_    0.537612 0.794430 0.744244 0.128672
H4    H     H_    0.462361 0.293995 0.255764 0.128655
H5    H     H_    0.710381 0.877885 0.868292 0.183957
H6    H     H_    0.289602 0.377477 0.131711 0.183979
H7    H     H_    0.601548 0.811275 0.861186 0.133530
H8    H     H_    0.398420 0.310660 0.138823 0.133534
H9    H     H_    0.676384 0.934730 0.568722 0.120195
H10   H     H_    0.323632 0.435038 0.431266 0.120239
C33   C     C_R   0.636876 0.716400 0.315149 0.361477
C34   C     C_R   0.363121 0.216403 0.684844 0.361399
C35   C     C_R   0.632789 0.853166 0.368899 -0.156933
C36   C     C_R   0.367220 0.353187 0.631113 -0.157076
C37   C     C_R   0.673309 0.004940 0.372374 -0.259784
C38   C     C_R   0.326711 0.504977 0.627660 -0.259737
C39   C     C_R   0.718450 0.020872 0.324298 0.141274
C40   C     C_R   0.281568 0.520901 0.675733 0.141248
C41   C     C_R   0.725081 0.880607 0.272344 -0.028684
C42   C     C_R   0.274937 0.380646 0.727680 -0.028728
C43   C     C_R   0.684622 0.725360 0.267903 -0.069388
C44   C     C_R   0.315399 0.225417 0.732116 -0.069250
C45   C     C_R   0.756664 0.177455 0.327288 -0.098194
C46   C     C_R   0.243352 0.677466 0.672749 -0.098431
C47   C     C_R   0.801927 0.195991 0.280153 -0.177830
C48   C     C_R   0.198082 0.695986 0.719877 -0.177917
C49   C     C_R   0.811364 0.056007 0.229379 0.029606
C50   C     C_R   0.188644 0.556008 0.770642 0.029680
C51   C     C_R   0.771668 0.898273 0.224451 -0.094378
C52   C     C_R   0.228348 0.398303 0.775571 -0.094353
C53   C     C_R   0.778395 0.759421 0.171870 -0.050032
C54   C     C_R   0.221623 0.259468 0.828148 -0.050088
C55   C     C_R   0.739844 0.599697 0.169513 0.300759
C56   C     C_R   0.260196 0.099800 0.830522 0.300573
C57   C     C_R   0.692495 0.584462 0.216407 0.242914
C58   C     C_R   0.307555 0.084591 0.783639 0.243204
C59   C     C_R   0.858842 0.072339 0.182677 0.252396
C60   C     C_R   0.141159 0.572319 0.817333 0.252364
C61   C     C_R   0.864302 0.937914 0.128537 -0.189530
C62   C     C_R   0.135699 0.437910 0.871467 -0.189539
C63   C     C_R   0.824265 0.782400 0.123357 0.303927
C64   C     C_R   0.175743 0.282425 0.876650 0.303932
H11   H     H_    0.669524 0.112112 0.412747 0.162928
H12   H     H_    0.330500 0.612151 0.587297 0.162975
H13   H     H_    0.751079 0.287713 0.365843 0.130815
H14   H     H_    0.248936 0.787717 0.634200 0.130884
H15   H     H_    0.828483 0.323361 0.283370 0.128236
H16   H     H_    0.171521 0.823338 0.716663 0.128253
O11   O     O_R   0.060820 0.290050 0.937800 -0.537025
O12   O     O_R   0.939180 0.790050 0.062200 -0.537063
O13   O     O_R   0.057690 0.616620 0.086540 -0.554762
O14   O     O_R   0.942310 0.116620 0.913460 -0.554733
C65   C     C_R   0.071553 0.448959 0.112741 0.776812
C66   C     C_R   0.928450 0.948939 0.887258 0.776844
O15   O     O_R   0.068010 0.619890 0.939770 -0.514774
O16   O     O_R   0.931990 0.119890 0.060230 -0.514774
O17   O     O_R   0.949640 0.787940 0.914460 -0.525527
O18   O     O_R   0.050360 0.287940 0.085540 -0.525492
C67   C     C_R   0.084840 0.450852 0.919680 0.794990
C68   C     C_R   0.915159 0.950856 0.080320 0.794963
O19   O     O_3   0.961210 0.453080 0.991940 -0.380469
O20   O     O_3   0.038790 0.953080 0.008060 -0.380434
V3    V     V_3+5 0.007200 0.728820 0.001500 1.486801
V4    V     V_3+5 0.992800 0.228820 0.998500 1.486874
O21   O     O_3   0.901496 0.215326 0.189684 -0.645095
H17   H     H_    0.913005 0.238911 0.241913 0.276620
O22   O     O_3   0.098493 0.715265 0.810318 -0.645109
H18   H     H_    0.086991 0.738817 0.758088 0.276619
O23   O     O_3   0.829162 0.656595 0.068525 -0.591121
H19   H     H_    0.852474 0.549728 0.091644 0.338579
O24   O     O_3   0.170838 0.156627 0.931472 -0.591063
H20   H     H_    0.147563 0.049694 0.908331 0.338577
O25   O     O_3   0.749559 0.457860 0.121819 -0.624698
H21   H     H_    0.738866 0.337524 0.143072 0.305971
O26   O     O_3   0.250501 0.957991 0.878225 -0.624698
H22   H     H_    0.261189 0.837649 0.856962 0.305946
O27   O     O_3   0.654539 0.430116 0.213299 -0.632918
H23   H     H_    0.645007 0.393283 0.161886 0.294669
O28   O     O_3   0.345566 0.930371 0.786803 -0.632833
H24   H     H_    0.355064 0.893583 0.838223 0.294712
O29   O     O_3   0.789292 0.027507 0.557927 -0.523613
C69   C     C_3   0.797558 0.869165 0.515191 -0.166937
H25   H     H_    0.752598 0.801076 0.496949 0.107876
H26   H     H_    0.829888 0.767906 0.544615 0.141252
H27   H     H_    0.818358 0.913680 0.465961 0.164375
O30   O     O_3   0.210743 0.528024 0.442048 -0.523612
C70   C     C_3   0.202439 0.369781 0.484809 -0.166977
H28   H     H_    0.247382 0.301623 0.503058 0.107900
H29   H     H_    0.170081 0.268541 0.455403 0.141260
H30   H     H_    0.181652 0.414435 0.534035 0.164384
O31   O     O_3   0.891793 0.100491 0.630201 -0.609175
H31   H     H_    0.935937 0.135159 0.641822 0.285708
O32   O     O_3   0.108261 0.601092 0.369758 -0.609171
H32   H     H_    0.064122 0.635812 0.358130 0.285697
O33   O     O_3   0.809739 0.778248 0.875310 -0.561430
C71   C     C_3   0.813182 0.586745 0.859953 -0.162688
H33   H     H_    0.860487 0.546173 0.847908 0.132103
H34   H     H_    0.778358 0.545895 0.814349 0.123552
H35   H     H_    0.802814 0.507589 0.908475 0.188344
O34   O     O_3   0.190223 0.278001 0.124731 -0.561391
C72   C     C_3   0.186746 0.086548 0.140150 -0.162580
H36   H     H_    0.197115 0.007233 0.091657 0.188221
H37   H     H_    0.139428 0.046089 0.152189 0.132100
H38   H     H_    0.221552 0.045773 0.185780 0.123533
O35   O     O_3   0.591773 0.581276 0.307574 -0.614307
H39   H     H_    0.571039 0.593139 0.257527 0.305372
O36   O     O_3   0.408173 0.081136 0.692363 -0.614139
H40   H     H_    0.429047 0.093332 0.742349 0.305237

loop_
_geom_bond_atom_site_label_1
_geom_bond_atom_site_label_2
_ccdc_geom_bond_type
O17   V3    S    
O15   C67   A    
C41   C43   A    
C69   H25   S    
C9    C31   A    
C13   C15   A    
O22   H18   S    
O1    C3    A    
C71   H35   S    
C45   H13   S    
C70   H30   S    
O2    C4    A    
O11   C67   A    
C2    O7    A    
C5    C29   A    
C72   H36   S    
C38   H12   S    
O35   H39   S    
O28   H24   S    
C25   H9    S    
O5    C3    A    
C57   O27   S    
C52   C54   A    
C1    C36   S    
C43   C57   A    
C24   O30   S    
C21   C23   A    
C54   C56   A    
C55   O25   S    
O11   V4    S    
C56   C58   A    
C35   C37   A    
O20   V3    S    
C36   C38   A    
O24   H20   S    
C15   C19   A    
O16   C68   A    
C38   C40   A    
C47   C49   A    
C60   C62   A    
C40   C42   A    
C72   H37   S    
C7    C29   A    
C14   H6    S    
C53   C63   A    
C8    C30   A    
C17   C25   A    
C20   C28   A    
O14   C66   A    
C5    O31   S    
C46   H14   S    
O36   H40   S    
O18   V4    S    
C65   O18   A    
O5    V1    S    
O14   V4    S    
O12   C68   A    
O6    V2    S    
C8    C65   S    
C51   C53   A    
C2    C35   S    
C33   C43   A    
H1    C29   S    
C33   O35   S    
C23   O29   S    
C55   C57   A    
O19   V4    S    
O12   V3    S    
O16   V4    S    
C37   C39   A    
C61   C68   S    
C16   C20   A    
C10   H4    S    
O31   H31   S    
C9    H3    S    
C71   H33   S    
C50   C52   A    
C49   C51   A    
O34   C72   S    
C41   C51   A    
C69   H27   S    
C70   H29   S    
C64   O24   S    
C45   C47   A    
C42   C44   A    
O4    V2    S    
C6    O32   S    
C11   H7    S    
C12   H8    S    
C39   C45   A    
O6    C4    A    
C39   C41   A    
O1    V2    S    
C34   O36   S    
O2    V1    S    
C53   C55   A    
O27   H23   S    
O13   V3    S    
C7    C27   A    
O4    C2    A    
C61   C63   A    
C59   O21   S    
H2    C30   S    
C26   H10   S    
C33   C35   A    
C28   O34   S    
O29   C69   S    
C70   H28   S    
C54   C64   A    
C6    C30   A    
C72   H38   S    
O3    V1    S    
O33   C71   S    
O23   H19   S    
C62   C67   S    
C69   H26   S    
C44   C58   A    
C18   C32   A    
C48   H16   S    
C10   C12   A    
C4    C31   S    
O3    C1    A    
C59   C61   A    
O26   H22   S    
O13   C65   A    
C14   C16   A    
C71   H34   S    
C11   C13   A    
C66   O17   A    
O15   V3    S    
O32   H32   S    
C12   C14   A    
C40   C46   A    
C19   C27   A    
C60   O22   S    
C63   O23   S    
O30   C70   S    
O7    V1    S    
C10   C32   A    
C1    O8    A    
C15   C17   A    
O8    V2    S    
O25   H21   S    
C16   C18   A    
C7    C66   S    
C8    C28   A    
C24   C26   A    
C34   C44   A    
C22   C24   A    
C19   C21   A    
C34   C36   A    
C56   O26   S    
C20   C22   A    
C18   C26   A    
C37   H11   S    
C27   O33   S    
C9    C11   A    
C23   C25   A    
C17   C31   A    
O9    V2    S    
O21   H17   S    
C46   C48   A    
C42   C52   A    
O10   V1    S    
C62   C64   A    
C3    C32   S    
C48   C50   A    
C5    C21   A    
C47   H15   S    
C6    C22   A    
C50   C60   A    
C13   H5    S    
C49   C59   A    
C58   O28   S    
