data_mof_unit_27015.cif
_audit_creation_date              2013-03-05T16:35:53-0500
_audit_creation_method            fapswitch 2.2
_symmetry_space_group_name_H-M    P1
_symmetry_Int_Tables_number       1
_space_group_crystal_system       monoclinic
_cell_length_a                    23.527986
_cell_length_b                    9.088079
_cell_length_c                    7.780592
_cell_angle_alpha                 90.037526
_cell_angle_beta                  90.0
_cell_angle_gamma                 90.0
_cell_volume                      1663.67846792

loop_
_atom_site_label
_atom_site_type_symbol
_atom_site_description
_atom_site_fract_x
_atom_site_fract_y
_atom_site_fract_z
_atom_type_partial_charge
O1    O     O_R   0.500000 0.288390 0.642760 -0.574900
O2    O     O_R   0.500000 0.711610 0.357240 -0.574900
O3    O     O_R   0.500000 0.711610 0.642760 -0.574519
O4    O     O_R   0.500000 0.288390 0.357240 -0.574519
C1    C     C_R   0.500000 0.220008 0.499966 0.852628
C2    C     C_R   0.500000 0.779992 0.500034 0.852628
O5    O     O_R   0.417880 0.500000 0.642820 -0.585099
O6    O     O_R   0.582120 0.500000 0.357180 -0.585078
O7    O     O_R   0.582120 0.500000 0.642820 -0.585078
O8    O     O_R   0.417880 0.500000 0.357180 -0.585099
C3    C     C_R   0.208797 0.500000 0.500000 0.360478
C4    C     C_R   0.791207 0.500000 0.500000 0.358821
C5    C     C_R   0.390582 0.500000 0.500000 0.796587
C6    C     C_R   0.609414 0.500000 0.500000 0.796578
Cu1   Cu    Cu3+1 0.500000 0.500000 0.669080 1.007472
Cu2   Cu    Cu3+1 0.500000 0.500000 0.330920 1.007472
C7    C     C_R   0.297803 0.494266 0.655918 -0.205841
C8    C     C_R   0.702181 0.489326 0.655469 -0.206472
C9    C     C_R   0.297803 0.505734 0.344082 -0.205840
C10   C     C_R   0.702181 0.510673 0.344531 -0.206472
C11   C     C_R   0.327989 0.500000 0.500000 -0.038679
C12   C     C_R   0.672001 0.500000 0.500000 -0.038655
C13   C     C_R   0.880497 0.628922 0.469666 0.535849
C14   C     C_R   0.119546 0.371100 0.530458 0.536052
C15   C     C_R   0.880497 0.371078 0.530334 0.535849
C16   C     C_R   0.119546 0.628900 0.469542 0.536052
N1    N     N_R   0.852100 0.500000 0.500000 -0.474109
N2    N     N_R   0.147926 0.500000 0.500000 -0.474418
C17   C     C_R   0.940114 0.368323 0.530865 -0.013443
C18   C     C_R   0.059931 0.631677 0.469091 -0.013595
C19   C     C_R   0.940114 0.631677 0.469135 -0.013443
C20   C     C_R   0.059931 0.368323 0.530909 -0.013595
C21   C     C_R   0.970033 0.500000 0.500000 -0.017340
C22   C     C_R   0.030011 0.500000 0.500000 -0.017322
C23   C     C_R   0.970373 0.237561 0.561077 -0.164901
C24   C     C_R   0.029672 0.762437 0.438886 -0.164962
C25   C     C_R   0.970373 0.762439 0.438923 -0.164901
C26   C     C_R   0.029672 0.237563 0.561114 -0.164962
C27   C     C_1   0.500000 0.065378 0.499953 -0.166526
C28   C     C_1   0.500000 0.934622 0.500047 -0.166527
C29   C     C_R   0.238535 0.493991 0.655698 -0.098932
C30   C     C_R   0.761448 0.489009 0.655238 -0.098354
C31   C     C_R   0.238535 0.506008 0.344302 -0.098932
C32   C     C_R   0.761448 0.510991 0.344761 -0.098354
N3    N     N_1   0.500000 0.500000 0.076820 -0.049445
N4    N     N_1   0.500000 0.500000 0.923180 -0.049445
O9    O     O_2   0.851083 0.754029 0.441155 -0.515162
O10   O     O_2   0.148980 0.246078 0.559280 -0.514777
O11   O     O_2   0.851083 0.245971 0.558845 -0.515162
O12   O     O_2   0.148980 0.753922 0.440720 -0.514777
H1    H     H_    0.948372 0.134867 0.584822 0.188925
H2    H     H_    0.051675 0.865125 0.415115 0.188883
H3    H     H_    0.948372 0.865133 0.415178 0.188925
H4    H     H_    0.051675 0.134875 0.584885 0.188883
H5    H     H_    0.215651 0.489579 0.776416 0.136967
H6    H     H_    0.784318 0.480703 0.775633 0.137981
H7    H     H_    0.215651 0.510421 0.223584 0.136967
H8    H     H_    0.784318 0.519297 0.224367 0.137981
H9    H     H_    0.319916 0.489804 0.777950 0.160548
H10   H     H_    0.680059 0.480855 0.777126 0.160728
H11   H     H_    0.319916 0.510196 0.222050 0.160548
H12   H     H_    0.680059 0.519145 0.222874 0.160729

loop_
_geom_bond_atom_site_label_1
_geom_bond_atom_site_label_2
_geom_bond_distance
_ccdc_geom_bond_type
Cu2   N3    1.977048 S    
O4    Cu2   1.934135 S    
C14   C20   1.402864 A    
O7    C6    1.283437 A    
C19   C21   1.409130 A    
C3    C31   1.400053 A    
O1    Cu1   1.933869 S    
C13   N1    1.369401 A    
C15   N1    1.369401 A    
O2    Cu2   1.933868 S    
C17   C23   1.405255 A    
C16   N2    1.369189 A    
C24   H2    1.083214 S    
C18   C24   1.405213 A    
O3    C2    1.272912 A    
C25   H3    1.083212 S    
C6    C12   1.472534 S    
C16   O12   1.349504 S    
O5    Cu1   1.942894 S    
C21   C22   1.411157 A    
O7    Cu1   1.942891 S    
C5    C11   1.472697 S    
C4    C32   1.399738 A    
O8    Cu2   1.942894 S    
N3    N4    1.195411 T    
C10   H12   1.083014 S    
O2    C2    1.272667 A    
C3    N2    1.432179 S    
C7    H9    1.083477 S    
O1    C1    1.272667 A    
C8    H10   1.083014 S    
C24   C25   1.395188 A    
C10   C32   1.394435 A    
C9    H11   1.083478 S    
C16   C18   1.402864 A    
C7    C29   1.394446 A    
C20   C26   1.405213 A    
C8    C30   1.394435 A    
C19   C25   1.405254 A    
C23   H1    1.083213 S    
C15   O11   1.349515 S    
C13   C19   1.402879 A    
C13   O9    1.349515 S    
C18   C22   1.409193 A    
C4    N1    1.432687 S    
C4    C30   1.399738 A    
Cu1   Cu2   2.631086 S    
C14   O10   1.349504 S    
C17   C21   1.409130 A    
O5    C5    1.283478 A    
C2    C28   1.405292 S    
O3    Cu1   1.934134 S    
C15   C17   1.402879 A    
O6    Cu2   1.942891 S    
C3    C29   1.400053 A    
C32   H8    1.082959 S    
C27   C28   1.188317 T    
C1    C27   1.405292 S    
C31   H7    1.083406 S    
C23   C26   1.395186 A    
C29   H5    1.083406 S    
O6    C6    1.283438 A    
C9    C31   1.394446 A    
Cu1   N4    1.977048 S    
C30   H6    1.082959 S    
C20   C22   1.409193 A    
C8    C12   1.406061 A    
C7    C11   1.406736 A    
C14   N2    1.369189 A    
C10   C12   1.406061 A    
O4    C1    1.272912 A    
C9    C11   1.406736 A    
O8    C5    1.283479 A    
C26   H4    1.083213 S    
