data_mof_unit_18449.cif
_audit_creation_date              2012-12-11T15:16:47-0500
_audit_creation_method            fapswitch 2.2
_symmetry_space_group_name_H-M    P1
_symmetry_Int_Tables_number       1
_space_group_crystal_system       triclinic
_cell_length_a                    25.081476
_cell_length_b                    7.2324
_cell_length_c                    21.947261
_cell_angle_alpha                 89.999828
_cell_angle_beta                  110.265021
_cell_angle_gamma                 89.999958
_cell_volume                      3734.78196638

loop_
_atom_site_label
_atom_site_type_symbol
_atom_type_description
_atom_site_fract_x
_atom_site_fract_y
_atom_site_fract_z
_atom_type_partial_charge
O1    O     O_R   0.554350 0.505270 0.581390 -0.531134
O2    O     O_R   0.445650 0.005270 0.418610 -0.531134
O3    O     O_R   0.553380 0.177580 0.454800 -0.540834
O4    O     O_R   0.446620 0.677580 0.545200 -0.540833
C1    C     C_R   0.565908 0.344557 0.438341 0.676718
C2    C     C_R   0.434091 0.844557 0.561659 0.676716
O5    O     O_R   0.560970 0.175640 0.583140 -0.532658
O6    O     O_R   0.439030 0.675640 0.416860 -0.532658
O7    O     O_R   0.453290 0.004120 0.547860 -0.538519
O8    O     O_R   0.546710 0.504120 0.452140 -0.538521
C3    C     C_R   0.576128 0.343961 0.607528 0.677298
C4    C     C_R   0.423872 0.843962 0.392472 0.677299
O9    O     O_3   0.464660 0.338800 0.488280 -0.372807
O10   O     O_3   0.535340 0.838800 0.511720 -0.372807
V1    V     V_3+5 0.506560 0.064420 0.502170 1.414006
V2    V     V_3+5 0.493440 0.564420 0.497830 1.414005
C5    C     C_R   0.147350 0.971418 0.290294 -0.151605
C6    C     C_R   0.852648 0.471453 0.709707 -0.151605
H1    H     H_    0.233187 0.964903 0.402299 0.129728
H2    H     H_    0.766810 0.464957 0.597702 0.129728
H3    H     H_    0.135777 0.994941 0.332914 0.119858
H4    H     H_    0.864221 0.494993 0.667087 0.119858
C7    C     C_R   0.119770 0.942183 0.173327 -0.045668
C8    C     C_R   0.880230 0.442187 0.826673 -0.045669
C9    C     C_R   0.396467 0.819084 0.273790 -0.158565
C10   C     C_R   0.603534 0.319057 0.726209 -0.158564
C11   C     C_R   0.356955 0.818831 0.211073 -0.115472
C12   C     C_R   0.643047 0.318792 0.788926 -0.115474
C13   C     C_R   0.299486 0.848713 0.200154 -0.156936
C14   C     C_R   0.700516 0.348684 0.799846 -0.156936
C15   C     C_R   0.279740 0.880234 0.252336 0.087605
C16   C     C_R   0.720260 0.380228 0.747664 0.087605
C17   C     C_R   0.320825 0.881687 0.316881 0.066929
C18   C     C_R   0.679174 0.381694 0.683119 0.066929
C19   C     C_R   0.220699 0.909810 0.242633 0.074563
C20   C     C_R   0.779300 0.409814 0.757367 0.074563
C21   C     C_R   0.204531 0.940776 0.297701 0.095483
C22   C     C_R   0.795468 0.440801 0.702299 0.095484
C23   C     C_R   0.245460 0.941484 0.360177 -0.185556
C24   C     C_R   0.754538 0.441522 0.639824 -0.185557
C25   C     C_R   0.302557 0.912323 0.369707 -0.186790
C26   C     C_R   0.697442 0.412352 0.630293 -0.186791
C27   C     C_R   0.177008 0.910288 0.180425 -0.257433
C28   C     C_R   0.822992 0.410280 0.819575 -0.257434
C29   C     C_R   0.104894 0.973187 0.228739 0.151502
C30   C     C_R   0.895105 0.473213 0.771261 0.151501
C31   C     C_R   0.379396 0.850688 0.327122 -0.080937
C32   C     C_R   0.620604 0.350684 0.672878 -0.080939
H5    H     H_    0.185964 0.888155 0.136378 0.104748
H6    H     H_    0.814037 0.388132 0.863621 0.104750
H7    H     H_    0.440823 0.794248 0.280831 0.107973
H8    H     H_    0.559179 0.294210 0.719168 0.107975
H9    H     H_    0.271635 0.845889 0.150216 0.111614
H10   H     H_    0.728366 0.345849 0.849783 0.111614
H11   H     H_    0.370998 0.794502 0.170341 0.126201
H12   H     H_    0.629005 0.294444 0.829657 0.126201
H13   H     H_    0.332398 0.913999 0.419079 0.110181
H14   H     H_    0.667601 0.414037 0.580922 0.110184
C33   C     C_R   0.119017 0.765480 0.879567 -0.160080
C34   C     C_R   0.880997 0.265482 0.120449 -0.160080
H15   H     H_    0.103159 0.637552 0.892483 0.125877
H16   H     H_    0.896865 0.137555 0.107546 0.125877
C35   C     C_R   0.154546 0.755656 0.842534 -0.136390
C36   C     C_R   0.845468 0.255658 0.157482 -0.136390
H17   H     H_    0.164914 0.620768 0.828334 0.134759
H18   H     H_    0.835110 0.120771 0.171694 0.134761
C37   C     C_R   0.176206 0.917251 0.824013 0.019649
C38   C     C_R   0.823794 0.417251 0.175988 0.019649
C39   C     C_R   0.161341 0.089134 0.843699 -0.134244
C40   C     C_R   0.838646 0.589132 0.156286 -0.134244
H19   H     H_    0.177102 0.216670 0.830383 0.138811
H20   H     H_    0.822875 0.716667 0.169589 0.138811
C41   C     C_R   0.125796 0.099068 0.880817 -0.160756
C42   C     C_R   0.874191 0.599066 0.119168 -0.160761
H21   H     H_    0.115246 0.234040 0.894760 0.122195
H22   H     H_    0.884732 0.734037 0.105212 0.122199
C43   C     C_R   0.104091 0.937313 0.899344 -0.047694
C44   C     C_R   0.895909 0.437312 0.100656 -0.047693
N1    N     N_R   0.234614 0.062016 0.765939 -0.280312
N2    N     N_R   0.765363 0.562014 0.234033 -0.280312
N3    N     N_R   0.268396 0.051984 0.730611 -0.284061
N4    N     N_R   0.731581 0.551983 0.269361 -0.284060
C45   C     C_R   0.283083 0.885771 0.712100 0.513462
C46   C     C_R   0.716917 0.385772 0.287899 0.513459
N5    N     N_R   0.262383 0.730023 0.730560 -0.280374
N6    N     N_R   0.737639 0.230025 0.269467 -0.280374
N7    N     N_R   0.228593 0.740055 0.765878 -0.283939
N8    N     N_R   0.771429 0.240058 0.234149 -0.283938
C47   C     C_R   0.213936 0.906262 0.784424 0.513651
C48   C     C_R   0.786064 0.406262 0.215576 0.513648
C49   C     C_R   0.336850 0.702686 0.654248 -0.135253
C50   C     C_R   0.663161 0.202688 0.345766 -0.135253
H23   H     H_    0.321322 0.575125 0.667851 0.138598
H24   H     H_    0.678698 0.075128 0.332175 0.138599
C51   C     C_R   0.373102 0.692632 0.617986 -0.159192
C52   C     C_R   0.626909 0.192635 0.382028 -0.159196
H25   H     H_    0.384362 0.557588 0.604883 0.121417
H26   H     H_    0.615659 0.057591 0.395143 0.121420
C53   C     C_R   0.394699 0.854389 0.599335 -0.048094
C54   C     C_R   0.605301 0.354390 0.400665 -0.048093
C55   C     C_R   0.378646 0.026385 0.617716 -0.161597
C56   C     C_R   0.621342 0.526386 0.382269 -0.161593
H27   H     H_    0.394180 0.154296 0.604361 0.123531
H28   H     H_    0.605798 0.654295 0.395612 0.123529
C57   C     C_R   0.342428 0.036350 0.653920 -0.138748
C58   C     C_R   0.657559 0.536350 0.346064 -0.138749
H29   H     H_    0.331295 0.171361 0.667191 0.134515
H30   H     H_    0.668683 0.671361 0.332782 0.134516
C59   C     C_R   0.321128 0.874715 0.672890 0.020012
C60   C     C_R   0.678872 0.374716 0.327109 0.020013
O11   O     O_R   0.953220 0.285790 0.047790 -0.538005
O12   O     O_R   0.046780 0.785790 0.952210 -0.538005
O13   O     O_R   0.939020 0.617570 0.916840 -0.534338
O14   O     O_R   0.060980 0.117570 0.083160 -0.534337
C61   C     C_R   0.924123 0.448731 0.892356 0.701304
C62   C     C_R   0.075877 0.948731 0.107644 0.701303
O15   O     O_R   0.946600 0.615450 0.045180 -0.540990
O16   O     O_R   0.053400 0.115450 0.954820 -0.540990
O17   O     O_R   0.054370 0.786770 0.081410 -0.531852
O18   O     O_R   0.945630 0.286770 0.918590 -0.531852
C63   C     C_R   0.934455 0.446997 0.061913 0.674070
C64   C     C_R   0.065545 0.946997 0.938087 0.674070
O19   O     O_3   0.035300 0.454160 0.011680 -0.372798
O20   O     O_3   0.964700 0.954160 0.988320 -0.372798
V3    V     V_3+5 0.993450 0.728620 0.997830 1.407178
V4    V     V_3+5 0.006550 0.228620 0.002170 1.407179
C65   C     C_3   0.043976 0.007610 0.222771 -0.781087
H31   H     H_    0.039485 0.026656 0.270979 0.211154
H32   H     H_    0.027968 0.134439 0.193656 0.209951
H33   H     H_    0.017224 0.888158 0.198435 0.200175
C66   C     C_3   0.956022 0.507648 0.777230 -0.781082
H34   H     H_    0.960512 0.526710 0.729022 0.211153
H35   H     H_    0.972029 0.634471 0.806347 0.209956
H36   H     H_    0.982775 0.388194 0.801562 0.200171

loop_
_geom_bond_atom_site_label_1
_geom_bond_atom_site_label_2
_ccdc_geom_bond_type
C22   C24   A    
C35   H17   S    
C7    C29   A    
C11   C13   A    
O1    C3    A    
C37   C47   S    
C66   H36   S    
O2    C4    A    
C33   C43   A    
C2    O7    A    
C65   H32   S    
C12   H12   S    
C23   C25   A    
O5    C3    A    
C57   H29   S    
C34   C44   A    
C42   H22   S    
C16   C20   A    
C19   C21   A    
C5    C29   A    
O14   V4    S    
N6    N8    A    
O11   C63   A    
C51   C53   A    
C50   C52   A    
C7    C27   A    
C34   H16   S    
O16   C64   A    
C39   H19   S    
C44   C63   S    
O15   C63   A    
C43   C64   S    
C7    C62   S    
C18   C26   A    
C52   H26   S    
C40   C42   A    
C38   C48   S    
C45   C59   S    
C39   C41   A    
C19   C27   A    
C9    C31   A    
C10   C32   A    
C58   H30   S    
O5    V1    S    
C55   H27   S    
C13   C15   A    
C41   H21   S    
C26   H14   S    
C3    C32   S    
C4    C31   S    
C6    C30   A    
C50   H24   S    
N3    C45   A    
N5    N7    A    
C55   C57   A    
C35   C37   A    
C33   H15   S    
N2    N4    A    
C30   C66   S    
N1    N3    A    
C27   H5    S    
O19   V4    S    
C66   H35   S    
C49   C51   A    
C5    H3    S    
C37   C39   A    
C16   C18   A    
O4    V2    S    
C9    H7    S    
O12   C64   A    
C10   H8    S    
C49   H23   S    
C14   H10   S    
C1    C54   S    
O6    C4    A    
O11   V4    S    
C15   C17   A    
O1    V2    S    
C5    C21   A    
C56   H28   S    
O2    V1    S    
O12   V3    S    
H1    C23   S    
O17   V3    S    
O4    C2    A    
C53   C55   A    
C8    C28   A    
N8    C48   A    
N4    C46   A    
N7    C47   A    
C17   C31   A    
C15   C19   A    
C20   C28   A    
C18   C32   A    
C66   H34   S    
C36   C38   A    
O3    V1    S    
C54   C56   A    
C58   C60   A    
C28   H6    S    
C57   C59   A    
C45   N5    A    
C6    H4    S    
C10   C12   A    
C46   N6    A    
O3    C1    A    
O14   C62   A    
C51   H25   S    
C9    C11   A    
C11   H11   S    
C33   C35   A    
C62   O17   A    
C34   C36   A    
C17   C25   A    
C2    C53   S    
C49   C59   A    
C20   C22   A    
C6    C22   A    
C65   H33   S    
C8    C30   A    
C1    O8    A    
C21   C23   A    
O8    V2    S    
C14   C16   A    
C50   C60   A    
C13   H9    S    
C29   C65   S    
H2    C24   S    
C52   C54   A    
C24   C26   A    
C12   C14   A    
C56   C58   A    
O18   V4    S    
N2    C48   A    
C46   C60   S    
N1    C47   A    
C25   H13   S    
O13   V3    S    
C8    C61   S    
O6    V2    S    
C61   O18   A    
C42   C44   A    
O9    V2    S    
C38   C40   A    
C41   C43   A    
O10   V1    S    
C40   H20   S    
O16   V4    S    
O15   V3    S    
C65   H31   S    
O7    V1    S    
C36   H18   S    
O20   V3    S    
O13   C61   A    
