data_mof_unit_31697.cif
_audit_creation_date              2012-12-10T17:41:00-0500
_audit_creation_method            fapswitch 2.2
_symmetry_space_group_name_H-M    P1
_symmetry_Int_Tables_number       1
_space_group_crystal_system       triclinic
_cell_length_a                    15.0036
_cell_length_b                    13.969862
_cell_length_c                    11.712638
_cell_angle_alpha                 89.297419
_cell_angle_beta                  84.393514
_cell_angle_gamma                 91.955337
_cell_volume                      2441.48169238

loop_
_atom_site_label
_atom_site_type_symbol
_atom_type_description
_atom_site_fract_x
_atom_site_fract_y
_atom_site_fract_z
_atom_type_partial_charge
C1    C     C_R   0.329010 0.498549 0.502395 0.883906
C2    C     C_R   0.670983 0.501446 0.497650 0.882184
C3    C     C_R   0.915952 0.539971 0.403600 -0.026761
C4    C     C_R   0.084036 0.459825 0.596712 -0.023041
C5    C     C_R   0.935297 0.445288 0.701360 0.339300
C6    C     C_R   0.064548 0.553752 0.298692 0.347944
C7    C     C_R   0.027557 0.426698 0.694543 0.293841
C8    C     C_R   0.972447 0.572898 0.305736 0.303811
C9    C     C_R   0.423359 0.793419 0.540053 0.478479
C10   C     C_R   0.576643 0.206578 0.459962 0.476041
C11   C     C_R   0.576501 0.799825 0.460914 0.454095
C12   C     C_R   0.423498 0.200174 0.539066 0.454502
C13   C     C_R   0.579826 0.900782 0.479904 -0.099198
C14   C     C_R   0.420173 0.099215 0.520079 -0.098699
C15   C     C_R   0.420105 0.894477 0.520553 -0.097723
C16   C     C_R   0.579894 0.105518 0.479452 -0.097462
C17   C     C_R   0.499978 0.948739 0.500037 0.032678
C18   C     C_R   0.500021 0.051257 0.499954 0.033636
C19   C     C_R   0.660643 0.956165 0.474877 -0.059793
C20   C     C_R   0.339356 0.043830 0.525114 -0.060248
C21   C     C_R   0.339311 0.943794 0.525819 -0.054549
C22   C     C_R   0.660688 0.056199 0.474188 -0.055475
C23   C     C_R   0.499779 0.500451 0.284337 0.863894
C24   C     C_R   0.500269 0.499554 0.715656 0.864657
C25   C     C_1   0.499880 0.501139 0.162487 -0.056009
C26   C     C_1   0.500279 0.498887 0.837492 -0.060718
C27   C     C_1   0.500031 0.500594 0.059943 0.061419
C28   C     C_1   0.500194 0.499452 0.940026 0.056465
C29   C     C_R   0.822376 0.540778 0.405516 -0.134773
C30   C     C_R   0.177650 0.459347 0.594815 -0.135696
C31   C     C_R   0.767509 0.504552 0.499724 -0.164286
C32   C     C_R   0.232467 0.495393 0.500440 -0.164348
C33   C     C_R   0.803855 0.468549 0.595269 0.672649
C34   C     C_R   0.196051 0.530909 0.404705 0.665120
C35   C     C_R   0.897121 0.472184 0.600370 -0.131117
C36   C     C_R   0.102785 0.527183 0.399750 -0.141670
C37   C     C_R   0.953300 0.502051 0.500644 -0.070627
C38   C     C_R   0.046643 0.497521 0.499598 -0.068486
Cu1   Cu    Cu3+1 0.500000 0.597420 0.500000 1.122033
Cu2   Cu    Cu3+1 0.500000 0.402580 0.500000 1.124065
H1    H     H_    0.790700 0.563884 0.331670 0.216489
H2    H     H_    0.209413 0.436520 0.668706 0.216143
H3    H     H_    0.724860 0.922926 0.471202 0.213853
H4    H     H_    0.275138 0.077069 0.528790 0.213726
H5    H     H_    0.275081 0.905737 0.530569 0.213484
H6    H     H_    0.724918 0.094254 0.469451 0.212996
N1    N     N_R   0.500000 0.743810 0.500000 -0.291830
N2    N     N_R   0.500000 0.256190 0.500000 -0.291606
O1    O     O_R   0.370260 0.582280 0.500020 -0.504686
O2    O     O_R   0.629740 0.417720 0.499980 -0.506086
O3    O     O_R   0.629740 0.582280 0.499980 -0.529181
O4    O     O_R   0.370260 0.417720 0.500020 -0.529809
O5    O     O_R   0.500010 0.582270 0.337200 -0.524560
O6    O     O_R   0.499990 0.417730 0.662800 -0.522253
O7    O     O_R   0.499990 0.582270 0.662800 -0.540989
O8    O     O_R   0.500010 0.417730 0.337200 -0.538911
F1    F     F_    0.747281 0.424404 0.678834 -0.609310
F2    F     F_    0.252525 0.574632 0.320698 -0.605908
S1    S     S_3+6 0.872969 0.457209 0.838117 0.144512
O9    O     O_2   0.820386 0.365650 0.870147 -0.161926
O10   O     O_2   0.934603 0.479682 0.928310 -0.156107
O11   O     O_3   0.801891 0.547503 0.833245 -0.495370
H7    H     H_    0.765466 0.544831 0.908540 0.385134
S2    S     S_3+6 0.126362 0.540861 0.161712 0.144350
O12   O     O_2   0.188784 0.459183 0.165969 -0.245249
O13   O     O_2   0.064121 0.519660 0.071830 -0.158420
O14   O     O_3   0.186569 0.642398 0.125650 -0.404818
H8    H     H_    0.219411 0.629422 0.050209 0.382223
S3    S     S_3+6 0.070741 0.353284 0.801009 0.087224
O15   O     O_2   0.128715 0.279558 0.742387 -0.217699
O16   O     O_2   0.126487 0.414793 0.873111 -0.254688
O17   O     O_3   0.989605 0.294374 0.886049 -0.420239
H9    H     H_    0.020842 0.264416 0.947297 0.398987
S4    S     S_3+6 0.929725 0.646940 0.199566 0.084238
O18   O     O_2   0.873749 0.586073 0.127061 -0.271028
O19   O     O_2   0.872143 0.720918 0.258364 -0.216901
O20   O     O_3   0.011456 0.705419 0.115017 -0.422139
H10   H     H_    0.980618 0.735776 0.053668 0.395964
S5    S     S_3+6 0.329869 0.743467 0.633023 0.047649
O21   O     O_2   0.299571 0.817830 0.718769 -0.255499
O22   O     O_2   0.254000 0.721166 0.561555 -0.296108
O23   O     O_3   0.349201 0.645758 0.709859 -0.517111
H11   H     H_    0.289392 0.622028 0.744048 0.364054
S6    S     S_3+6 0.670141 0.256529 0.367014 0.054317
O24   O     O_2   0.746002 0.278810 0.438502 -0.298424
O25   O     O_2   0.700445 0.182179 0.281257 -0.246298
O26   O     O_3   0.650816 0.354249 0.290193 -0.511373
H12   H     H_    0.710672 0.378275 0.256516 0.370141
S7    S     S_3+6 0.670481 0.756803 0.372618 0.059012
O27   O     O_2   0.705401 0.835020 0.288791 -0.252612
O28   O     O_2   0.742648 0.735609 0.448687 -0.268751
O29   O     O_3   0.649494 0.660588 0.294244 -0.532385
H13   H     H_    0.692821 0.665845 0.224834 0.384364
S8    S     S_3+6 0.329530 0.243190 0.627371 0.060697
O30   O     O_2   0.257345 0.264379 0.551326 -0.269971
O31   O     O_2   0.294634 0.164968 0.711205 -0.251173
O32   O     O_3   0.350526 0.339416 0.705725 -0.529391
H14   H     H_    0.307422 0.334006 0.775338 0.389216

loop_
_geom_bond_atom_site_label_1
_geom_bond_atom_site_label_2
_ccdc_geom_bond_type
Cu1   O3    S    
O26   H12   S    
C14   C18   A    
C11   N1    A    
S6    O26   S    
C12   N2    A    
O32   H14   S    
C23   O8    A    
O20   H10   S    
C24   O7    A    
C37   C38   A    
S4    O19   D    
C35   C37   A    
C24   C26   S    
C24   O6    A    
C22   H6    S    
C3    C29   A    
C9    S5    S    
C6    S2    S    
S3    O16   D    
Cu2   N2    S    
C2    O2    A    
Cu1   O7    S    
Cu2   O8    S    
S4    O20   S    
C16   C22   A    
C31   C33   A    
S7    O28   D    
S1    O9    D    
C12   S8    S    
S8    O30   D    
C4    C7    A    
C20   H4    S    
C19   H3    S    
C23   O5    A    
C21   H5    S    
S1    O10   D    
S4    O18   D    
C5    S1    S    
O14   H8    S    
S2    O14   S    
C14   C20   A    
C19   C22   A    
S6    O24   D    
C3    C8    A    
Cu1   Cu2   S    
C5    C7    A    
C13   C19   A    
C6    C8    A    
S8    O32   S    
Cu2   O4    S    
C1    C32   S    
C2    C31   S    
S2    O13   D    
S3    O17   S    
O11   H7    S    
C11   S7    S    
C8    S4    S    
C17   C18   A    
S7    O29   S    
S8    O31   D    
Cu1   O1    S    
C12   C14   A    
C9    N1    A    
Cu2   O6    S    
C10   N2    A    
Cu1   N1    S    
C15   C17   A    
S1    O11   S    
C33   F1    S    
C29   H1    S    
C26   C28   T    
S6    O25   D    
O17   H9    S    
C7    S3    S    
S5    O23   S    
C25   C27   T    
S5    O22   D    
C13   C17   A    
S2    O12   D    
C36   C38   A    
C9    C15   A    
C29   C31   A    
C10   C16   A    
C30   C32   A    
C11   C13   A    
Cu1   O5    S    
Cu2   O2    S    
C5    C35   A    
C10   S6    S    
O29   H13   S    
C33   C35   A    
C6    C36   A    
C34   C36   A    
C23   C25   S    
S3    O15   D    
C1    O4    A    
C2    O3    A    
S5    O21   D    
C15   C21   A    
C20   C21   A    
C3    C37   A    
C16   C18   A    
O23   H11   S    
C27   C28   S    
C34   F2    S    
C30   H2    S    
S7    O27   D    
C4    C38   A    
C1    O1    A    
C4    C30   A    
C32   C34   A    
