data_mof_unit_44273.cif
_audit_creation_date              2012-12-10T17:48:42-0500
_audit_creation_method            fapswitch 2.2
_symmetry_space_group_name_H-M    P1
_symmetry_Int_Tables_number       1
_space_group_crystal_system       triclinic
_cell_length_a                    15.702167
_cell_length_b                    10.715361
_cell_length_c                    9.942181
_cell_angle_alpha                 91.113666
_cell_angle_beta                  89.797879
_cell_angle_gamma                 93.86241
_cell_volume                      1668.69669468

loop_
_atom_site_label
_atom_site_type_symbol
_atom_type_description
_atom_site_fract_x
_atom_site_fract_y
_atom_site_fract_z
_atom_type_partial_charge
Br1   Br    Br    0.093221 0.355719 0.733500 -0.404503
Br2   Br    Br    0.289328 0.233501 0.511891 -0.509092
Br3   Br    Br    0.212733 0.803285 0.802144 -0.441365
Br4   Br    Br    0.657719 0.875917 0.356165 -0.453434
Br5   Br    Br    0.632858 0.695026 0.844617 -0.394436
C1    C     C_R   0.491167 0.260024 0.498689 0.912358
C2    C     C_R   0.278002 0.024566 0.669180 -0.175397
C3    C     C_R   0.293311 0.902708 0.698582 0.297671
C4    C     C_R   0.339875 0.513564 0.500474 0.910593
C5    C     C_R   0.364341 0.850455 0.643955 -0.219207
C6    C     C_R   0.426555 0.923817 0.570335 -0.006611
C7    C     C_R   0.416394 0.052225 0.554805 0.063359
C8    C     C_R   0.484267 0.125836 0.493741 -0.104014
C9    C     C_R   0.553649 0.071347 0.434879 -0.204889
C10   C     C_R   0.559324 0.944330 0.437995 0.264035
C11   C     C_R   0.496480 0.871294 0.505950 -0.116324
C12   C     C_3   0.949123 0.387924 0.560963 -0.389153
C13   C     C_R   0.384768 0.334513 0.136619 -0.205826
C14   C     C_R   0.325766 0.256217 0.064157 0.468196
C15   C     C_R   0.325230 0.259920 0.924869 -0.229720
C16   C     C_R   0.501278 0.739502 0.501550 0.908430
C17   C     C_R   0.384063 0.338096 0.857195 -0.176969
C18   C     C_R   0.443164 0.419382 0.926447 0.113549
C19   C     C_R   0.443288 0.418704 0.070764 0.082672
C20   C     C_R   0.554019 0.577999 0.073459 -0.079111
C21   C     C_R   0.554161 0.578385 0.930826 0.315754
C22   C     C_R   0.661608 0.500238 0.499673 0.932488
C23   C     C_3   0.918100 0.506007 0.494129 0.099855
C24   C     C_3   0.047697 0.391030 0.556078 0.156297
C25   C     C_3   0.053193 0.529212 0.352835 -0.479300
C26   C     C_3   0.954199 0.518955 0.347756 0.280171
C27   C     C_1   0.750724 0.501096 0.498540 -0.083691
C28   C     C_3   0.084178 0.518522 0.499700 0.125369
C29   C     C_3   0.952535 0.621973 0.578438 -0.434101
C30   C     C_3   0.050832 0.627655 0.584287 -0.350934
C31   C     C_1   0.826274 0.502482 0.496087 -0.006469
C32   C     C_1   0.176005 0.524659 0.500862 0.043512
C33   C     C_1   0.251372 0.523088 0.500976 -0.037766
C34   C     C_R   0.336896 0.097627 0.594013 0.187067
H1    H     H_    0.921187 0.301286 0.510620 0.206631
H2    H     H_    0.279024 0.201890 0.867871 0.211469
H3    H     H_    0.381401 0.332826 0.750552 0.240856
H4    H     H_    0.077405 0.620716 0.311350 0.192563
H5    H     H_    0.080729 0.455589 0.288801 0.258619
H6    H     H_    0.932975 0.607522 0.306321 0.130514
H7    H     H_    0.071598 0.622134 0.690644 0.261657
H8    H     H_    0.077427 0.718955 0.545360 0.205299
H9    H     H_    0.926305 0.617873 0.682623 0.236683
H10   H     H_    0.143411 0.176729 0.278268 0.406470
H11   H     H_    0.795264 0.304141 0.288712 0.365344
H12   H     H_    0.926232 0.384709 0.666986 0.232517
H13   H     H_    0.931786 0.709226 0.533292 0.205131
H14   H     H_    0.604826 0.128555 0.388337 0.180448
H15   H     H_    0.217532 0.060193 0.698266 0.216224
H16   H     H_    0.368092 0.752036 0.659745 0.186945
H17   H     H_    0.597989 0.641717 0.128842 0.201831
H18   H     H_    0.066812 0.314111 0.487864 0.178400
H19   H     H_    0.383223 0.327652 0.243525 0.239491
N1    N     N_R   0.499210 0.498800 0.142780 -0.130960
N2    N     N_R   0.499180 0.498720 0.857170 -0.142076
O1    O     O_R   0.500000 0.316780 0.614690 -0.629504
O2    O     O_2   0.298846 0.073756 0.240833 -0.271373
O3    O     O_3   0.184415 0.238884 0.236548 -0.516073
O4    O     O_2   0.945578 0.432186 0.091680 -0.191642
O5    O     O_2   0.953713 0.274570 0.263931 -0.303229
O6    O     O_3   0.809450 0.376841 0.230773 -0.516017
O7    O     O_R   0.499990 0.316750 0.385360 -0.622249
O8    O     O_R   0.377150 0.500020 0.614720 -0.628879
O9    O     O_R   0.377140 0.499990 0.385380 -0.616256
O10   O     O_R   0.500010 0.683250 0.614640 -0.601085
O11   O     O_R   0.500000 0.683220 0.385310 -0.593990
O12   O     O_R   0.622860 0.500010 0.614620 -0.575433
O13   O     O_R   0.622850 0.499980 0.385280 -0.589834
O14   O     O_2   0.201738 0.070957 0.048078 -0.238376
S1    S     S_3+6 0.251805 0.153665 0.147646 0.078302
S2    S     S_3+6 0.916698 0.396070 0.230694 0.056770
Zn1   Zn    Zn3+2 0.500010 0.500020 0.653130 1.008773
Zn2   Zn    Zn3+2 0.499990 0.499980 0.346870 1.006975

loop_
_geom_bond_atom_site_label_1
_geom_bond_atom_site_label_2
_ccdc_geom_bond_type
C11   C16   S    
H10   O3    S    
C12   C24   S    
C14   C15   A    
C20   H17   S    
C30   H8    S    
C12   H12   S    
C15   H2    S    
C2    C3    A    
C32   C33   T    
O5    S2    D    
C16   O11   A    
C13   C19   A    
C27   C31   T    
C1    O1    A    
C4    O9    A    
C13   C14   A    
C25   C26   S    
C10   C11   A    
C24   C28   S    
C29   C30   S    
Br2   C34   S    
C13   H19   S    
O1    Zn1   S    
O13   Zn2   S    
C23   C29   S    
C8    C9    A    
O10   Zn1   S    
C25   H5    S    
O9    Zn2   S    
O7    Zn2   S    
N1    Zn2   S    
C18   N2    A    
N2    Zn1   S    
O14   S1    D    
Br3   C3    S    
C20   C21   A    
C28   C32   S    
C12   H1    S    
O12   Zn1   S    
C6    C11   A    
C18   C19   A    
O6    S2    S    
Br1   C24   S    
O4    S2    D    
C5    H16   S    
H11   O6    S    
C1    O7    A    
C15   C17   A    
C25   H4    S    
C29   H9    S    
O8    Zn1   S    
C25   C28   S    
C22   C27   S    
C9    C10   A    
C12   C23   S    
C23   C26   S    
C24   H18   S    
C6    C7    A    
C29   H13   S    
C16   O10   A    
Br4   C10   S    
C14   S1    S    
C4    O8    A    
C1    C8    S    
C26   S2    S    
C17   H3    S    
O3    S1    S    
C7    C34   A    
C19   N1    A    
C4    C33   S    
C28   C30   S    
O2    S1    D    
C5    C6    A    
Br5   C21   S    
C9    H14   S    
C7    C8    A    
C23   C31   S    
C3    C5    A    
C26   H6    S    
C2    C34   A    
C17   C18   A    
C20   N1    A    
C2    H15   S    
C22   O13   A    
C30   H7    S    
C21   N2    A    
O11   Zn2   S    
C22   O12   A    
