data_mof_unit_37546.cif
_audit_creation_date              2013-03-05T16:11:49-0500
_audit_creation_method            fapswitch 2.2
_symmetry_space_group_name_H-M    P1
_symmetry_Int_Tables_number       1
_space_group_crystal_system       triclinic
_cell_length_a                    10.739689
_cell_length_b                    9.411281
_cell_length_c                    23.517667
_cell_angle_alpha                 90.001924
_cell_angle_beta                  90.038579
_cell_angle_gamma                 89.832086
_cell_volume                      2377.01935984

loop_
_atom_site_label
_atom_site_type_symbol
_atom_site_description
_atom_site_fract_x
_atom_site_fract_y
_atom_site_fract_z
_atom_type_partial_charge
O1    O     O_R   0.317570 0.620260 0.500030 -0.575802
O2    O     O_R   0.317570 0.379740 0.500030 -0.576908
C1    C     C_R   0.259777 0.500366 0.500334 0.803522
O3    O     O_R   0.499840 0.620290 0.417900 -0.591069
O4    O     O_R   0.499840 0.379710 0.417900 -0.592264
C2    C     C_R   0.500180 0.499973 0.390935 0.858847
Cu1   Cu    Cu3+1 0.499860 0.642410 0.500030 0.975965
Cu2   Cu    Cu3+1 0.499860 0.357590 0.500030 0.984790
O5    O     O_R   0.682190 0.620260 0.500010 -0.584946
O6    O     O_R   0.682190 0.379740 0.500010 -0.576507
O7    O     O_R   0.499920 0.620230 0.582140 -0.547076
O8    O     O_R   0.499920 0.379770 0.582140 -0.549441
C3    C     C_R   0.740094 0.500006 0.499001 0.840964
C4    C     C_R   0.500028 0.500008 0.609117 0.850178
C5    C     C_R   0.610655 0.528278 0.880268 0.649063
N1    N     N_R   0.502196 0.499818 0.851930 -0.450248
C6    C     C_R   0.394171 0.470826 0.880446 0.618492
C7    C     C_R   0.392328 0.470022 0.940105 -0.097696
C8    C     C_R   0.502942 0.499371 0.970040 -0.018439
C9    C     C_R   0.613221 0.528756 0.939929 -0.102778
C10   C     C_R   0.282735 0.440989 0.970293 -0.209165
C11   C     C_R   0.282268 0.440802 0.029577 0.677602
C12   C     C_R   0.392408 0.469849 0.060141 -0.129307
C13   C     C_R   0.503267 0.499349 0.030127 -0.158277
C14   C     C_R   0.614434 0.528864 0.059978 -0.134488
C15   C     C_R   0.724265 0.557822 0.029237 0.678030
C16   C     C_R   0.723164 0.557653 0.969948 -0.209050
C17   C     C_R   0.395367 0.470696 0.119910 0.592170
N2    N     N_R   0.503844 0.499456 0.148144 -0.496922
C18   C     C_R   0.612054 0.528157 0.119763 0.600622
O9    O     O_2   0.715667 0.555318 0.850748 -0.500283
O10   O     O_2   0.288844 0.443716 0.851104 -0.502009
H1    H     H_    0.196595 0.418296 0.948132 0.221709
O11   O     O_2   0.290856 0.443999 0.149822 -0.413952
O12   O     O_2   0.716823 0.554956 0.149533 -0.397515
H2    H     H_    0.809065 0.580348 0.947649 0.221810
C19   C     C_R   0.512246 0.627973 0.238874 -0.073047
H3    H     H_    0.519014 0.727492 0.215991 0.150835
C20   C     C_R   0.510948 0.628313 0.298156 -0.155358
H4    H     H_    0.517319 0.728988 0.320250 0.155878
C21   C     C_R   0.501706 0.499850 0.328355 -0.025161
C22   C     C_R   0.494274 0.371189 0.298176 -0.167089
H5    H     H_    0.487344 0.270586 0.320270 0.154144
C23   C     C_R   0.495155 0.371230 0.238903 -0.066478
H6    H     H_    0.489038 0.271608 0.216044 0.150548
C24   C     C_R   0.504015 0.499539 0.209102 0.312855
C25   C     C_R   0.506107 0.629013 0.761170 0.685681
C26   C     C_R   0.505366 0.628952 0.701867 -0.261628
H7    H     H_    0.508729 0.729689 0.679662 0.208306
C27   C     C_R   0.500439 0.500077 0.671715 -0.151051
C28   C     C_R   0.496018 0.371326 0.701942 -0.178233
H8    H     H_    0.492088 0.270438 0.679867 0.211919
C29   C     C_R   0.496474 0.371609 0.761219 -0.178027
H9    H     H_    0.493091 0.271867 0.784115 0.191177
C30   C     C_R   0.501705 0.500239 0.790993 0.214310
C31   C     C_3   0.071025 0.655176 0.504332 -0.364986
C32   C     C_3   0.070944 0.411471 0.549197 -0.313207
H10   H     H_    0.105226 0.721140 0.468295 0.188897
H11   H     H_    0.102463 0.299134 0.545219 0.224954
H12   H     H_    0.104623 0.704993 0.544444 0.218732
H13   H     H_    0.107305 0.452861 0.590308 0.183358
C33   C     C_3   0.928551 0.655175 0.503852 -0.406869
C34   C     C_3   0.927710 0.416496 0.549540 -0.423806
H14   H     H_    0.894290 0.702250 0.544414 0.181294
H15   H     H_    0.895774 0.469218 0.589370 0.172072
H16   H     H_    0.895021 0.726149 0.469346 0.233048
H17   H     H_    0.889599 0.307089 0.551283 0.217231
H18   H     H_    0.115942 0.501208 0.407096 0.173688
H19   H     H_    0.115743 0.328475 0.436760 0.198501
C35   C     C_3   0.076165 0.436943 0.442400 -0.442257
C36   C     C_3   0.122059 0.501083 0.499266 0.016570
C37   C     C_3   0.878322 0.500527 0.497069 -0.029072
C38   C     C_3   0.930422 0.434521 0.439413 0.578464
C39   C     C_3   0.600652 0.083512 0.537903 -0.210407
C40   C     C_3   0.600457 0.915933 0.538024 -0.210187
H20   H     H_    0.590586 0.123031 0.582198 0.190294
H21   H     H_    0.589907 0.876915 0.582356 0.193739
H22   H     H_    0.693026 0.120843 0.522891 0.191278
H23   H     H_    0.692936 0.877774 0.523251 0.164123
C41   C     C_3   0.380179 0.084233 0.522296 0.584082
C42   C     C_3   0.380079 0.916496 0.522146 0.591793
C43   C     C_3   0.519717 0.083444 0.443391 -0.345039
C44   C     C_3   0.520320 0.916224 0.443415 -0.350885
N3    N     N_3   0.500250 0.143650 0.501250 -0.195619
N4    N     N_3   0.500250 0.856350 0.501250 -0.192164
H24   H     H_    0.444819 0.121159 0.414343 0.153432
H25   H     H_    0.446036 0.878420 0.414163 0.157610
H26   H     H_    0.608949 0.122683 0.425614 0.253841
H27   H     H_    0.610254 0.876731 0.425919 0.229999
H28   H     H_    0.302918 0.120499 0.494279 0.022096
H29   H     H_    0.303146 0.881039 0.493900 0.008266
N5    N     N_R   0.891061 0.517447 0.388780 0.107563
O13   O     O_R   0.795140 0.602166 0.390005 -0.390140
O14   O     O_R   0.938605 0.486497 0.339354 -0.274835
N6    N     N_R   0.887192 0.286474 0.432136 0.109255
O15   O     O_R   0.807283 0.255113 0.392446 -0.319296
O16   O     O_R   0.932550 0.183567 0.462893 -0.424602
F1    F     F_    0.173431 0.412088 0.056525 -0.559524
F2    F     F_    0.354599 0.135333 0.576350 -0.622036
F3    F     F_    0.353929 0.865027 0.576057 -0.618979
F4    F     F_    0.833391 0.586478 0.056018 -0.559295
F5    F     F_    0.510292 0.754241 0.789692 -0.630177

loop_
_geom_bond_atom_site_label_1
_geom_bond_atom_site_label_2
_geom_bond_distance
_ccdc_geom_bond_type
C44   H25   1.112303 S    
C34   H15   1.113853 S    
C11   F1    1.357869 S    
C7    C10   1.402511 A    
C21   C22   1.405957 A    
C8    C9    1.408458 A    
C41   N3    1.491857 S    
Cu1   Cu2   2.680520 S    
C20   C21   1.405976 A    
Cu1   N4    2.013669 S    
C29   H9    1.082901 S    
Cu1   O7    1.942289 S    
C15   C16   1.394382 A    
N2    C18   1.368184 A    
C39   H20   1.111348 S    
C18   O12   1.349230 S    
C17   N2    1.368274 A    
C15   F4    1.357865 S    
O4    C2    1.297405 A    
O7    C4    1.297195 A    
C32   H11   1.113113 S    
C10   H1    1.083319 S    
C5    N1    1.368734 A    
C7    C8    1.408516 A    
O5    C3    1.289973 A    
C33   H14   1.114059 S    
C40   N4    1.490913 S    
N6    O15   1.302037 A    
N1    C6    1.368594 A    
C2    C21   1.471859 S    
C12   C13   1.412763 A    
C35   C36   1.548122 S    
C26   C27   1.406045 A    
C17   O11   1.349264 S    
C25   F5    1.356896 S    
Cu2   N3    2.013647 S    
C10   C11   1.394221 A    
C22   C23   1.394004 A    
O3    Cu1   1.942687 S    
C23   C24   1.399732 A    
C32   C34   1.538903 S    
C29   C30   1.399725 A    
C5    C9    1.403349 A    
C44   H27   1.112994 S    
C34   H17   1.109906 S    
C39   C40   1.577152 S    
C33   H16   1.110237 S    
C28   H8    1.083055 S    
C13   C14   1.412874 A    
O3    C2    1.297792 A    
C20   H4    1.082907 S    
C41   C42   1.578631 S    
C27   C28   1.405799 A    
C14   C15   1.411131 A    
C43   H24   1.112338 S    
C31   H12   1.113732 S    
C28   C29   1.394062 A    
C1    C36   1.479240 S    
C19   H3    1.082866 S    
C25   C26   1.394669 A    
Cu2   O8    1.942276 S    
C31   C36   1.553425 S    
C35   C38   1.566992 S    
N5    O14   1.302547 A    
C6    C7    1.403233 A    
C33   C37   1.561800 S    
C12   C17   1.406009 A    
C32   C36   1.547624 S    
C5    O9    1.349589 S    
C40   H21   1.111341 S    
H18   C35   1.113391 S    
C26   H7    1.083107 S    
C44   N4    1.488323 S    
C3    C37   1.485269 S    
O8    C4    1.297299 A    
C43   N3    1.488604 S    
C41   F2    1.386516 S    
C31   C33   1.530165 S    
C22   H5    1.082807 S    
C38   N6    1.479805 S    
C23   H6    1.082879 S    
C42   F3    1.386469 S    
C25   C30   1.401209 A    
C14   C18   1.406277 A    
Cu1   O5    1.968626 S    
O1    Cu1   1.969411 S    
O2    Cu2   1.968196 S    
C38   N5    1.484306 S    
C39   N3    1.490388 S    
C37   C38   1.592620 S    
O6    C3    1.293267 A    
O4    Cu2   1.942701 S    
N6    O16   1.302029 A    
C32   H13   1.113273 S    
C9    C16   1.402599 A    
C16   H2    1.083312 S    
N2    C24   1.433595 S    
C8    C13   1.413099 A    
N1    C30   1.433108 S    
C19   C20   1.394257 A    
C4    C27   1.472167 S    
C43   H26   1.110037 S    
N5    O13   1.301154 A    
C31   H10   1.113727 S    
O2    C1    1.292265 A    
C41   H28   1.112091 S    
H19   C35   1.112601 S    
C42   H29   1.111825 S    
C34   C37   1.557632 S    
Cu2   O6    1.969841 S    
C43   C44   1.573751 S    
C39   H22   1.111213 S    
C6    O10   1.349611 S    
C11   C12   1.411136 A    
O1    C1    1.289414 A    
C19   C24   1.399840 A    
C40   H23   1.111070 S    
C42   N4    1.491350 S    
