data_mof_unit_65699.cif
_audit_creation_date              2012-12-10T18:26:52-0500
_audit_creation_method            fapswitch 2.2
_symmetry_space_group_name_H-M    P1
_symmetry_Int_Tables_number       1
_space_group_crystal_system       triclinic
_cell_length_a                    25.795431
_cell_length_b                    25.794991
_cell_length_c                    22.146503
_cell_angle_alpha                 90.000013
_cell_angle_beta                  54.384283
_cell_angle_gamma                 90.0
_cell_volume                      11979.601761

loop_
_atom_site_label
_atom_site_type_symbol
_atom_type_description
_atom_site_fract_x
_atom_site_fract_y
_atom_site_fract_z
_atom_type_partial_charge
C1    C     C_R   0.849482 0.750038 0.301030 0.817856
C2    C     C_3   0.551040 0.249763 0.499687 0.209063
C3    C     C_3   0.318978 0.970245 0.443008 -0.386404
C4    C     C_3   0.725480 0.529963 0.577838 -0.399672
C5    C     C_3   0.725480 0.470037 0.577838 -0.399673
C6    C     C_3   0.225563 0.029963 0.577805 -0.399693
C7    C     C_3   0.225563 0.970037 0.577805 -0.399692
C8    C     C_3   0.707084 0.529964 0.477770 -0.400505
C9    C     C_3   0.707085 0.470036 0.477770 -0.400506
C10   C     C_3   0.207013 0.029964 0.477863 -0.400492
C11   C     C_3   0.207014 0.970036 0.477863 -0.400491
C12   C     C_3   0.750397 0.550875 0.499667 0.208961
C13   C     C_3   0.051039 0.250238 0.499689 0.209065
C14   C     C_3   0.750397 0.449124 0.499667 0.208963
C15   C     C_3   0.250397 0.050875 0.499659 0.208965
C16   C     C_3   0.250397 0.949124 0.499660 0.208966
C17   C     C_R   0.750018 0.891428 0.499922 0.743795
C18   C     C_R   0.750018 0.108572 0.499923 0.743798
C19   C     C_R   0.250019 0.391428 0.499922 0.743797
C20   C     C_R   0.250019 0.608572 0.499922 0.743800
C21   C     C_R   0.891479 0.749958 0.499906 0.743761
C22   C     C_R   0.891479 0.250042 0.499906 0.743759
C23   C     C_R   0.391479 0.249958 0.499906 0.743762
C24   C     C_3   0.051039 0.749762 0.499689 0.209062
C25   C     C_R   0.391477 0.750044 0.499909 0.743761
C26   C     C_R   0.608618 0.750071 0.499954 0.743660
C27   C     C_R   0.608621 0.249933 0.499949 0.743659
C28   C     C_R   0.108621 0.250068 0.499949 0.743659
C29   C     C_R   0.108621 0.749932 0.499950 0.743660
C30   C     C_3   0.558145 0.790635 0.443237 -0.386392
C31   C     C_3   0.558195 0.209435 0.443135 -0.386387
C32   C     C_3   0.058187 0.290578 0.443154 -0.386387
C33   C     C_3   0.058190 0.709426 0.443148 -0.386389
C34   C     C_3   0.498648 0.790629 0.443221 -0.386537
C35   C     C_3   0.449308 0.750233 0.499669 0.209040
C36   C     C_3   0.498696 0.209440 0.443123 -0.386538
C37   C     C_3   0.998688 0.290573 0.443141 -0.386536
C38   C     C_3   0.998691 0.709431 0.443135 -0.386536
C39   C     C_3   0.541166 0.696011 0.477636 -0.400564
C40   C     C_3   0.541108 0.304021 0.477751 -0.400549
C41   C     C_3   0.041120 0.195985 0.477727 -0.400551
C42   C     C_3   0.041115 0.804016 0.477736 -0.400549
C43   C     C_3   0.449311 0.249773 0.499663 0.209035
C44   C     C_3   0.949311 0.250228 0.499663 0.209036
C45   C     C_3   0.949311 0.749772 0.499663 0.209035
C46   C     C_3   0.481250 0.696005 0.477618 -0.400585
C47   C     C_3   0.481192 0.304026 0.477733 -0.400562
C48   C     C_3   0.981204 0.195980 0.477709 -0.400561
C49   C     C_R   0.849482 0.249962 0.301030 0.817854
C50   C     C_3   0.981201 0.804021 0.477716 -0.400567
C51   C     C_3   0.431099 0.764290 0.577890 -0.399644
C52   C     C_3   0.431121 0.235631 0.577850 -0.399666
C53   C     C_3   0.931116 0.264353 0.577858 -0.399663
C54   C     C_3   0.931117 0.735641 0.577855 -0.399658
C55   C     C_3   0.467701 0.733626 0.956899 -0.392609
C56   C     C_3   0.466692 0.262579 0.956900 -0.392739
C57   C     C_3   0.967876 0.233059 0.956900 -0.392592
C58   C     C_3   0.966533 0.761867 0.956900 -0.392769
C59   C     C_3   0.534341 0.804813 0.956935 -0.392703
C60   C     C_R   0.349482 0.250038 0.301030 0.817852
C61   C     C_3   0.538130 0.196211 0.956936 -0.392564
C62   C     C_3   0.033762 0.304945 0.956934 -0.392726
C63   C     C_3   0.038826 0.696430 0.956936 -0.392540
C64   C     C_3   0.491251 0.804805 0.043094 -0.392885
C65   C     C_3   0.495040 0.196219 0.043095 -0.392744
C66   C     C_3   0.990671 0.304937 0.043093 -0.392908
C67   C     C_3   0.995735 0.696438 0.043095 -0.392721
C68   C     C_1   0.389201 0.749957 0.221593 -0.152427
C69   C     C_1   0.389201 0.250043 0.221593 -0.152427
C70   C     C_1   0.889201 0.249957 0.221593 -0.152427
C71   C     C_R   0.349482 0.749962 0.301030 0.817854
C72   C     C_1   0.889201 0.750043 0.221593 -0.152427
C73   C     C_3   0.536618 0.749980 0.926830 0.360504
C74   C     C_3   0.536617 0.250020 0.926830 0.360503
C75   C     C_3   0.036617 0.249980 0.926830 0.360503
C76   C     C_3   0.036617 0.750020 0.926830 0.360502
C77   C     C_R   0.650553 0.749993 0.698970 0.817639
C78   C     C_R   0.650553 0.250007 0.698970 0.817641
C79   C     C_R   0.150553 0.249993 0.698970 0.817643
C80   C     C_R   0.150553 0.750007 0.698970 0.817641
C81   C     C_3   0.424610 0.733618 0.043058 -0.392814
C82   C     C_3   0.491014 0.764296 0.577906 -0.399761
C83   C     C_3   0.423600 0.262587 0.043059 -0.392948
C84   C     C_3   0.924785 0.233051 0.043059 -0.392792
C85   C     C_3   0.923442 0.761875 0.043059 -0.392972
C86   C     C_3   0.463429 0.749966 0.073169 0.360831
C87   C     C_3   0.463428 0.250034 0.073169 0.360830
C88   C     C_3   0.963429 0.249966 0.073169 0.360831
C89   C     C_3   0.963428 0.750034 0.073169 0.360830
C90   C     C_3   0.519574 0.711483 0.043085 -0.394437
C91   C     C_3   0.516792 0.291287 0.043083 -0.394444
C92   C     C_3   0.019978 0.211919 0.043085 -0.394438
C93   C     C_3   0.491037 0.235624 0.577864 -0.399770
C94   C     C_3   0.016255 0.791780 0.043083 -0.394444
C95   C     C_3   0.562665 0.711491 0.956926 -0.394302
C96   C     C_3   0.559883 0.291279 0.956924 -0.394307
C97   C     C_3   0.063068 0.211928 0.956926 -0.394298
C98   C     C_3   0.059345 0.791771 0.956924 -0.394304
C99   C     C_1   0.422623 0.749958 0.154760 -0.136836
C100  C     C_1   0.422622 0.250041 0.154760 -0.136836
C101  C     C_1   0.922623 0.249959 0.154760 -0.136836
C102  C     C_1   0.922623 0.750041 0.154760 -0.136836
C103  C     C_1   0.577422 0.749987 0.845239 -0.136517
C104  C     C_3   0.991033 0.264360 0.577871 -0.399774
C105  C     C_1   0.577422 0.250012 0.845239 -0.136517
C106  C     C_1   0.077422 0.249988 0.845239 -0.136516
C107  C     C_1   0.077422 0.750012 0.845239 -0.136517
C108  C     C_1   0.610841 0.749991 0.778407 -0.151657
C109  C     C_1   0.610841 0.250008 0.778407 -0.151658
C110  C     C_1   0.110840 0.249992 0.778407 -0.151658
C111  C     C_1   0.110840 0.750008 0.778407 -0.151658
C112  C     C_3   0.738099 0.970249 0.442967 -0.386519
C113  C     C_3   0.738099 0.029751 0.442967 -0.386521
C114  C     C_3   0.238109 0.470249 0.442959 -0.386516
C115  C     C_3   0.991033 0.735634 0.577870 -0.399769
C116  C     C_3   0.238109 0.529751 0.442959 -0.386516
C117  C     C_3   0.696631 0.970039 0.577800 -0.399804
C118  C     C_3   0.696631 0.029961 0.577800 -0.399805
C119  C     C_3   0.196628 0.470039 0.577796 -0.399806
C120  C     C_3   0.196628 0.529961 0.577796 -0.399808
C121  C     C_3   0.815137 0.970038 0.477936 -0.400576
C122  C     C_3   0.815137 0.029962 0.477936 -0.400577
C123  C     C_3   0.315136 0.470038 0.477944 -0.400580
C124  C     C_3   0.315136 0.529962 0.477944 -0.400576
C125  C     C_R   0.750092 0.608595 0.499923 0.743685
C126  C     C_3   0.551035 0.750244 0.499697 0.209068
C127  C     C_R   0.750092 0.391405 0.499923 0.743682
C128  C     C_R   0.250091 0.108595 0.499919 0.743683
C129  C     C_R   0.250092 0.891405 0.499919 0.743681
C130  C     C_3   0.749976 0.949133 0.499669 0.209140
C131  C     C_3   0.749976 0.050866 0.499669 0.209139
C132  C     C_3   0.249978 0.449133 0.499667 0.209136
C133  C     C_3   0.249978 0.550867 0.499667 0.209135
C134  C     C_3   0.818993 0.529755 0.443092 -0.386406
C135  C     C_3   0.818993 0.470245 0.443092 -0.386407
C136  C     C_3   0.318978 0.029755 0.443008 -0.386403
H1    H     H_    0.600811 0.781482 0.386329 0.174276
H2    H     H_    0.535516 0.333835 0.517486 0.176470
H3    H     H_    0.256208 0.955576 0.594435 0.148176
H4    H     H_    0.657408 0.544242 0.517517 0.176460
H5    H     H_    0.657408 0.455758 0.517517 0.176459
H6    H     H_    0.157345 0.044241 0.517667 0.176497
H7    H     H_    0.157345 0.955759 0.517667 0.176496
H8    H     H_    0.724291 0.544425 0.421640 0.148859
H9    H     H_    0.724291 0.455575 0.421640 0.148858
H10   H     H_    0.224158 0.044426 0.421754 0.148846
H11   H     H_    0.224158 0.955574 0.421754 0.148845
H12   H     H_    0.676194 0.544239 0.619712 0.178325
H13   H     H_    0.035536 0.166162 0.517449 0.176460
H14   H     H_    0.676194 0.455761 0.619712 0.178325
H15   H     H_    0.176289 0.044239 0.619731 0.178291
H16   H     H_    0.176289 0.955761 0.619731 0.178292
H17   H     H_    0.583713 0.685236 0.421478 0.148886
H18   H     H_    0.583643 0.314860 0.421619 0.148864
H19   H     H_    0.083657 0.185159 0.421591 0.148872
H20   H     H_    0.083653 0.814847 0.421601 0.148865
H21   H     H_    0.484391 0.735886 0.619699 0.178404
H22   H     H_    0.484386 0.263986 0.619721 0.178366
H23   H     H_    0.984387 0.235988 0.619716 0.178371
H24   H     H_    0.035529 0.833836 0.517461 0.176464
H25   H     H_    0.984385 0.764002 0.619719 0.178372
H26   H     H_    0.497060 0.803219 0.594727 0.148160
H27   H     H_    0.497129 0.196681 0.594592 0.148170
H28   H     H_    0.997115 0.303299 0.594618 0.148166
H29   H     H_    0.997118 0.696694 0.594611 0.148171
H30   H     H_    0.408224 0.803210 0.594705 0.148156
H31   H     H_    0.408291 0.196692 0.594577 0.148171
H32   H     H_    0.908277 0.303288 0.594602 0.148161
H33   H     H_    0.908280 0.696706 0.594594 0.148166
H34   H     H_    0.851294 0.543964 0.457496 0.171488
H35   H     H_    0.447143 0.666142 0.517272 0.176426
H36   H     H_    0.851294 0.456036 0.457496 0.171488
H37   H     H_    0.351332 0.043963 0.457335 0.171538
H38   H     H_    0.351332 0.956037 0.457335 0.171536
H39   H     H_    0.838193 0.543963 0.386210 0.174186
H40   H     H_    0.838194 0.456037 0.386210 0.174187
H41   H     H_    0.338117 0.043964 0.386144 0.174138
H42   H     H_    0.338117 0.956036 0.386144 0.174139
H43   H     H_    0.512904 0.781472 0.386308 0.174267
H44   H     H_    0.512938 0.218658 0.386231 0.174208
H45   H     H_    0.012932 0.281366 0.386245 0.174224
H46   H     H_    0.447051 0.333846 0.517455 0.176469
H47   H     H_    0.012935 0.718641 0.386241 0.174215
H48   H     H_    0.494880 0.685228 0.421451 0.148903
H49   H     H_    0.494809 0.314865 0.421591 0.148885
H50   H     H_    0.994823 0.185154 0.421562 0.148891
H51   H     H_    0.994820 0.814851 0.421570 0.148886
H52   H     H_    0.947070 0.166152 0.517417 0.176460
H53   H     H_    0.947064 0.833847 0.517428 0.176463
H54   H     H_    0.383996 0.760759 0.063688 0.161793
H55   H     H_    0.384951 0.233402 0.063689 0.161606
H56   H     H_    0.883887 0.259871 0.063688 0.161826
H57   H     H_    0.600850 0.218652 0.386248 0.174213
H58   H     H_    0.885174 0.732325 0.063690 0.161573
H59   H     H_    0.447726 0.760771 0.936260 0.161919
H60   H     H_    0.448682 0.233389 0.936262 0.161728
H61   H     H_    0.947616 0.259882 0.936261 0.161953
H62   H     H_    0.948904 0.732313 0.936262 0.161695
H63   H     H_    0.583308 0.817481 0.936315 0.165015
H64   H     H_    0.587885 0.186267 0.936315 0.164963
H65   H     H_    0.082592 0.318021 0.936314 0.165019
H66   H     H_    0.088706 0.686998 0.936315 0.164949
H67   H     H_    0.515591 0.833266 0.936297 0.161746
H68   H     H_    0.100844 0.281373 0.386264 0.174229
H69   H     H_    0.521433 0.165801 0.936298 0.161959
H70   H     H_    0.014713 0.333089 0.936296 0.161718
H71   H     H_    0.022525 0.665673 0.936299 0.162000
H72   H     H_    0.451862 0.833254 0.063724 0.161620
H73   H     H_    0.457704 0.165813 0.063726 0.161829
H74   H     H_    0.950984 0.333077 0.063724 0.161593
H75   H     H_    0.958795 0.665685 0.063727 0.161871
H76   H     H_    0.519578 0.817468 0.063743 0.164879
H77   H     H_    0.524155 0.186280 0.063744 0.164827
H78   H     H_    0.018862 0.318008 0.063743 0.164883
H79   H     H_    0.100846 0.718635 0.386259 0.174221
H80   H     H_    0.024976 0.687011 0.063744 0.164815
H81   H     H_    0.564632 0.671685 0.936280 0.162298
H82   H     H_    0.559097 0.330407 0.936278 0.162542
H83   H     H_    0.065456 0.172035 0.936281 0.162263
H84   H     H_    0.058054 0.830752 0.936278 0.162589
H85   H     H_    0.565085 0.830119 0.457765 0.171430
H86   H     H_    0.565181 0.169934 0.457571 0.171492
H87   H     H_    0.065163 0.330075 0.457608 0.171480
H88   H     H_    0.065170 0.669928 0.457595 0.171485
H89   H     H_    0.612151 0.722446 0.936307 0.162566
H90   H     H_    0.395930 0.735878 0.619678 0.178413
H91   H     H_    0.610037 0.283081 0.936305 0.162305
H92   H     H_    0.112437 0.223295 0.936306 0.162604
H93   H     H_    0.109603 0.784090 0.936304 0.162261
H94   H     H_    0.500901 0.671672 0.063708 0.162170
H95   H     H_    0.495366 0.330419 0.063706 0.162409
H96   H     H_    0.001726 0.172022 0.063708 0.162135
H97   H     H_    0.994323 0.830765 0.063705 0.162456
H98   H     H_    0.467924 0.694226 0.936254 0.164920
H99   H     H_    0.464194 0.301179 0.936253 0.164967
H100  H     H_    0.968515 0.193554 0.936254 0.164911
H101  H     H_    0.395921 0.263998 0.619701 0.178379
H102  H     H_    0.963536 0.800298 0.936254 0.164972
H103  H     H_    0.404192 0.694214 0.063682 0.164781
H104  H     H_    0.400463 0.301192 0.063682 0.164828
H105  H     H_    0.904784 0.193542 0.063683 0.164771
H106  H     H_    0.899806 0.800310 0.063682 0.164832
H107  H     H_    0.548420 0.722433 0.063734 0.162435
H108  H     H_    0.546307 0.283094 0.063732 0.162178
H109  H     H_    0.048706 0.223282 0.063734 0.162473
H110  H     H_    0.045872 0.784103 0.063732 0.162135
H111  H     H_    0.691433 0.956042 0.457249 0.171616
H112  H     H_    0.895922 0.235977 0.619696 0.178381
H113  H     H_    0.691434 0.043958 0.457249 0.171617
H114  H     H_    0.191445 0.456042 0.457235 0.171621
H115  H     H_    0.191445 0.543958 0.457235 0.171621
H116  H     H_    0.775849 0.956039 0.386114 0.174121
H117  H     H_    0.775849 0.043960 0.386114 0.174121
H118  H     H_    0.275863 0.456039 0.386108 0.174117
H119  H     H_    0.275863 0.543961 0.386108 0.174116
H120  H     H_    0.649370 0.955578 0.594381 0.148173
H121  H     H_    0.649370 0.044422 0.594381 0.148175
H122  H     H_    0.149369 0.455578 0.594371 0.148176
H123  H     H_    0.895922 0.764015 0.619698 0.178383
H124  H     H_    0.149369 0.544422 0.594371 0.148177
H125  H     H_    0.824962 0.955760 0.517776 0.176568
H126  H     H_    0.824961 0.044239 0.517776 0.176569
H127  H     H_    0.324953 0.455761 0.517791 0.176572
H128  H     H_    0.324953 0.544239 0.517791 0.176573
H129  H     H_    0.854122 0.955575 0.421839 0.148870
H130  H     H_    0.854122 0.044425 0.421839 0.148870
H131  H     H_    0.354126 0.455575 0.421849 0.148871
H132  H     H_    0.354126 0.544425 0.421850 0.148871
H133  H     H_    0.477170 0.830108 0.457744 0.171426
H134  H     H_    0.535612 0.666152 0.517300 0.176424
H135  H     H_    0.477265 0.169944 0.457557 0.171486
H136  H     H_    0.977247 0.330066 0.457592 0.171474
H137  H     H_    0.977253 0.669937 0.457581 0.171478
H138  H     H_    0.703938 0.955761 0.619761 0.178324
H139  H     H_    0.703938 0.044239 0.619761 0.178323
H140  H     H_    0.203931 0.455761 0.619760 0.178322
H141  H     H_    0.203931 0.544239 0.619760 0.178321
H142  H     H_    0.756074 0.544424 0.594541 0.148170
H143  H     H_    0.756074 0.455576 0.594541 0.148170
H144  H     H_    0.256209 0.044424 0.594435 0.148177
O1    O     O_3   0.750010 0.750010 0.500000 -0.462703
O2    O     O_R   0.740870 0.133130 0.457020 -0.651612
O3    O     O_R   0.240870 0.366870 0.457020 -0.651613
O4    O     O_R   0.240870 0.633130 0.457020 -0.651613
O5    O     O_R   0.862620 0.719400 0.336030 -0.640215
O6    O     O_R   0.862620 0.280600 0.336030 -0.640210
O7    O     O_R   0.362620 0.219400 0.336030 -0.640216
O8    O     O_R   0.362620 0.780600 0.336030 -0.640210
O9    O     O_R   0.698690 0.780630 0.663960 -0.640090
O10   O     O_R   0.698690 0.219370 0.663960 -0.640094
O11   O     O_R   0.198690 0.280630 0.663960 -0.640090
O12   O     O_3   0.750010 0.249990 0.500000 -0.462703
O13   O     O_R   0.198690 0.719370 0.663960 -0.640096
O14   O     O_R   0.801340 0.780670 0.336040 -0.640207
O15   O     O_R   0.801340 0.219330 0.336040 -0.640213
O16   O     O_R   0.301340 0.280670 0.336040 -0.640209
O17   O     O_R   0.301340 0.719330 0.336040 -0.640213
O18   O     O_R   0.637410 0.719360 0.663970 -0.640077
O19   O     O_R   0.637410 0.280640 0.663970 -0.640070
O20   O     O_R   0.137410 0.219360 0.663970 -0.640073
O21   O     O_R   0.137410 0.780640 0.663970 -0.640068
O22   O     O_R   0.802130 0.633170 0.457010 -0.651577
O23   O     O_3   0.250010 0.250010 0.500000 -0.462703
O24   O     O_R   0.802130 0.366830 0.457010 -0.651578
O25   O     O_R   0.302130 0.133170 0.457010 -0.651578
O26   O     O_R   0.302130 0.866830 0.457010 -0.651580
O27   O     O_R   0.759170 0.866860 0.542980 -0.648700
O28   O     O_R   0.759170 0.133140 0.542980 -0.648699
O29   O     O_R   0.259170 0.366860 0.542980 -0.648701
O30   O     O_R   0.259170 0.633140 0.542980 -0.648698
O31   O     O_R   0.888360 0.719380 0.456990 -0.651574
O32   O     O_R   0.888360 0.280620 0.456990 -0.651572
O33   O     O_R   0.388360 0.219380 0.456990 -0.651571
O34   O     O_3   0.250010 0.749990 0.500000 -0.462703
O35   O     O_R   0.388360 0.780620 0.456990 -0.651571
O36   O     O_R   0.654640 0.780660 0.457030 -0.651603
O37   O     O_R   0.654640 0.219340 0.457030 -0.651603
O38   O     O_R   0.154640 0.280660 0.457030 -0.651603
O39   O     O_R   0.154640 0.719340 0.457030 -0.651604
O40   O     O_R   0.845390 0.780640 0.542970 -0.648682
O41   O     O_R   0.845390 0.219360 0.542970 -0.648683
O42   O     O_R   0.345390 0.280640 0.542970 -0.648683
O43   O     O_R   0.345390 0.719360 0.542970 -0.648684
O44   O     O_R   0.611660 0.719380 0.543010 -0.648658
O45   O     O_R   0.697880 0.633160 0.542990 -0.648627
O46   O     O_R   0.611660 0.280620 0.543010 -0.648658
O47   O     O_R   0.111660 0.219380 0.543010 -0.648660
O48   O     O_R   0.111660 0.780620 0.543010 -0.648659
O49   O     O_R   0.697880 0.366840 0.542990 -0.648630
O50   O     O_R   0.197880 0.133160 0.542990 -0.648629
O51   O     O_R   0.197880 0.866840 0.542990 -0.648629
O52   O     O_R   0.740870 0.866870 0.457020 -0.651615
Zn1   Zn    Zn3+2 0.675530 0.706240 0.561430 0.949610
Zn2   Zn    Zn3+2 0.763090 0.206230 0.561410 0.949651
Zn3   Zn    Zn3+2 0.263090 0.293770 0.561410 0.949654
Zn4   Zn    Zn3+2 0.263090 0.706230 0.561410 0.949651
Zn5   Zn    Zn3+2 0.736940 0.793790 0.438590 0.947383
Zn6   Zn    Zn3+2 0.736940 0.206210 0.438590 0.947381
Zn7   Zn    Zn3+2 0.236940 0.293790 0.438590 0.947382
Zn8   Zn    Zn3+2 0.236940 0.706210 0.438590 0.947381
Zn9   Zn    Zn3+2 0.675530 0.293760 0.561430 0.949611
Zn10  Zn    Zn3+2 0.175530 0.206240 0.561430 0.949610
Zn11  Zn    Zn3+2 0.175530 0.793760 0.561430 0.949611
Zn12  Zn    Zn3+2 0.824490 0.706250 0.438570 0.947422
Zn13  Zn    Zn3+2 0.824490 0.293750 0.438570 0.947422
Zn14  Zn    Zn3+2 0.324490 0.206250 0.438570 0.947420
Zn15  Zn    Zn3+2 0.324490 0.793750 0.438570 0.947422
Zn16  Zn    Zn3+2 0.763090 0.793770 0.561410 0.949650

loop_
_geom_bond_atom_site_label_1
_geom_bond_atom_site_label_2
_ccdc_geom_bond_type
C22   O41   A    
C63   H66   S    
C98   H84   S    
O4    Zn8   S    
C4    H142  S    
C5    H143  S    
O23   Zn3   S    
C6    H144  S    
O48   Zn11  S    
C90   C95   S    
C124  C133  S    
C48   H52   S    
C87   C91   S    
C117  H120  S    
O8    Zn15  S    
C41   H13   S    
C63   C76   S    
C92   H96   S    
C76   C98   S    
C4    H12   S    
C23   C43   S    
C34   C35   S    
C26   C126  S    
C89   C94   S    
C23   O33   A    
C118  H139  S    
C38   C45   S    
C118  C131  S    
C91   C96   S    
C44   C53   S    
C40   H2    S    
C56   H99   S    
C67   H75   S    
C37   H136  S    
C4    C12   S    
C43   C47   S    
C59   C73   S    
C81   C86   S    
C39   H134  S    
O34   Zn4   S    
O2    Zn6   S    
C127  O49   A    
C54   H33   S    
C34   H43   S    
O28   Zn2   S    
C13   C41   S    
C80   O21   A    
C78   O10   A    
O22   Zn12  S    
C114  H118  S    
C86   C90   S    
C121  H129  S    
C62   C66   S    
C122  H126  S    
C116  C133  S    
C120  H124  S    
C124  H132  S    
C42   H20   S    
C29   O39   A    
C62   H65   S    
C65   H77   S    
C119  C120  S    
C37   H45   S    
C38   H137  S    
C135  H36   S    
O50   Zn10  S    
C86   C99   S    
C6    H15   S    
C1    O14   A    
C76   C107  S    
O24   Zn13  S    
C35   C51   S    
C61   C74   S    
C62   C75   S    
C73   C95   S    
C104  H23   S    
C56   C83   S    
C27   O37   A    
C57   H61   S    
O43   Zn4   S    
C84   C88   S    
C4    C5    S    
C104  H28   S    
C6    C7    S    
O12   Zn9   S    
C19   O3    A    
C33   C38   S    
C8    H4    S    
C19   O29   A    
C37   C44   S    
O3    Zn7   S    
C123  H131  S    
C45   C50   S    
C85   H106  S    
C95   H81   S    
C49   O15   A    
C7    H16   S    
C69   C100  T    
C61   C65   S    
C73   C103  S    
C119  H122  S    
C124  H128  S    
C31   C36   S    
C64   H76   S    
C11   H7    S    
C62   H70   S    
C44   C48   S    
O38   Zn7   S    
C123  C132  S    
C13   C32   S    
C121  C130  S    
O34   Zn11  S    
C95   H89   S    
C33   H79   S    
C70   C101  T    
C58   C76   S    
C123  C124  S    
O42   Zn3   S    
C27   O46   A    
O1    Zn1   S    
O29   Zn3   S    
C120  C133  S    
C66   C88   S    
C43   C52   S    
C14   C135  S    
C93   H27   S    
C53   C104  S    
C113  H113  S    
C3    C136  S    
C46   H48   S    
O31   Zn12  S    
C50   H53   S    
O5    Zn12  S    
C53   H32   S    
C119  H140  S    
O12   Zn6   S    
C2    C40   S    
O23   Zn7   S    
C66   H74   S    
C12   C134  S    
C71   O8    A    
O16   Zn7   S    
C67   H80   S    
O6    Zn13  S    
O20   Zn10  S    
C92   C97   S    
C21   C45   S    
C49   O6    A    
C1    C72   S    
O33   Zn14  S    
C30   C34   S    
O23   Zn10  S    
C74   C96   S    
C127  O24   A    
C31   H57   S    
C15   C136  S    
C82   H26   S    
C136  H41   S    
C91   H95   S    
C115  H25   S    
C71   O17   A    
O34   Zn8   S    
C3    H38   S    
C25   O43   A    
C8    C12   S    
O7    Zn14  S    
C97   H92   S    
C51   H90   S    
C125  O45   A    
C52   C93   S    
C32   C37   S    
C2    C27   S    
C42   C50   S    
C10   H10   S    
O14   Zn5   S    
C115  H29   S    
C55   H98   S    
C122  C131  S    
C122  H130  S    
C87   C100  S    
C19   C132  S    
C105  C109  T    
C83   H104  S    
C17   C130  S    
C107  C111  T    
C77   C108  S    
C42   H24   S    
O52   Zn5   S    
C17   O52   A    
C114  C116  S    
C134  C135  S    
C116  H115  S    
O39   Zn8   S    
C29   O48   A    
C135  H40   S    
C57   C75   S    
O12   Zn2   S    
C117  C118  S    
O10   Zn2   S    
C74   C105  S    
C120  H141  S    
C72   C102  T    
C60   C69   S    
C78   C109  S    
C93   H22   S    
C10   C11   S    
C55   C73   S    
C80   O13   A    
C91   H108  S    
C134  H34   S    
C39   C126  S    
C90   H94   S    
C63   H71   S    
C112  C130  S    
C3    C16   S    
C61   H69   S    
C41   H19   S    
O12   Zn13  S    
C112  H111  S    
C83   C87   S    
C24   C42   S    
C36   H44   S    
C1    O5    A    
C33   H88   S    
C39   H17   S    
C83   H55   S    
O21   Zn11  S    
C3    H42   S    
O37   Zn6   S    
C52   H31   S    
C85   H58   S    
C28   O47   A    
C94   C98   S    
C75   C97   S    
C10   H6    S    
C24   C29   S    
C82   C126  S    
C56   H60   S    
O1    Zn16  S    
C13   C28   S    
C65   C87   S    
C84   H105  S    
C47   H49   S    
O34   Zn15  S    
C26   O44   A    
C30   H1    S    
C128  O50   A    
O1    Zn5   S    
C54   H123  S    
C18   C131  S    
C64   C86   S    
C30   H85   S    
O13   Zn4   S    
C56   C74   S    
C134  H39   S    
O19   Zn9   S    
C113  H117  S    
O9    Zn16  S    
C85   C89   S    
C12   C125  S    
O17   Zn8   S    
O1    Zn12  S    
C5    H14   S    
C81   H103  S    
C66   H78   S    
C9    C14   S    
O27   Zn16  S    
C31   H86   S    
C11   C16   S    
C54   C115  S    
C57   C84   S    
O35   Zn15  S    
C13   C104  S    
C94   H110  S    
O49   Zn9   S    
C5    C14   S    
C25   C35   S    
C23   O42   A    
O32   Zn13  S    
C15   C128  S    
O23   Zn14  S    
C32   H87   S    
O44   Zn1   S    
C136  H37   S    
C128  O25   A    
C79   C110  S    
O15   Zn6   S    
C117  H138  S    
C92   H109  S    
C94   H97   S    
C24   C33   S    
C60   O7    A    
C53   H112  S    
C11   H11   S    
C68   C71   S    
C80   C111  S    
C9    H9    S    
C81   H54   S    
C14   C127  S    
C59   H67   S    
C75   C106  S    
C20   O30   A    
C21   O31   A    
C36   C43   S    
C22   O32   A    
C20   O4    A    
C35   C46   S    
C79   O11   A    
C77   O18   A    
C116  H119  S    
C114  H114  S    
C40   C47   S    
C55   H59   S    
C30   C126  S    
C32   H68   S    
C89   C102  S    
O45   Zn1   S    
O25   Zn14  S    
C88   C101  S    
C118  H121  S    
C64   H72   S    
C59   C64   S    
C10   C15   S    
C77   O9    A    
O47   Zn10  S    
C67   C89   S    
C46   H35   S    
C129  O26   A    
C121  H125  S    
C6    C15   S    
C41   C48   S    
C22   C44   S    
C88   C92   S    
C123  H127  S    
C8    C9    S    
C97   H83   S    
C34   H133  S    
C103  C108  T    
C20   C133  S    
C65   H73   S    
C90   H107  S    
C40   H18   S    
C47   H46   S    
C50   H51   S    
C61   H64   S    
C112  C113  S    
C112  H116  S    
O30   Zn4   S    
C2    C31   S    
C63   C67   S    
C96   H91   S    
C59   H63   S    
C82   H21   S    
C9    H5    S    
C25   O35   A    
C26   O36   A    
C38   H47   S    
C57   H100  S    
C28   O38   A    
C48   H50   S    
C16   C129  S    
C98   H93   S    
O36   Zn5   S    
C18   O2    A    
C17   O27   A    
C119  C132  S    
C121  C122  S    
C18   O28   A    
C8    H8    S    
C117  C130  S    
C51   C82   S    
C52   H101  S    
O18   Zn1   S    
C39   C46   S    
C125  O22   A    
O51   Zn11  S    
C78   O19   A    
C45   C54   S    
C7    C16   S    
C55   C81   S    
O40   Zn16  S    
C129  O51   A    
C58   C85   S    
C106  C110  T    
C58   H62   S    
C21   O40   A    
O41   Zn2   S    
C113  C131  S    
C114  C132  S    
C2    C93   S    
C79   O20   A    
C49   C70   S    
C68   C99   T    
C7    H3    S    
C60   O16   A    
C96   H82   S    
O11   Zn3   S    
C36   H135  S    
C84   H56   S    
O26   Zn15  S    
C24   C115  S    
C51   H30   S    
C58   H102  S    
O46   Zn9   S    
