data_mof_unit_44309.cif
_audit_creation_date              2013-03-05T16:00:11-0500
_audit_creation_method            fapswitch 2.2
_symmetry_space_group_name_H-M    P1
_symmetry_Int_Tables_number       1
_space_group_crystal_system       triclinic
_cell_length_a                    12.746964
_cell_length_b                    13.109933
_cell_length_c                    23.395812
_cell_angle_alpha                 92.92287
_cell_angle_beta                  102.653089
_cell_angle_gamma                 81.597146
_cell_volume                      3773.08564726

loop_
_atom_site_label
_atom_site_type_symbol
_atom_site_description
_atom_site_fract_x
_atom_site_fract_y
_atom_site_fract_z
_atom_type_partial_charge
O1    O     O_R   0.366740 0.627150 0.485570 -0.605877
O2    O     O_R   0.544830 0.662520 0.504870 -0.597239
C1    C     C_R   0.438939 0.690838 0.491188 0.813478
O3    O     O_R   0.410930 0.482340 0.574190 -0.546494
O4    O     O_R   0.589010 0.517710 0.593490 -0.575946
C2    C     C_R   0.500190 0.503741 0.610113 0.905797
Zn1   Zn    Zn3+2 0.381090 0.476380 0.487110 1.011343
Zn2   Zn    Zn3+2 0.618910 0.523620 0.512890 1.026378
O5    O     O_R   0.455170 0.337480 0.495130 -0.619803
O6    O     O_R   0.633260 0.372850 0.514430 -0.554200
O7    O     O_R   0.410990 0.482290 0.406510 -0.574153
O8    O     O_R   0.589070 0.517660 0.425810 -0.537400
C3    C     C_R   0.560990 0.308917 0.507660 0.875714
C4    C     C_R   0.497860 0.501841 0.389546 0.966038
C5    C     C_R   0.494533 0.416140 0.114624 0.593482
N1    N     N_R   0.466936 0.506042 0.143555 -0.321467
C6    C     C_R   0.436484 0.597970 0.115299 0.568439
C7    C     C_R   0.441343 0.603288 0.056481 -0.025267
C8    C     C_R   0.470428 0.511610 0.026081 -0.026650
C9    C     C_R   0.494050 0.416821 0.054885 -0.121919
C10   C     C_R   0.421050 0.698046 0.028073 -0.152486
C11   C     C_R   0.432545 0.702164 0.970507 -0.154762
C12   C     C_R   0.461415 0.611273 0.939824 -0.012696
C13   C     C_R   0.478042 0.515125 0.967171 -0.083532
C14   C     C_R   0.503536 0.422929 0.936039 -0.140918
C15   C     C_R   0.521291 0.327194 0.964520 0.543114
C16   C     C_R   0.519789 0.325557 0.024061 -0.256317
C17   C     C_R   0.474156 0.614125 0.882233 0.591192
N2    N     N_R   0.495293 0.524335 0.851888 -0.339078
C18   C     C_R   0.509054 0.429940 0.877103 0.520009
O9    O     O_2   0.524892 0.326945 0.143999 -0.539780
O10   O     O_2   0.403711 0.684024 0.144483 -0.539136
O11   O     O_2   0.465610 0.705792 0.856592 -0.537639
O12   O     O_2   0.526556 0.343508 0.844705 -0.514379
C19   C     C_R   0.592947 0.486012 0.772613 -0.161081
H1    H     H_    0.665081 0.455689 0.804116 0.185639
C20   C     C_R   0.593301 0.478769 0.713309 -0.271280
C21   C     C_R   0.499885 0.515921 0.672216 -0.218719
C22   C     C_R   0.407685 0.567008 0.690969 0.372345
C23   C     C_R   0.404945 0.568180 0.750432 0.463313
C24   C     C_R   0.498472 0.528245 0.791332 0.121777
C25   C     C_R   0.553614 0.559356 0.243064 0.421322
C26   C     C_R   0.558897 0.562004 0.303910 0.393559
C27   C     C_R   0.492753 0.504074 0.326520 -0.306530
C28   C     C_R   0.419906 0.447863 0.288802 -0.399403
H2    H     H_    0.369752 0.402365 0.305853 0.250479
C29   C     C_R   0.408943 0.450900 0.228559 0.541736
C30   C     C_R   0.477052 0.504794 0.205592 0.014782
C31   C     C_R   0.715104 0.053199 0.477257 0.550693
C32   C     C_R   0.597648 0.198577 0.507972 -0.112004
C33   C     C_R   0.299914 0.839940 0.498566 -0.198643
C34   C     C_R   0.272142 0.945424 0.505211 -0.162230
C35   C     C_R   0.346331 0.011612 0.501685 -0.168239
C36   C     C_R   0.448283 0.973122 0.487943 0.114446
C37   C     C_R   0.467766 0.868367 0.472212 -0.000902
C38   C     C_R   0.532193 0.034135 0.490202 -0.058311
C39   C     C_R   0.628495 0.993521 0.470311 -0.086060
C40   C     C_R   0.634481 0.894787 0.443513 0.487966
C41   C     C_R   0.555288 0.833265 0.445270 -0.310108
C42   C     C_R   0.522804 0.134635 0.512305 -0.238611
C43   C     C_R   0.696831 0.157323 0.494684 -0.337409
C44   C     C_R   0.399615 0.800686 0.484445 -0.074843
H3    H     H_    0.245120 0.789023 0.506475 0.157778
H4    H     H_    0.320342 0.092158 0.509054 0.109093
H5    H     H_    0.563125 0.757313 0.425061 0.228733
C45   C     C_R   0.081096 0.388656 0.397286 -0.380988
H6    H     H_    0.055065 0.348875 0.355942 0.172955
N3    N     N_R   0.222200 0.444670 0.469780 -0.192200
C46   C     C_R   0.800191 0.627288 0.572975 0.553089
C47   C     C_R   0.904098 0.657861 0.587109 0.381543
C48   C     C_R   0.982897 0.611425 0.557244 -0.287431
C49   C     C_R   0.960220 0.534880 0.513750 -0.093977
C50   C     C_R   0.853026 0.508901 0.498557 -0.010300
C51   C     C_R   0.040331 0.485222 0.483811 -0.066668
C52   C     C_R   0.007140 0.431457 0.430796 -0.021203
C53   C     C_R   0.902324 0.411056 0.413919 -0.359213
C54   C     C_R   0.828725 0.436442 0.450784 0.585238
C55   C     C_R   0.153225 0.482584 0.504929 0.500931
C56   C     C_R   0.189994 0.395226 0.417983 0.587788
N4    N     N_R   0.776960 0.554790 0.529910 -0.177482
H7    H     H_    0.060861 0.638363 0.567697 0.235899
H8    H     H_    0.398845 0.769486 0.050627 0.191333
O13   O     O_3   0.616265 0.630696 0.340877 -0.606008
C57   C     C_3   0.728314 0.610925 0.341349 -0.163751
H9    H     H_    0.756726 0.529453 0.330462 0.110786
H10   H     H_    0.773864 0.628839 0.385926 0.187480
H11   H     H_    0.749055 0.663202 0.310998 0.191171
O14   O     O_3   0.334622 0.397098 0.191871 -0.560432
C58   C     C_3   0.232440 0.458972 0.182204 -0.281423
H12   H     H_    0.234843 0.533138 0.161643 0.170812
H13   H     H_    0.202658 0.473726 0.223585 0.167158
H14   H     H_    0.173222 0.417187 0.151449 0.193884
H15   H     H_    0.757217 0.207050 0.494664 0.204350
O15   O     O_3   0.719955 0.854771 0.417895 -0.575639
C59   C     C_3   0.691864 0.881271 0.358263 -0.187999
H16   H     H_    0.620619 0.844927 0.334511 0.185955
H17   H     H_    0.761386 0.852072 0.337776 0.179368
H18   H     H_    0.675410 0.966414 0.352856 0.158281
O16   O     O_3   0.811367 0.011692 0.460936 -0.565715
C60   C     C_3   0.903139 0.035917 0.502564 -0.340319
H19   H     H_    0.973558 0.977627 0.498290 0.190790
H20   H     H_    0.892656 0.033571 0.548520 0.142497
H21   H     H_    0.923272 0.112261 0.493474 0.166523
H22   H     H_    0.454434 0.167739 0.530383 0.152248
H23   H     H_    0.194957 0.975715 0.515937 0.129201
H24   H     H_    0.418328 0.776684 0.950091 0.187160
O17   O     O_3   0.265117 0.355890 0.385344 -0.587157
C61   C     C_3   0.281611 0.247393 0.388282 -0.289343
H25   H     H_    0.352297 0.217248 0.368879 0.193983
H26   H     H_    0.210043 0.214065 0.362494 0.155419
H27   H     H_    0.300669 0.220983 0.434326 0.154890
H28   H     H_    0.883140 0.365078 0.374309 0.152056
O18   O     O_3   0.196280 0.503774 0.562805 -0.552181
C62   C     C_3   0.205484 0.412684 0.594380 -0.208393
H29   H     H_    0.124059 0.393810 0.596361 0.131104
H30   H     H_    0.252915 0.346077 0.575639 0.127632
H31   H     H_    0.249991 0.424733 0.639876 0.187428
O19   O     O_3   0.721650 0.664892 0.604265 -0.567932
C63   C     C_3   0.694538 0.773040 0.599210 -0.187256
H32   H     H_    0.706473 0.802913 0.557692 0.128808
H33   H     H_    0.741326 0.812452 0.637393 0.196659
H34   H     H_    0.607382 0.793847 0.600180 0.164414
O20   O     O_3   0.929805 0.726129 0.633595 -0.575390
C64   C     C_3   0.962580 0.814149 0.613970 -0.338378
H35   H     H_    0.910289 0.841959 0.571438 0.161991
H36   H     H_    0.049110 0.799013 0.610741 0.176282
H37   H     H_    0.955219 0.877453 0.646768 0.194955
O21   O     O_3   0.740974 0.383291 0.445763 -0.565407
C65   C     C_3   0.714577 0.322692 0.394033 -0.331327
H38   H     H_    0.776640 0.253710 0.393845 0.169546
H39   H     H_    0.701788 0.368927 0.353992 0.150945
H40   H     H_    0.636571 0.294088 0.393228 0.183875
O22   O     O_3   0.549544 0.235675 0.935945 -0.557396
C66   C     C_3   0.459690 0.180695 0.923322 -0.213594
H41   H     H_    0.386556 0.227434 0.897117 0.153684
H42   H     H_    0.441464 0.154199 0.964053 0.140239
H43   H     H_    0.479830 0.111096 0.896685 0.203114
H44   H     H_    0.539047 0.252178 0.045935 0.205786
H45   H     H_    0.665724 0.442161 0.699426 0.192017
O23   O     O_3   0.318443 0.612861 0.651376 -0.548193
C67   C     C_3   0.333094 0.715400 0.643742 -0.187540
H46   H     H_    0.259983 0.753165 0.613385 0.160585
H47   H     H_    0.404166 0.718295 0.623728 0.126181
H48   H     H_    0.341851 0.760215 0.685843 0.176889
O24   O     O_3   0.313257 0.614498 0.769020 -0.563251
C68   C     C_3   0.243797 0.539922 0.768328 -0.252550
H49   H     H_    0.285768 0.470985 0.794152 0.135749
H50   H     H_    0.208160 0.516903 0.722679 0.180283
H51   H     H_    0.175786 0.574552 0.788746 0.202153
O25   O     O_3   0.615595 0.618677 0.220289 -0.564455
C69   C     C_3   0.698451 0.553938 0.199276 -0.321953
H52   H     H_    0.669938 0.532872 0.152526 0.180481
H53   H     H_    0.730254 0.482838 0.225347 0.134559
H54   H     H_    0.767652 0.597588 0.201815 0.187166

loop_
_geom_bond_atom_site_label_1
_geom_bond_atom_site_label_2
_geom_bond_distance
_ccdc_geom_bond_type
C37   C41   1.407911 A    
C7    C10   1.402433 A    
C26   O13   1.389151 S    
C8    C9    1.405772 A    
C57   H11   1.108440 S    
C52   C53   1.369346 A    
O21   C65   1.418005 S    
N1    C30   1.429423 S    
C66   H43   1.109259 S    
C62   H29   1.112635 S    
C59   H18   1.113689 S    
O20   C64   1.412766 S    
C35   C36   1.421874 A    
C38   C39   1.428594 A    
Zn1   O7    2.011351 S    
C45   C56   1.380209 A    
C15   C16   1.398617 A    
N2    C18   1.369620 A    
C23   O24   1.382802 S    
C64   H36   1.110265 S    
C17   N2    1.366808 A    
C19   C20   1.386818 A    
C57   H10   1.108849 S    
C65   H38   1.111652 S    
C67   H47   1.113167 S    
C21   C22   1.410030 A    
O7    C4    1.317285 A    
C43   H15   1.079053 S    
C63   H34   1.109525 S    
C5    N1    1.368503 A    
C37   C44   1.408548 A    
C46   O19   1.386106 S    
C31   C39   1.420645 A    
C61   H25   1.109469 S    
C7    C8    1.409248 A    
C69   H54   1.109139 S    
O5    C3    1.317563 A    
O19   C63   1.414068 S    
Zn1   N3    2.075679 S    
O18   C62   1.413003 S    
C47   O20   1.386193 S    
O13   C57   1.411565 S    
N1    C6    1.368302 A    
C22   O23   1.381589 S    
O17   C61   1.410090 S    
C2    C21   1.454374 S    
C47   C48   1.397533 A    
C58   H13   1.113235 S    
C53   H28   1.081089 S    
C65   H40   1.108938 S    
N3    C56   1.355342 A    
C28   C29   1.387605 A    
C45   H6    1.084560 S    
C69   H52   1.108616 S    
C10   C11   1.390848 A    
C46   C47   1.405015 A    
C33   C44   1.401626 A    
O3    Zn1   1.988559 S    
C19   C24   1.400024 A    
O24   C68   1.408965 S    
C68   H50   1.110257 S    
C53   C54   1.403135 A    
C63   H33   1.109184 S    
N3    C55   1.357815 A    
C5    C9    1.396785 A    
C36   C38   1.416897 A    
C16   H44   1.083398 S    
C31   C43   1.405622 A    
C51   C52   1.407954 A    
C18   O12   1.349396 S    
C33   C34   1.386001 A    
C33   H3    1.083120 S    
C13   C14   1.412849 A    
C49   C51   1.424712 A    
C67   H48   1.113463 S    
C22   C23   1.398491 A    
C66   H42   1.112240 S    
C14   C15   1.416562 A    
C11   H24   1.083205 S    
C60   H21   1.110629 S    
C38   C42   1.388968 A    
O1    C1    1.312172 A    
C19   H1    1.082988 S    
C26   C27   1.411020 A    
C20   C21   1.398644 A    
C31   O16   1.391583 S    
C68   H51   1.109126 S    
C29   C30   1.401436 A    
Zn2   O8    1.988559 S    
C60   H20   1.114606 S    
C6    C7    1.396687 A    
C56   O17   1.379097 S    
C61   H27   1.112714 S    
C25   C30   1.413491 A    
C12   C17   1.394999 A    
C57   H9    1.111959 S    
C58   H14   1.109192 S    
C54   O21   1.382886 S    
C64   H37   1.109139 S    
O3    C2    1.315285 A    
C23   C24   1.407101 A    
O8    C4    1.317177 A    
C34   H23   1.082825 S    
C51   C55   1.411346 A    
O22   C66   1.410666 S    
C6    O10   1.349865 S    
C55   O18   1.375693 S    
C25   C26   1.409191 A    
C34   C35   1.391171 A    
C4    C27   1.463271 S    
C68   H49   1.113906 S    
C1    C44   1.458614 S    
C14   C18   1.404262 A    
Zn1   O5    1.922886 S    
C36   C37   1.404269 A    
N2    C24   1.429920 S    
O1    Zn1   1.959682 S    
O2    Zn2   1.922887 S    
C27   C28   1.399551 A    
C49   C50   1.421355 A    
O6    C3    1.313185 A    
C17   O11   1.350026 S    
O4    Zn2   2.011350 S    
C62   H30   1.114941 S    
C63   H32   1.114004 S    
C59   H17   1.108980 S    
C5    O9    1.350035 S    
C66   H41   1.114167 S    
C9    C16   1.400061 A    
O25   C69   1.414370 S    
O16   C60   1.412718 S    
C32   C42   1.381271 A    
C29   O14   1.381692 S    
O2    C1    1.318563 A    
C40   C41   1.389508 A    
C48   C49   1.406337 A    
C15   O22   1.383320 S    
C67   H46   1.108651 S    
C41   H5    1.081018 S    
C10   H8    1.083173 S    
C39   C40   1.408446 A    
O4    C2    1.314301 A    
O23   C67   1.409363 S    
C45   C52   1.393748 A    
C60   H19   1.109387 S    
C35   H4    1.076443 S    
C50   N4    1.391493 A    
C61   H26   1.111591 S    
C8    C13   1.406243 A    
C69   H53   1.115547 S    
C40   O15   1.381481 S    
O15   C59   1.410514 S    
C25   O25   1.385363 S    
C62   H31   1.106467 S    
C12   C13   1.409910 A    
C3    C32   1.453597 S    
C28   H2    1.082164 S    
O14   C58   1.409444 S    
Zn2   O6    1.959681 S    
C20   H45   1.083531 S    
C59   H16   1.113076 S    
Zn2   N4    2.063240 S    
C32   C43   1.393838 A    
C50   C54   1.439994 A    
C11   C12   1.403900 A    
C46   N4    1.363843 A    
C65   H39   1.110720 S    
C58   H12   1.113809 S    
C42   H22   1.076567 S    
C64   H35   1.114801 S    
C48   H7    1.076790 S    
