data_mof_unit_64640.cif
_audit_creation_date              2013-03-05T16:27:14-0500
_audit_creation_method            fapswitch 2.2
_symmetry_space_group_name_H-M    P1
_symmetry_Int_Tables_number       1
_space_group_crystal_system       triclinic
_cell_length_a                    19.416103
_cell_length_b                    18.133447
_cell_length_c                    11.718593
_cell_angle_alpha                 90.005236
_cell_angle_beta                  89.810723
_cell_angle_gamma                 89.998812
_cell_volume                      4125.86994228

loop_
_atom_site_label
_atom_site_type_symbol
_atom_site_description
_atom_site_fract_x
_atom_site_fract_y
_atom_site_fract_z
_atom_type_partial_charge
O1    O     O_R   0.400190 0.561980 0.499980 -0.579292
O2    O     O_R   0.599810 0.438020 0.500020 -0.587758
O3    O     O_R   0.599810 0.561980 0.500020 -0.579333
O4    O     O_R   0.400190 0.438020 0.499980 -0.587823
C1    C     C_R   0.367425 0.499995 0.500126 0.809820
C2    C     C_R   0.632575 0.499993 0.499872 0.809821
O5    O     O_R   0.500010 0.561950 0.337200 -0.571367
O6    O     O_R   0.499990 0.438050 0.662800 -0.561199
O7    O     O_R   0.499990 0.561950 0.662800 -0.571724
O8    O     O_R   0.500010 0.438050 0.337200 -0.561600
C3    C     C_R   0.500052 0.499999 0.283713 0.835204
C4    C     C_R   0.499947 0.500004 0.716287 0.835210
Cu1   Cu    Cu3+1 0.500000 0.573360 0.500000 0.995804
Cu2   Cu    Cu3+1 0.500000 0.426640 0.500000 0.998196
C5    C     C_1   0.500044 0.500002 0.162168 -0.126411
C6    C     C_1   0.499956 0.500015 0.837832 -0.126402
C7    C     C_1   0.500019 0.500012 0.059819 0.062063
C8    C     C_1   0.499981 0.500018 0.940181 0.062067
C9    C     C_R   0.744791 0.566879 0.498934 -0.151887
C10   C     C_R   0.255215 0.566888 0.499428 -0.151830
C11   C     C_R   0.255275 0.432999 0.501455 -0.153293
C12   C     C_R   0.744720 0.432983 0.500133 -0.153221
H1    H     H_    0.718023 0.619277 0.498452 0.181460
H2    H     H_    0.281987 0.619282 0.498650 0.181667
H3    H     H_    0.282092 0.380630 0.502280 0.177120
H4    H     H_    0.717899 0.380613 0.500580 0.177361
C13   C     C_R   0.816534 0.566761 0.498896 -0.040969
C14   C     C_R   0.183472 0.566777 0.499437 -0.041098
C15   C     C_R   0.183532 0.433030 0.501467 -0.039191
C16   C     C_R   0.816462 0.433008 0.500106 -0.039304
H5    H     H_    0.844160 0.618668 0.498504 0.173357
H6    H     H_    0.155852 0.618684 0.498725 0.173412
H7    H     H_    0.155961 0.381093 0.502170 0.173513
H8    H     H_    0.844032 0.381067 0.500488 0.173427
C17   C     C_R   0.852428 0.499862 0.499542 0.205927
C18   C     C_R   0.147570 0.499884 0.500399 0.205815
C19   C     C_R   0.708264 0.499956 0.499643 -0.064330
C20   C     C_R   0.291736 0.499964 0.500343 -0.064345
C21   C     C_R   0.964231 0.514988 0.398314 0.322690
C22   C     C_R   0.035761 0.484664 0.601598 0.322605
C23   C     C_R   0.036379 0.514996 0.398529 0.323349
C24   C     C_R   0.963613 0.484650 0.601378 0.323407
C25   C     C_R   0.072075 0.499845 0.500176 -0.261393
C26   C     C_R   0.927920 0.499820 0.499739 -0.261441
C27   C     C_R   0.538677 0.721014 0.421847 0.022235
C28   C     C_R   0.550166 0.278935 0.442529 0.023476
C29   C     C_R   0.461324 0.721024 0.578154 0.021981
C30   C     C_R   0.449834 0.278945 0.557473 0.023489
H9    H     H_    0.569328 0.690488 0.360750 0.172581
H10   H     H_    0.589403 0.309367 0.396762 0.168783
H11   H     H_    0.430674 0.690506 0.639251 0.172223
H12   H     H_    0.410598 0.309384 0.603241 0.169199
C31   C     C_R   0.539274 0.798530 0.419686 0.314313
C32   C     C_R   0.551550 0.201420 0.441823 0.314377
C33   C     C_R   0.460726 0.798541 0.580315 0.314318
C34   C     C_R   0.448448 0.201430 0.558180 0.314162
C35   C     C_R   0.500000 0.838522 0.500001 0.034176
C36   C     C_R   0.499999 0.161438 0.500001 0.034171
N1    N     N_R   0.500000 0.683620 0.500000 -0.229163
N2    N     N_R   0.500000 0.316380 0.500000 -0.227201
C37   C     C_R   0.542169 0.960864 0.577077 0.255352
C38   C     C_R   0.457391 0.039097 0.423593 0.255988
C39   C     C_R   0.457830 0.960857 0.422925 0.255124
C40   C     C_R   0.542608 0.039105 0.576409 0.255782
C41   C     C_R   0.499999 0.078556 0.500002 -0.116324
C42   C     C_R   0.500000 0.921405 0.500001 -0.116713
Cl1   Cl    Cl    0.919283 0.532633 0.270154 -0.418325
Cl2   Cl    Cl    0.080701 0.467050 0.729776 -0.418122
Cl3   Cl    Cl    0.082098 0.532620 0.270615 -0.416874
Cl4   Cl    Cl    0.917887 0.466997 0.729275 -0.416790
Cl5   Cl    Cl    0.590349 0.843738 0.316976 -0.438882
Cl6   Cl    Cl    0.617601 0.156198 0.366119 -0.445953
Cl7   Cl    Cl    0.409651 0.843763 0.683025 -0.439935
Cl8   Cl    Cl    0.382397 0.156221 0.633885 -0.444785
N3    N     N_R   0.583363 0.921609 0.658713 0.179849
O9    O     O_R   0.624125 0.868680 0.625965 -0.288966
O10   O     O_R   0.580494 0.939003 0.766350 -0.199791
N4    N     N_R   0.411942 0.078353 0.348418 0.179329
O11   O     O_R   0.435215 0.131234 0.283929 -0.277787
O12   O     O_R   0.346992 0.060982 0.343730 -0.213989
N5    N     N_R   0.416637 0.921593 0.341289 0.179926
O13   O     O_R   0.375875 0.868669 0.374037 -0.288263
O14   O     O_R   0.419506 0.938974 0.233652 -0.199631
N6    N     N_R   0.588057 0.078368 0.651583 0.179470
O15   O     O_R   0.564785 0.131259 0.716071 -0.277369
O16   O     O_R   0.653008 0.060996 0.656268 -0.213525

loop_
_geom_bond_atom_site_label_1
_geom_bond_atom_site_label_2
_geom_bond_distance
_ccdc_geom_bond_type
C35   C42   1.502947 S    
O3    C2    1.291558 A    
N5    O13   1.301058 A    
C21   C23   1.400847 A    
C37   N3    1.437622 S    
O5    C3    1.286360 A    
C15   C18   1.399066 A    
C16   C17   1.399058 A    
C39   N5    1.437623 S    
O1    C1    1.291552 A    
C23   Cl3   1.768709 S    
N6    O16   1.301172 A    
C30   H12   1.081627 S    
N4    O12   1.301171 A    
C15   H7    1.083352 S    
C24   Cl4   1.768705 S    
C5    C7    1.199397 T    
O7    Cu1   1.918992 S    
C40   N6    1.437600 S    
C9    C19   1.405603 A    
C3    C5    1.424337 S    
C37   C42   1.415264 A    
C22   C25   1.407135 A    
C11   C20   1.405663 A    
C10   H2    1.083021 S    
C9    C13   1.392970 A    
O3    Cu1   1.948874 S    
C22   C24   1.400854 A    
C39   C42   1.415262 A    
C27   C31   1.405914 A    
Cu1   Cu2   2.660538 S    
C23   C25   1.407193 A    
O2    C2    1.291378 A    
C24   C26   1.407152 A    
N5    O14   1.301183 A    
C30   N2    1.363419 A    
C34   Cl8   1.759680 S    
C16   H8    1.083367 S    
C13   H5    1.083367 S    
C4    C6    1.424337 S    
C14   H6    1.083352 S    
N6    O15   1.301046 A    
O8    Cu2   1.918992 S    
C31   C35   1.410082 A    
N4    O11   1.301046 A    
C29   H11   1.081796 S    
C10   C14   1.392961 A    
C13   C17   1.399075 A    
C12   C19   1.405688 A    
C11   C15   1.392954 A    
C37   C40   1.418820 A    
C9    H1    1.083035 S    
N3    O9    1.301058 A    
C38   C39   1.418820 A    
C10   C20   1.405581 A    
C36   C41   1.502936 S    
C27   H9    1.081798 S    
O6    C4    1.286415 A    
C28   C32   1.405905 A    
C7    C8    1.401984 S    
C2    C19   1.469575 S    
C17   C26   1.465764 S    
N3    O10   1.301183 A    
C33   C35   1.410083 A    
C22   Cl2   1.768703 S    
O1    Cu1   1.948884 S    
C31   Cl5   1.759679 S    
C29   C33   1.405912 A    
C32   C36   1.409931 A    
C30   C34   1.405904 A    
C11   H3    1.083058 S    
C27   N1    1.363115 A    
O6    Cu2   1.918954 S    
C12   C16   1.392949 A    
C38   C41   1.415243 A    
C28   N2    1.363416 A    
C21   Cl1   1.768702 S    
C38   N4    1.437599 S    
O4    C1    1.291382 A    
C21   C26   1.407089 A    
Cu1   N1    1.999394 S    
Cu2   N2    1.999394 S    
C28   H10   1.081627 S    
C40   C41   1.415244 A    
C34   C36   1.409932 A    
O4    Cu2   1.948876 S    
O2    Cu2   1.948882 S    
O7    C4    1.286377 A    
O8    C3    1.286433 A    
C29   N1    1.363113 A    
C33   Cl7   1.759679 S    
O5    Cu1   1.918954 S    
C32   Cl6   1.759680 S    
C14   C18   1.399074 A    
C6    C8    1.199397 T    
C12   H4    1.083073 S    
C18   C25   1.465824 S    
C1    C20   1.469574 S    
