data_mof_unit_67695.cif
_audit_creation_date              2012-12-10T19:48:31-0500
_audit_creation_method            fapswitch 2.2
_symmetry_space_group_name_H-M    P1
_symmetry_Int_Tables_number       1
_space_group_crystal_system       triclinic
_cell_length_a                    10.902532
_cell_length_b                    10.690804
_cell_length_c                    9.472423
_cell_angle_alpha                 89.987705
_cell_angle_beta                  94.261808
_cell_angle_gamma                 87.474036
_cell_volume                      1099.9461795

loop_
_atom_site_label
_atom_site_type_symbol
_atom_type_description
_atom_site_fract_x
_atom_site_fract_y
_atom_site_fract_z
_atom_type_partial_charge
C1    C     C_R   0.502820 0.259605 0.499975 0.777435
C2    C     C_R   0.497690 0.740446 0.499892 0.783053
C3    C     C_R   0.871481 0.499895 0.511489 -0.102245
C4    C     C_R   0.127284 0.500233 0.489571 -0.108742
C5    C     C_R   0.951523 0.428673 0.606974 0.023214
C6    C     C_R   0.046344 0.568884 0.391800 0.028972
C7    C     C_3   0.568689 0.037779 0.616636 -0.204774
C8    C     C_3   0.433345 0.962218 0.382547 -0.252887
C9    C     C_3   0.617447 0.949908 0.499979 -0.224024
C10   C     C_3   0.384704 0.050260 0.498964 -0.276975
C11   C     C_3   0.498176 0.877281 0.499796 -0.071079
C12   C     C_3   0.503713 0.122799 0.499275 -0.073272
C13   C     C_3   0.450500 0.964304 0.613418 0.349596
C14   C     C_3   0.551222 0.035775 0.385310 0.348142
C15   C     C_3   0.494143 0.614553 0.050732 -0.336350
C16   C     C_3   0.506586 0.385438 0.949287 -0.338167
C17   C     C_3   0.402776 0.555135 0.941889 0.486000
C18   C     C_3   0.597619 0.445085 0.057981 0.472948
C19   C     C_3   0.591877 0.557091 0.959143 0.476944
C20   C     C_3   0.408433 0.442774 0.040578 0.450840
C21   C     C_R   0.261902 0.503092 0.495357 0.778078
C22   C     C_R   0.737675 0.496425 0.504738 0.783580
C23   C     C_R   0.037756 0.806946 0.100866 -0.251039
C24   C     C_R   0.948137 0.149243 0.843187 -0.213579
C25   C     C_R   0.050848 0.760211 0.240340 0.230347
C26   C     C_R   0.933263 0.217836 0.716501 0.216831
C27   C     C_R   0.081971 0.631547 0.263581 0.069609
C28   C     C_R   0.912309 0.349432 0.721135 0.050505
C29   C     C_R   0.101760 0.554498 0.147898 -0.168598
C30   C     C_R   0.897148 0.407084 0.851279 -0.176755
C31   C     C_R   0.088510 0.601858 0.010558 -0.129100
C32   C     C_R   0.914430 0.338404 0.976470 -0.137488
C33   C     C_R   0.055328 0.728142 0.985492 0.308646
C34   C     C_R   0.941060 0.209603 0.973482 0.278034
C35   C     C_R   0.920302 0.569263 0.406230 -0.166864
C36   C     C_R   0.078124 0.432000 0.596264 -0.221784
Cu1   Cu    Cu3+1 0.500030 0.499990 0.643150 0.989044
Cu2   Cu    Cu3+1 0.499970 0.500010 0.356850 0.975808
H1    H     H_    0.488261 0.710020 0.096336 0.157233
H2    H     H_    0.512228 0.289916 0.903728 0.157899
H3    H     H_    0.009564 0.903600 0.081227 0.189037
H4    H     H_    0.971017 0.049992 0.840690 0.180866
H5    H     H_    0.114813 0.454725 0.163683 0.189782
H6    H     H_    0.886201 0.507589 0.856959 0.203453
H7    H     H_    0.099951 0.538629 0.922991 0.193101
H8    H     H_    0.914782 0.386676 0.076642 0.194425
H9    H     H_    0.858639 0.621763 0.330204 0.174724
H10   H     H_    0.139285 0.378536 0.671875 0.166429
H11   H     H_    0.711929 0.906793 0.499249 0.144469
H12   H     H_    0.290635 0.094067 0.501591 0.134974
H13   H     H_    0.623045 0.070350 0.712366 0.146688
H14   H     H_    0.380590 0.930050 0.285486 0.147960
N1    N     N_3   0.500090 0.499970 0.858290 -0.225741
N2    N     N_3   0.499910 0.500030 0.141710 -0.236748
O1    O     O_R   0.500060 0.316850 0.620870 -0.579356
O2    O     O_R   0.499940 0.683150 0.379130 -0.578770
O3    O     O_R   0.500000 0.316860 0.379090 -0.600299
O4    O     O_R   0.500000 0.683140 0.620910 -0.576159
O5    O     O_R   0.319670 0.500010 0.620890 -0.532730
O6    O     O_R   0.680330 0.499990 0.379110 -0.542601
O7    O     O_R   0.319620 0.500010 0.379110 -0.553188
O8    O     O_R   0.680380 0.499990 0.620890 -0.554994
N3    N     N_2   0.039908 0.776231 0.844778 -0.445299
H15   H     H_    0.089099 0.726319 0.773002 0.278649
C37   C     C_3   0.913444 0.801705 0.791373 -0.700360
H16   H     H_    0.911374 0.856933 0.691930 0.240474
H17   H     H_    0.861399 0.856291 0.868925 0.236430
H18   H     H_    0.867898 0.712755 0.767094 0.251578
N4    N     N_2   0.965630 0.141594 0.101692 -0.459120
H19   H     H_    0.908381 0.169355 0.178662 0.265011
C38   C     C_3   0.093903 0.137746 0.153896 -0.737536
H20   H     H_    0.107091 0.078974 0.250703 0.231784
H21   H     H_    0.123257 0.233253 0.181635 0.246393
H22   H     H_    0.152608 0.096763 0.073119 0.245630
O9    O     O_3   0.300622 0.616371 0.872119 -0.735327
H23   H     H_    0.320149 0.705822 0.870155 0.313292
O10   O     O_3   0.702269 0.386694 0.126060 -0.732236
H24   H     H_    0.674143 0.309230 0.168084 0.324598
O11   O     O_3   0.691113 0.619095 0.912005 -0.739200
H25   H     H_    0.654843 0.697219 0.866881 0.324100
O12   O     O_3   0.310687 0.378286 0.087268 -0.746476
H26   H     H_    0.348513 0.301741 0.134434 0.314625
N5    N     N_2   0.017619 0.838697 0.354300 -0.436861
H27   H     H_    0.968797 0.920018 0.323299 0.254022
C39   C     C_3   0.115935 0.859619 0.461481 -0.713005
H28   H     H_    0.081669 0.922094 0.544774 0.243869
H29   H     H_    0.192047 0.904375 0.412962 0.221248
H30   H     H_    0.151134 0.770545 0.512517 0.231908
N6    N     N_2   0.951436 0.154398 0.587358 -0.451329
H31   H     H_    0.038519 0.160922 0.553095 0.245443
C40   C     C_3   0.853493 0.171299 0.476485 -0.652147
H32   H     H_    0.871904 0.250721 0.406890 0.224647
H33   H     H_    0.763236 0.189295 0.521283 0.226950
H34   H     H_    0.848275 0.085208 0.411909 0.235423
N7    N     N_2   0.392604 0.920966 0.735822 -0.430832
H35   H     H_    0.316192 0.870553 0.707758 0.248019
C41   C     C_3   0.369548 0.015491 0.840845 -0.712838
H36   H     H_    0.327369 0.972268 0.931146 0.222155
H37   H     H_    0.305401 0.090941 0.794653 0.233746
H38   H     H_    0.457202 0.055954 0.881877 0.231346
N8    N     N_2   0.604202 0.078284 0.259052 -0.448897
H39   H     H_    0.544484 0.137579 0.198551 0.244392
C42   C     C_3   0.659084 0.980648 0.175470 -0.720321
H40   H     H_    0.701751 0.023382 0.085218 0.231207
H41   H     H_    0.587726 0.916739 0.133090 0.232152
H42   H     H_    0.732185 0.926462 0.240122 0.238341

loop_
_geom_bond_atom_site_label_1
_geom_bond_atom_site_label_2
_ccdc_geom_bond_type
N3    C37   S    
N8    H39   S    
C27   C29   A    
C24   H4    S    
N7    H35   S    
C9    C14   S    
C35   H9    S    
C4    C36   A    
C41   H36   S    
O10   H24   S    
C26   N6    S    
C15   C19   S    
C13   N7    S    
C24   C26   A    
C21   O5    A    
C8    C11   S    
C22   O6    A    
C40   H33   S    
Cu2   O3    S    
C5    C36   A    
C17   C20   S    
C6    C35   A    
C15   C17   S    
C18   C19   S    
N4    C38   S    
C16   N1    S    
N5    H27   S    
C37   H17   S    
C31   C33   A    
N6    C40   S    
C8    H14   S    
C21   O7    A    
Cu1   O4    S    
C33   N3    S    
Cu2   O7    S    
Cu1   N1    S    
C19   N1    S    
N8    C42   S    
C20   O12   S    
C29   H5    S    
C30   H6    S    
C1    C12   S    
C2    C11   S    
C41   H37   S    
O12   H26   S    
C39   H29   S    
C7    C12   S    
C15   N2    S    
C9    H11   S    
C20   N2    S    
C40   H32   S    
C38   H21   S    
C14   N8    S    
C23   C33   A    
C39   H28   S    
C24   C34   A    
O11   H25   S    
C32   C34   A    
O9    H23   S    
Cu1   Cu2   S    
C1    O3    A    
C22   O8    A    
C5    C28   S    
C6    C27   S    
Cu2   N2    S    
C3    C35   A    
C16   C20   S    
C37   H18   S    
N7    C41   S    
C42   H41   S    
C16   C18   S    
C19   O11   S    
C9    C11   S    
C34   N4    S    
C15   H1    S    
Cu1   O5    S    
C10   C12   S    
C16   H2    S    
Cu2   O6    S    
C4    C6    A    
N5    C39   S    
C12   C14   S    
C10   H12   S    
C17   N1    S    
C41   H38   S    
C17   O9    S    
C39   H30   S    
C7    C9    S    
C8    C14   S    
C32   H8    S    
C3    C5    A    
C10   C13   S    
C38   H22   S    
C2    O4    A    
C25   C27   A    
C26   C28   A    
C23   H3    S    
C28   C30   A    
C1    O1    A    
C7    H13   S    
C38   H20   S    
C29   C31   A    
C2    O2    A    
C40   H34   S    
C30   C32   A    
C4    C21   S    
C11   C13   S    
C18   O10   S    
C36   H10   S    
C42   H42   S    
C23   C25   A    
N4    H19   S    
C18   N2    S    
N3    H15   S    
Cu1   O1    S    
C7    C13   S    
Cu2   O2    S    
C8    C10   S    
C37   H16   S    
C31   H7    S    
C42   H40   S    
C25   N5    S    
Cu1   O8    S    
C3    C22   S    
N6    H31   S    
