data_mof_unit_32491.cif
_audit_creation_date              2012-12-11T14:44:35-0500
_audit_creation_method            fapswitch 2.2
_symmetry_space_group_name_H-M    P1
_symmetry_Int_Tables_number       1
_space_group_crystal_system       triclinic
_cell_length_a                    20.07475
_cell_length_b                    7.2122
_cell_length_c                    19.675458
_cell_angle_alpha                 90.083378
_cell_angle_beta                  98.254338
_cell_angle_gamma                 89.989239
_cell_volume                      2819.16027036

loop_
_atom_site_label
_atom_site_type_symbol
_atom_type_description
_atom_site_fract_x
_atom_site_fract_y
_atom_site_fract_z
_atom_type_partial_charge
O1    O     O_R   0.673210 0.377390 0.686390 -0.507187
O2    O     O_R   0.326790 0.622610 0.313610 -0.507187
O3    O     O_R   0.826790 0.877390 0.813610 -0.502002
O4    O     O_R   0.173210 0.122610 0.186390 -0.502001
O5    O     O_R   0.810750 0.706450 0.681250 -0.514906
O6    O     O_R   0.189250 0.293550 0.318750 -0.514906
O7    O     O_R   0.689250 0.206450 0.818750 -0.524315
O8    O     O_R   0.310750 0.793550 0.181250 -0.524315
C1    C     C_R   0.830835 0.538541 0.665471 0.722532
C2    C     C_R   0.169164 0.461459 0.334529 0.722531
C3    C     C_R   0.669004 0.038864 0.834317 0.799327
C4    C     C_R   0.330996 0.961136 0.165683 0.799327
O9    O     O_R   0.672750 0.707060 0.678240 -0.540936
O10   O     O_R   0.327250 0.292940 0.321760 -0.540936
O11   O     O_R   0.827250 0.207060 0.821760 -0.540321
O12   O     O_R   0.172750 0.792940 0.178240 -0.540321
O13   O     O_R   0.687800 0.877990 0.810580 -0.538661
O14   O     O_R   0.312200 0.122010 0.189420 -0.538660
O15   O     O_R   0.812200 0.377990 0.689420 -0.535669
O16   O     O_R   0.187800 0.622010 0.310580 -0.535669
C5    C     C_R   0.648251 0.538442 0.661405 0.779215
C6    C     C_R   0.351749 0.461558 0.338595 0.779215
C7    C     C_R   0.852039 0.038627 0.838323 0.842105
C8    C     C_R   0.147961 0.961373 0.161677 0.842104
O17   O     O_3   0.755100 0.544060 0.793420 -0.370391
O18   O     O_3   0.244900 0.455940 0.206580 -0.370391
O19   O     O_3   0.744900 0.044060 0.706580 -0.364851
O20   O     O_3   0.255100 0.955940 0.293420 -0.364851
V1    V     V_3+5 0.749050 0.818670 0.741950 1.689385
V2    V     V_3+5 0.250950 0.181330 0.258050 1.689385
V3    V     V_3+5 0.750950 0.318670 0.758050 1.673681
V4    V     V_3+5 0.249050 0.681330 0.241950 1.673681
C9    C     C_R   0.084674 0.965638 0.110530 -0.105074
C10   C     C_R   0.915326 0.034362 0.889470 -0.105074
C11   C     C_R   0.414951 0.466814 0.389687 -0.097874
C12   C     C_R   0.585049 0.533186 0.610313 -0.097875
C13   C     C_R   0.023317 0.175226 0.937003 -0.107514
C14   C     C_R   0.976683 0.824774 0.062997 -0.107513
C15   C     C_R   0.473634 0.659563 0.566718 -0.110763
C16   C     C_R   0.526366 0.340440 0.433282 -0.110765
C17   C     C_R   0.966468 0.167546 0.885361 -0.148250
C18   C     C_R   0.033532 0.832454 0.114639 -0.148250
C19   C     C_R   0.531502 0.656518 0.617274 -0.133717
C20   C     C_R   0.468498 0.343484 0.382725 -0.133718
C21   C     C_R   0.924899 0.901844 0.943097 0.377367
C22   C     C_R   0.075101 0.098156 0.056903 0.377367
C23   C     C_R   0.577836 0.408208 0.554164 0.319345
C24   C     C_R   0.422163 0.591793 0.445836 0.319341
C25   C     C_R   0.975092 0.930463 0.001474 0.003827
C26   C     C_R   0.024907 0.069537 0.998526 0.003827
C27   C     C_R   0.526411 0.436145 0.496858 0.021729
C28   C     C_R   0.473589 0.563857 0.503141 0.021728
C29   C     C_R   0.556375 0.108824 0.867407 0.344555
C30   C     C_R   0.443624 0.891176 0.132593 0.344556
C31   C     C_R   0.943087 0.613454 0.631827 0.393131
C32   C     C_R   0.056913 0.386546 0.368173 0.393131
C33   C     C_R   0.620672 0.030915 0.884808 -0.154728
C34   C     C_R   0.379328 0.969085 0.115192 -0.154728
C35   C     C_R   0.879547 0.529603 0.615316 -0.177440
C36   C     C_R   0.120452 0.470396 0.384684 -0.177440
C37   C     C_R   0.637961 0.940088 0.948666 -0.146751
C38   C     C_R   0.362039 0.059912 0.051334 -0.146751
C39   C     C_R   0.863928 0.429695 0.553082 -0.157722
C40   C     C_R   0.136072 0.570305 0.446917 -0.157722
C41   C     C_R   0.590963 0.933102 0.996891 -0.028073
C42   C     C_R   0.409037 0.066898 0.003109 -0.028073
C43   C     C_R   0.909914 0.428839 0.503959 0.019175
C44   C     C_R   0.090086 0.571161 0.496041 0.019175
C45   C     C_R   0.524790 0.005882 0.977300 -0.006526
C46   C     C_R   0.475210 0.994118 0.022700 -0.006526
C47   C     C_R   0.975391 0.505614 0.522825 -0.021500
C48   C     C_R   0.024609 0.494386 0.477175 -0.021500
C49   C     C_R   0.507967 0.091772 0.912488 -0.015168
C50   C     C_R   0.492033 0.908228 0.087512 -0.015168
C51   C     C_R   0.991866 0.594650 0.587165 -0.016935
C52   C     C_R   0.008133 0.405350 0.412834 -0.016935
C53   C     C_R   0.607100 0.859737 0.064497 0.341750
C54   C     C_R   0.392900 0.140263 0.935503 0.341750
C55   C     C_R   0.893160 0.357877 0.436152 0.394699
C56   C     C_R   0.106840 0.642123 0.563848 0.394698
C57   C     C_R   0.557810 0.844345 0.107149 -0.110237
C58   C     C_R   0.442190 0.155655 0.892851 -0.110237
C59   C     C_R   0.942275 0.341352 0.393248 -0.129484
C60   C     C_R   0.057725 0.658648 0.606752 -0.129484
H1    H     H_    0.572762 0.785410 0.157536 0.229313
H2    H     H_    0.427238 0.214590 0.842464 0.229313
H3    H     H_    0.927041 0.283515 0.342664 0.227051
H4    H     H_    0.072959 0.716485 0.657336 0.227051
Cl1   Cl    Cl    0.117962 0.313922 0.069080 -0.624961
Cl2   Cl    Cl    0.882038 0.686078 0.930920 -0.624961
Cl3   Cl    Cl    0.373870 0.799111 0.438437 -0.630383
Cl4   Cl    Cl    0.626129 0.200888 0.561563 -0.630381
C61   C     C_2   0.035132 0.713169 0.176708 0.464907
H5    H     H_    0.019598 0.569259 0.171410 0.085872
O21   O     O_2   0.051782 0.776407 0.234254 -0.492529
C62   C     C_2   0.964868 0.286830 0.823292 0.464907
H6    H     H_    0.980403 0.430740 0.828590 0.085871
O22   O     O_2   0.948218 0.223592 0.765745 -0.492529
C63   C     C_2   0.467842 0.230198 0.319182 0.454268
H7    H     H_    0.487159 0.089619 0.322496 0.083895
O23   O     O_2   0.447685 0.294789 0.262618 -0.496381
C64   C     C_2   0.532158 0.769803 0.680818 0.454273
H8    H     H_    0.512841 0.910382 0.677505 0.083893
O24   O     O_2   0.552315 0.705211 0.737382 -0.496381
C65   C     C_2   0.084399 0.271760 0.920337 0.609620
H9    H     H_    0.081203 0.411373 0.899761 0.037295
O25   O     O_2   0.138641 0.192228 0.927339 -0.436190
C66   C     C_2   0.915601 0.728239 0.079663 0.609621
H10   H     H_    0.918797 0.588627 0.100239 0.037295
O26   O     O_2   0.861359 0.807772 0.072661 -0.436191
C67   C     C_2   0.410468 0.737728 0.586373 0.603567
H11   H     H_    0.410365 0.871320 0.611675 0.049754
O27   O     O_2   0.358164 0.648922 0.576471 -0.459592
C68   C     C_2   0.589533 0.262281 0.413626 0.603571
H12   H     H_    0.589636 0.128697 0.388319 0.049753
O28   O     O_2   0.641837 0.351085 0.423532 -0.459595
Cl5   Cl    Cl    0.536237 0.220976 0.786640 -0.625500
Cl6   Cl    Cl    0.463763 0.779025 0.213360 -0.625500
Cl7   Cl    Cl    0.962327 0.732975 0.711292 -0.610167
Cl8   Cl    Cl    0.037673 0.267025 0.288708 -0.610167
C69   C     C_2   0.704360 0.847360 0.961955 0.573218
H13   H     H_    0.707520 0.701297 0.975159 0.104238
O29   O     O_2   0.755919 0.934381 0.958555 -0.496930
C70   C     C_2   0.295640 0.152639 0.038045 0.573218
H14   H     H_    0.292479 0.298703 0.024841 0.104238
O30   O     O_2   0.244081 0.065619 0.041444 -0.496930
C71   C     C_2   0.801410 0.317772 0.543684 0.632085
H15   H     H_    0.753889 0.381722 0.550402 0.055039
O31   O     O_2   0.803448 0.151450 0.532425 -0.467240
C72   C     C_2   0.198590 0.682227 0.456316 0.632085
H16   H     H_    0.246111 0.618277 0.449598 0.055038
O32   O     O_2   0.196552 0.848550 0.467574 -0.467240
Cl9   Cl    Cl    0.688713 0.798966 0.104571 -0.511466
Cl10  Cl    Cl    0.311286 0.201034 0.895429 -0.511466
Cl11  Cl    Cl    0.810328 0.310651 0.396095 -0.473608
Cl12  Cl    Cl    0.189672 0.689349 0.603905 -0.473606

loop_
_geom_bond_atom_site_label_1
_geom_bond_atom_site_label_2
_ccdc_geom_bond_type
C34   C38   A    
C59   H3    S    
O17   V3    S    
C61   H5    S    
C32   C52   A    
C31   C35   A    
O19   V1    S    
C18   C61   S    
O13   V1    S    
C23   Cl4   S    
O3    C7    A    
C67   H11   S    
C56   C60   A    
O15   V3    S    
C38   C70   S    
C68   H12   S    
C5    C12   S    
C31   Cl7   S    
O1    C5    A    
C6    C11   S    
C65   O25   D    
C9    C18   A    
C40   C44   A    
C37   C69   S    
C14   C18   A    
O16   V4    S    
O4    C8    A    
C20   C63   S    
C29   Cl5   S    
C51   C60   A    
C17   C62   S    
O1    V3    S    
C66   H10   S    
C12   C23   A    
O2    V4    S    
C33   C37   A    
O3    V1    S    
C46   C50   A    
C30   C50   A    
C1    O15   A    
C16   C68   S    
C2    O16   A    
C55   C59   A    
C24   Cl3   S    
C62   O22   D    
O2    C6    A    
C45   C49   A    
O14   V2    S    
C53   C57   A    
C16   C20   A    
C44   C48   A    
C4    C34   S    
O11   C7    A    
C15   C28   A    
O12   C8    A    
C13   C17   A    
C9    C22   A    
C32   Cl8   S    
C45   C46   A    
C10   C17   A    
C53   Cl9   S    
O10   V2    S    
C11   C24   A    
C52   C59   A    
O7    C3    A    
O5    V1    S    
C42   C54   A    
C39   C43   A    
C41   C53   A    
C38   C42   A    
C27   C28   A    
O8    V4    S    
O7    V3    S    
C14   C25   A    
C29   C33   A    
O18   V4    S    
C15   C19   A    
C13   C65   S    
C58   H2    S    
O4    V2    S    
C32   C36   A    
C1    C35   S    
C72   O32   D    
C71   O31   D    
O5    C1    A    
C11   C20   A    
C22   Cl1   S    
C54   C58   A    
C68   O28   D    
C63   H7    S    
C21   C25   A    
O8    C4    A    
C7    C10   S    
C62   H6    S    
O9    C5    A    
C48   C52   A    
C67   O27   D    
C10   C21   A    
C64   O24   D    
C21   Cl2   S    
C54   Cl10  S    
C69   H13   S    
O6    V2    S    
C40   C72   S    
C30   Cl6   S    
C50   C57   A    
C44   C56   A    
C49   C58   A    
C70   O30   D    
C30   C34   A    
O9    V1    S    
C2    C36   S    
C3    O13   A    
C63   O23   D    
C29   C49   A    
C60   H4    S    
O6    C2    A    
C23   C27   A    
O11   V3    S    
O12   V4    S    
C16   C27   A    
C55   Cl11  S    
C65   H9    S    
C22   C26   A    
C35   C39   A    
C8    C9    S    
C56   Cl12  S    
C36   C40   A    
O10   C6    A    
O20   V2    S    
C72   H16   S    
C19   C64   S    
C31   C51   A    
C47   C48   A    
C47   C51   A    
C13   C26   A    
C42   C46   A    
C41   C45   A    
C15   C67   S    
C66   O26   D    
C43   C47   A    
C14   C66   S    
C64   H8    S    
C57   H1    S    
C69   O29   D    
C37   C41   A    
C24   C28   A    
C61   O21   D    
C25   C26   A    
C4    O14   A    
C12   C19   A    
C3    C33   S    
C43   C55   A    
C39   C71   S    
C71   H15   S    
C70   H14   S    
