data_mof_unit_21780.cif
_audit_creation_date              2013-03-05T15:54:32-0500
_audit_creation_method            fapswitch 2.2
_symmetry_space_group_name_H-M    P1
_symmetry_Int_Tables_number       1
_space_group_crystal_system       triclinic
_cell_length_a                    19.025216
_cell_length_b                    18.584616
_cell_length_c                    12.422015
_cell_angle_alpha                 90.052874
_cell_angle_beta                  130.248941
_cell_angle_gamma                 89.962819
_cell_volume                      3352.26764115

loop_
_atom_site_label
_atom_site_type_symbol
_atom_site_description
_atom_site_fract_x
_atom_site_fract_y
_atom_site_fract_z
_atom_type_partial_charge
O1    O     O_R   0.608610 0.924520 0.551740 -0.584491
O2    O     O_R   0.608610 0.075480 0.551740 -0.589927
O3    O     O_R   0.108610 0.424520 0.551740 -0.594151
O4    O     O_R   0.108610 0.575480 0.551740 -0.582604
O5    O     O_R   0.564110 0.924510 0.685150 -0.523886
O6    O     O_R   0.564110 0.075490 0.685150 -0.572303
O7    O     O_R   0.064110 0.424510 0.685150 -0.571728
O8    O     O_R   0.064110 0.575490 0.685150 -0.522289
C1    C     C_R   0.612222 0.898187 0.652615 0.830352
C2    C     C_R   0.611709 0.102073 0.652094 0.835736
C3    C     C_R   0.111764 0.397960 0.652170 0.835648
C4    C     C_R   0.112201 0.601804 0.652619 0.832378
Cu1   Cu    Cu3+1 0.526340 1.000000 0.421010 0.953336
Cu2   Cu    Cu3+1 0.026340 0.500000 0.421010 0.954015
Cu3   Cu    Cu3+1 0.473640 1.000000 0.578990 0.969381
Cu4   Cu    Cu3+1 0.973640 0.500000 0.578990 0.969320
O9    O     O_R   0.435880 0.075470 0.314850 -0.607112
O10   O     O_R   0.435880 0.924530 0.314850 -0.551223
O11   O     O_R   0.935880 0.575470 0.314850 -0.551417
O12   O     O_R   0.935880 0.424530 0.314850 -0.605552
O13   O     O_R   0.391380 0.075460 0.448260 -0.594246
O14   O     O_R   0.391380 0.924540 0.448260 -0.606556
O15   O     O_R   0.891380 0.575460 0.448260 -0.606596
O16   O     O_R   0.891380 0.424540 0.448260 -0.595362
C5    C     C_R   0.384139 0.098729 0.342386 0.771122
C6    C     C_R   0.383497 0.901800 0.341319 0.769002
C7    C     C_R   0.883537 0.598260 0.341409 0.768659
C8    C     C_R   0.883943 0.401440 0.342033 0.773891
C9    C     C_R   0.651535 0.313456 0.102995 -0.160391
C10   C     C_R   0.647175 0.678996 0.089573 -0.175380
C11   C     C_R   0.146817 0.821769 0.088694 -0.175600
C12   C     C_R   0.152988 0.188680 0.106390 -0.131849
H1    H     H_    0.216240 0.886665 0.274876 0.147241
H2    H     H_    0.222675 0.122576 0.290663 0.145766
H3    H     H_    0.721604 0.378954 0.288340 0.148985
H4    H     H_    0.716501 0.614068 0.275525 0.146669
H5    H     H_    0.513405 0.248010 0.865683 0.140366
H6    H     H_    0.509346 0.741741 0.847750 0.133181
H7    H     H_    0.008958 0.759113 0.846552 0.132893
H8    H     H_    0.014976 0.254410 0.869891 0.140042
H9    H     H_    0.588224 0.312970 0.086577 0.132140
H10   H     H_    0.582138 0.676377 0.067855 0.134527
H11   H     H_    0.081715 0.824628 0.066746 0.135221
H12   H     H_    0.089893 0.189637 0.090573 0.129191
C13   C     C_R   0.307729 0.854077 0.236811 -0.051344
C14   C     C_R   0.310150 0.148435 0.241535 -0.036903
C15   C     C_R   0.809404 0.352330 0.240082 -0.038559
C16   C     C_R   0.807901 0.646161 0.237114 -0.051231
C17   C     C_R   0.755000 0.166851 0.750128 -0.142828
C18   C     C_R   0.759815 0.838291 0.758909 -0.159912
C19   C     C_R   0.259905 0.661446 0.759132 -0.158811
C20   C     C_R   0.254983 0.332990 0.750183 -0.143751
C21   C     C_R   0.331344 0.707223 0.857954 -0.140529
C22   C     C_R   0.325436 0.286167 0.847213 -0.130766
C23   C     C_R   0.825141 0.214117 0.846396 -0.130828
C24   C     C_R   0.831289 0.792586 0.857832 -0.139340
C25   C     C_R   0.325244 0.748672 0.944787 -0.162221
C26   C     C_R   0.321506 0.247905 0.939218 -0.175482
C27   C     C_R   0.820721 0.253101 0.937342 -0.174213
C28   C     C_R   0.825311 0.751377 0.944933 -0.160842
C29   C     C_R   0.743387 0.247335 0.929997 0.087827
C30   C     C_R   0.745182 0.753173 0.930789 0.094140
C31   C     C_R   0.245039 0.747013 0.930453 0.093946
C32   C     C_R   0.244336 0.253906 0.932278 0.086164
C33   C     C_R   0.666924 0.206100 0.819591 0.059223
C34   C     C_R   0.667988 0.792748 0.817490 0.114825
C35   C     C_R   0.167870 0.707420 0.817154 0.114135
C36   C     C_R   0.167695 0.294879 0.821584 0.061956
C37   C     C_R   0.238885 0.783145 0.024897 0.082648
C38   C     C_R   0.240414 0.220302 0.030942 0.081308
C39   C     C_R   0.739274 0.281208 0.028312 0.081771
C40   C     C_R   0.739107 0.717173 0.025375 0.082675
C41   C     C_R   0.656164 0.280107 0.006311 0.174443
C42   C     C_R   0.653726 0.714301 0.996440 0.162843
C43   C     C_R   0.153409 0.786300 0.995644 0.162232
C44   C     C_R   0.157564 0.221930 0.009688 0.174693
C45   C     C_R   0.578243 0.246941 0.886822 -0.223130
C46   C     C_R   0.575672 0.745739 0.873949 -0.191679
C47   C     C_R   0.075346 0.754922 0.872992 -0.189589
C48   C     C_R   0.079654 0.255165 0.890511 -0.227008
C49   C     C_R   0.583076 0.211222 0.793753 -0.205728
C50   C     C_R   0.582394 0.783988 0.784997 -0.144023
C51   C     C_R   0.082183 0.716396 0.784304 -0.141178
C52   C     C_R   0.084086 0.290105 0.796541 -0.205588
C53   C     C_R   0.315766 0.815178 0.149247 -0.197392
C54   C     C_R   0.316873 0.185655 0.151251 -0.219225
C55   C     C_R   0.815982 0.315223 0.149433 -0.223413
C56   C     C_R   0.815931 0.684928 0.149479 -0.196068
C57   C     C_R   0.223609 0.856042 0.208435 -0.189758
C58   C     C_R   0.228841 0.151423 0.221382 -0.147063
C59   C     C_R   0.727729 0.350060 0.218972 -0.169851
C60   C     C_R   0.723882 0.644552 0.209054 -0.189167
C61   C     C_R   0.676686 0.160824 0.738206 -0.092215
C62   C     C_R   0.678844 0.840464 0.740338 -0.084171
C63   C     C_R   0.178847 0.659482 0.740347 -0.083997
C64   C     C_R   0.176916 0.339393 0.738804 -0.093245
H13   H     H_    0.383212 0.811699 0.180241 0.159457
H14   H     H_    0.382766 0.185677 0.176711 0.145880
H15   H     H_    0.882055 0.314597 0.175448 0.147178
H16   H     H_    0.883308 0.688117 0.180192 0.161077
H17   H     H_    0.763276 0.133618 0.687277 0.167842
H18   H     H_    0.769084 0.873524 0.699497 0.158828
H19   H     H_    0.269248 0.626022 0.699931 0.160409
H20   H     H_    0.262877 0.365648 0.686403 0.162622
H21   H     H_    0.383685 0.782490 0.019893 0.152148
H22   H     H_    0.379123 0.213001 0.012219 0.123160
H23   H     H_    0.878042 0.288374 0.009864 0.123899
H24   H     H_    0.883808 0.717643 0.020113 0.153065
H25   H     H_    0.393301 0.708681 0.870930 0.132165
H26   H     H_    0.385027 0.281289 0.854441 0.133855
H27   H     H_    0.884864 0.218768 0.853917 0.135057
H28   H     H_    0.893195 0.791000 0.870678 0.132151
H29   H     H_    0.519687 0.188801 0.700227 0.180898
H30   H     H_    0.519606 0.806424 0.690332 0.152775
H31   H     H_    0.019443 0.693884 0.689617 0.152333
H32   H     H_    0.020449 0.312034 0.702756 0.179692
C65   C     C_R   0.678884 0.043486 0.290089 0.306509
C66   C     C_R   0.172372 0.443417 0.286942 0.310715
H33   H     H_    0.700809 0.028508 0.481067 0.173212
H34   H     H_    0.196505 0.461999 0.478447 0.174654
N1    N     N_R   0.566260 0.000000 0.302220 -0.232319
N2    N     N_R   0.066260 0.500000 0.302220 -0.231222
C67   C     C_R   0.342566 0.992022 0.622893 0.092141
C68   C     C_R   0.842620 0.508560 0.622908 0.090698
C69   C     C_R   0.305736 0.994755 0.689485 -0.276377
C70   C     C_R   0.805655 0.506219 0.689372 -0.277246
C71   C     C_R   0.363300 0.003617 0.835034 -0.086885
C72   C     C_R   0.862972 0.496750 0.834756 -0.086058
C73   C     C_R   0.459734 0.008594 0.917970 0.001948
C74   C     C_R   0.959245 0.490592 0.917597 0.004849
C75   C     C_R   0.494344 0.010191 0.844269 0.115669
C76   C     C_R   0.994028 0.489229 0.844225 0.115618
C77   C     C_R   0.523553 0.013153 0.070739 -0.177953
C78   C     C_R   0.022458 0.484323 0.069952 -0.179382
C79   C     C_R   0.613767 0.039609 0.140315 -0.111172
C80   C     C_R   0.110686 0.453712 0.138254 -0.114836
C81   C     C_R   0.636965 0.059810 0.057914 0.342373
C82   C     C_R   0.137722 0.439754 0.058087 0.331244
C83   C     C_R   0.589669 0.026746 0.925876 0.214847
C84   C     C_R   0.089643 0.473959 0.926616 0.218324
C85   C     C_R   0.502067 0.993185 0.157518 0.556010
C86   C     C_R   0.002145 0.506848 0.157412 0.556866
C87   C     C_R   0.652354 0.023888 0.367327 -0.107931
C88   C     C_R   0.149597 0.470232 0.365628 -0.105291
N3    N     N_R   0.434410 1.000000 0.697680 -0.197951
N4    N     N_R   0.934410 0.500000 0.697680 -0.197484
H35   H     H_    0.297020 0.985746 0.509587 0.121514
H36   H     H_    0.797193 0.515216 0.509713 0.121408
H37   H     H_    0.329506 0.010655 0.877927 0.181951
H38   H     H_    0.829202 0.490025 0.877788 0.178462
H39   H     H_    0.231940 0.991133 0.627652 0.159480
H40   H     H_    0.731913 0.510553 0.627513 0.157234
O17   O     O_3   0.715512 0.099699 0.116667 -0.640543
H41   H     H_    0.716074 0.114690 0.040758 0.350276
O18   O     O_3   0.223003 0.410018 0.121991 -0.625325
H42   H     H_    0.222907 0.390854 0.047481 0.350337
N5    N     N_R   0.773563 0.062306 0.366653 0.175480
O19   O     O_R   0.824494 0.022240 0.355030 -0.279433
O20   O     O_R   0.813226 0.108653 0.469334 -0.376300
N6    N     N_R   0.256598 0.403607 0.360357 0.177064
O21   O     O_R   0.253441 0.335616 0.332290 -0.329040
O22   O     O_R   0.332522 0.429970 0.474775 -0.357240
O23   O     O_3   0.418222 0.963395 0.097360 -0.744155
H43   H     H_    0.388374 0.996568 0.119421 0.337054
O24   O     O_3   0.919527 0.538928 0.097644 -0.742548
H44   H     H_    0.887639 0.506052 0.116444 0.334191
N7    N     N_R   0.647577 0.980845 0.920833 0.170636
O25   O     O_R   0.710596 0.008347 0.921120 -0.371566
O26   O     O_R   0.659741 0.915584 0.967820 -0.352814
N8    N     N_R   0.146538 0.520883 0.921096 0.170087
O27   O     O_R   0.158191 0.585918 0.968901 -0.358464
O28   O     O_R   0.208692 0.494647 0.918049 -0.375979

loop_
_geom_bond_atom_site_label_1
_geom_bond_atom_site_label_2
_geom_bond_distance
_ccdc_geom_bond_type
C82   O18   1.379600 S    
C7    C16   1.460489 S    
C25   H21   1.077507 S    
C8    C15   1.458337 S    
C35   C51   1.411414 A    
N5    O19   1.301466 A    
Cu2   N2    2.049988 S    
C23   C27   1.389048 A    
H33   C87   1.081761 S    
N1    C87   1.350023 A    
C66   N6    1.434626 S    
O23   H43   0.988924 S    
O10   C6    1.305362 A    
C16   C60   1.399139 A    
N2    C88   1.351356 A    
C48   C52   1.385644 A    
H2    C58   1.083153 S    
C14   C54   1.392656 A    
C37   C53   1.399891 A    
N7    O26   1.300626 A    
H3    C59   1.083177 S    
O7    C3    1.308537 A    
C68   H36   1.081294 S    
C17   C61   1.403387 A    
O24   H44   0.989809 S    
C11   H11   1.083902 S    
Cu1   O10   1.932652 S    
C32   C36   1.416439 A    
Cu4   N4    2.037837 S    
C65   C87   1.390909 A    
C66   C88   1.391987 A    
C17   H17   1.083345 S    
C10   C42   1.404370 A    
C67   C69   1.388060 A    
C9    C41   1.403398 A    
N8    O27   1.300592 A    
C19   H19   1.083368 S    
C22   H26   1.081649 S    
C28   C30   1.417695 A    
O8    Cu4   1.933006 S    
O2    Cu1   1.941358 S    
C3    C64   1.468327 S    
C69   H39   1.082677 S    
C6    C13   1.459869 S    
O6    Cu3   1.933006 S    
C70   H40   1.082653 S    
Cu3   O14   1.941041 S    
C12   C58   1.392552 A    
C31   C37   1.420179 A    
C11   C57   1.394251 A    
H34   C88   1.080712 S    
C84   N8    1.426240 S    
C44   C48   1.391087 A    
C16   C56   1.394262 A    
C4    C63   1.469129 S    
C20   C64   1.403064 A    
C32   C38   1.420333 A    
O4    C4    1.304831 A    
O11   C7    1.305249 A    
C28   H24   1.077445 S    
C53   H13   1.077263 S    
C34   C62   1.416027 A    
C9    H9    1.084024 S    
H4    C60   1.083174 S    
C33   C61   1.416116 A    
Cu4   O16   1.941041 S    
C35   C63   1.415393 A    
C74   C78   1.449391 A    
C67   N3    1.356726 A    
C40   C56   1.400312 A    
C20   C22   1.385420 A    
C25   C31   1.417745 A    
C55   H15   1.076964 S    
C19   C63   1.403233 A    
C26   C32   1.418333 A    
C31   C35   1.416720 A    
C27   C29   1.418175 A    
C30   C34   1.417090 A    
C65   N5    1.434558 S    
C36   C52   1.412662 A    
C51   H31   1.081105 S    
O1    C1    1.305454 A    
C50   H30   1.081059 S    
C40   C42   1.419965 A    
N7    O25   1.301540 A    
Cu3   N3    2.037837 S    
C75   C83   1.426816 A    
C21   C25   1.389410 A    
H1    C57   1.083178 S    
C18   C62   1.403108 A    
C78   C80   1.421400 A    
O12   C8    1.306330 A    
C2    C61   1.468141 S    
C17   C23   1.385583 A    
C68   N4    1.357041 A    
C18   C24   1.386276 A    
C24   C28   1.389522 A    
C26   H22   1.077199 S    
H7    C47   1.083089 S    
N5    O20   1.301262 A    
C74   C76   1.431288 A    
C71   C73   1.411925 A    
O5    C1    1.310572 A    
C69   C71   1.391552 A    
Cu2   O12   1.932652 S    
C78   C86   1.430549 A    
Cu1   N1    2.049988 S    
C46   C50   1.388083 A    
C11   C43   1.404301 A    
C73   C77   1.450871 A    
C45   C49   1.386207 A    
O8    C4    1.310841 A    
N1    C85   1.378981 A    
H8    C48   1.082897 S    
C12   H12   1.084009 S    
C81   O17   1.380746 S    
C36   C64   1.416829 A    
C83   N7    1.425916 S    
C81   C83   1.403266 A    
C56   H16   1.077185 S    
O3    Cu2   1.942057 S    
C82   C84   1.406661 A    
C39   C55   1.398281 A    
C72   H38   1.076166 S    
O7    Cu4   1.933152 S    
C67   H35   1.081339 S    
C85   O23   1.367293 S    
Cu4   O15   1.941737 S    
O15   C7    1.307123 A    
Cu1   Cu3   2.720101 S    
C38   C44   1.420321 A    
Cu2   Cu4   2.720101 S    
O1    Cu1   1.942057 S    
N2    C86   1.380094 A    
C37   C43   1.419980 A    
C49   H29   1.080277 S    
O2    C2    1.306011 A    
C9    C59   1.392997 A    
C66   C80   1.422897 A    
C80   C82   1.408832 A    
C68   C70   1.388722 A    
C22   C26   1.389038 A    
C21   H25   1.081967 S    
C79   C81   1.402909 A    
O13   C5    1.304797 A    
C20   H20   1.083227 S    
C70   C72   1.391801 A    
C13   C57   1.399227 A    
C23   H27   1.081758 S    
C15   C59   1.399500 A    
Cu2   O11   1.932796 S    
N6    O22   1.301271 A    
O16   C8    1.305106 A    
C72   C74   1.411103 A    
C12   C44   1.403210 A    
C65   C79   1.422266 A    
C18   H18   1.083376 S    
C14   C58   1.399368 A    
C76   C84   1.425176 A    
H6    C46   1.083120 S    
C77   C85   1.427297 A    
Cu1   O9    1.932796 S    
C13   C53   1.393718 A    
C30   C40   1.420743 A    
C76   N4    1.404509 A    
N6    O21   1.301560 A    
O9    C5    1.306575 A    
C71   H37   1.075559 S    
C86   O24   1.367059 S    
C47   C51   1.388120 A    
C29   C39   1.419837 A    
N8    O28   1.301725 A    
C1    C62   1.469835 S    
C75   N3    1.403001 A    
O4    Cu2   1.941358 S    
C54   H14   1.076707 S    
C27   H23   1.077448 S    
O5    Cu3   1.933152 S    
O3    C3    1.306895 A    
O6    C2    1.309280 A    
O14   C6    1.306677 A    
C29   C33   1.416263 A    
Cu3   O13   1.941737 S    
H5    C45   1.082779 S    
C52   H32   1.080142 S    
C42   C46   1.393731 A    
C39   C41   1.420167 A    
O18   H42   0.990328 S    
C77   C79   1.420563 A    
C41   C45   1.391700 A    
C33   C49   1.412477 A    
C10   H10   1.083905 S    
C19   C21   1.386193 A    
O17   H41   0.990144 S    
C43   C47   1.393762 A    
C5    C14   1.458065 S    
C24   H28   1.081939 S    
C34   C50   1.411416 A    
C15   C55   1.392741 A    
C73   C75   1.432381 A    
C10   C60   1.394256 A    
C38   C54   1.398363 A    
