data_mof_unit_53750.cif
_audit_creation_date              2012-10-26T19:26:27-0400
_audit_creation_method            fapswitch 2.2
_symmetry_space_group_name_H-M    P1
_symmetry_Int_Tables_number       1
_space_group_crystal_system       triclinic
_cell_length_a                    15.091643
_cell_length_b                    13.695742
_cell_length_c                    15.887531
_cell_angle_alpha                 90.035794
_cell_angle_beta                  89.887835
_cell_angle_gamma                 89.993501
_cell_volume                      3283.80666927

loop_
_atom_site_label
_atom_site_type_symbol
_atom_type_description
_atom_site_fract_x
_atom_site_fract_y
_atom_site_fract_z
_atom_type_partial_charge
C1    C     C_R   0.328449 0.500038 0.500134 0.545268
C2    C     C_R   0.906822 0.589986 0.499685 -0.004329
C3    C     C_R   0.953524 0.500932 0.499964 0.055321
C4    C     C_R   0.500044 0.499988 0.340098 0.568871
C5    C     C_R   0.907250 0.411319 0.499801 0.023553
C6    C     C_R   0.952841 0.678681 0.499917 -0.101678
C7    C     C_R   0.045755 0.680244 0.500673 0.107605
C8    C     C_R   0.092900 0.591043 0.500588 0.044328
C9    C     C_R   0.046441 0.501327 0.500364 0.037300
C10   C     C_R   0.092806 0.411692 0.500454 0.014648
C11   C     C_R   0.046264 0.323148 0.500309 -0.122199
C12   C     C_3   0.594623 0.543004 0.948454 -0.169912
C13   C     C_R   0.953976 0.322961 0.499982 -0.120003
C14   C     C_R   0.185583 0.589297 0.500338 -0.121094
C15   C     C_R   0.231594 0.500333 0.500364 -0.024569
C16   C     C_R   0.671522 0.500010 0.499772 0.561957
C17   C     C_R   0.185044 0.411888 0.500579 -0.134869
C18   C     C_R   0.439686 0.793375 0.548180 0.042661
C19   C     C_R   0.439707 0.206700 0.548200 0.038803
C20   C     C_R   0.560033 0.793283 0.451570 0.047408
C21   C     C_R   0.560063 0.206621 0.451609 0.040360
C22   C     C_R   0.561459 0.896339 0.450398 -0.015031
C23   C     C_3   0.598712 0.545074 0.047130 0.430241
C24   C     C_R   0.561482 0.103556 0.450428 -0.016162
C25   C     C_R   0.499807 0.948175 0.499809 0.055577
C26   C     C_R   0.499816 0.051808 0.499821 0.056406
C27   C     C_R   0.438145 0.896430 0.549212 -0.010984
C28   C     C_R   0.438167 0.103640 0.549234 -0.013645
C29   C     C_R   0.622785 0.948573 0.401206 -0.132116
C30   C     C_R   0.622805 0.051230 0.401231 -0.137457
C31   C     C_R   0.376733 0.051402 0.598304 -0.139039
C32   C     C_R   0.376712 0.948748 0.598283 -0.135179
C33   C     C_R   0.500044 0.500037 0.659962 0.551363
C34   C     C_1   0.502766 0.500681 0.825118 -0.068359
C35   C     C_3   0.428323 0.563774 0.049528 -0.235172
C36   C     C_3   0.491825 0.397432 0.049153 -0.243951
C37   C     C_3   0.494166 0.396445 0.951763 -0.227894
C38   C     C_3   0.429160 0.566341 0.952132 -0.223951
C39   C     C_1   0.501263 0.500216 0.749605 -0.022357
C40   C     C_3   0.507674 0.502649 0.082849 0.041399
C41   C     C_3   0.504990 0.501559 0.917254 -0.002169
C42   C     C_1   0.504407 0.501084 0.175056 0.025340
C43   C     C_1   0.501851 0.500148 0.250536 0.046505
C44   C     C_R   0.814913 0.411560 0.499558 -0.121552
C45   C     C_R   0.768337 0.500157 0.499521 0.000791
C46   C     C_R   0.814480 0.589036 0.499403 -0.119833
Cu1   Cu    Cu3+1 0.499990 0.597420 0.500010 0.965757
Cu2   Cu    Cu3+1 0.499990 0.402580 0.500010 0.952168
H1    H     H_    0.364222 0.540048 0.927942 0.126361
H2    H     H_    0.606910 0.247465 0.413824 0.133117
H3    H     H_    0.670755 0.910056 0.362738 0.133299
H4    H     H_    0.670796 0.089674 0.362786 0.123830
H5    H     H_    0.328704 0.089912 0.636706 0.107408
H6    H     H_    0.328660 0.910301 0.636659 0.108297
H7    H     H_    0.364785 0.530691 0.071058 0.112748
H8    H     H_    0.425876 0.370573 0.070589 0.114422
H9    H     H_    0.540115 0.344681 0.075307 0.192517
H10   H     H_    0.428104 0.638638 0.075950 0.199385
H11   H     H_    0.549967 0.349796 0.929736 0.163746
H12   H     H_    0.431817 0.363523 0.927447 0.129085
H13   H     H_    0.437634 0.642899 0.930174 0.171544
H14   H     H_    0.604197 0.617221 0.921485 0.163979
H15   H     H_    0.649123 0.498094 0.921470 0.120261
H16   H     H_    0.779456 0.342698 0.499510 0.126343
H17   H     H_    0.778635 0.657665 0.499241 0.128437
H18   H     H_    0.916344 0.746869 0.499940 0.108326
H19   H     H_    0.120310 0.780149 0.561075 0.219007
H20   H     H_    0.048031 0.830035 0.493698 0.232907
H21   H     H_    0.558533 0.812391 0.060986 0.376135
H22   H     H_    0.793383 0.517942 0.991022 0.336186
H23   H     H_    0.222387 0.657166 0.499936 0.161401
H24   H     H_    0.220498 0.343011 0.500685 0.127659
H25   H     H_    0.081274 0.254059 0.500401 0.112483
H26   H     H_    0.919144 0.253773 0.499863 0.113399
H27   H     H_    0.392848 0.752535 0.585979 0.120289
H28   H     H_    0.392878 0.247602 0.586011 0.120349
H29   H     H_    0.606855 0.752369 0.413755 0.144175
N1    N     N_R   0.499930 0.743810 0.499960 -0.241747
N2    N     N_R   0.499930 0.256190 0.499960 -0.239980
N3    N     N_3   0.092230 0.771928 0.501381 -0.631320
O1    O     O_R   0.370250 0.582280 0.500020 -0.513451
O2    O     O_2   0.709260 0.702663 0.055540 -0.220531
O3    O     O_3   0.545318 0.747686 0.036131 -0.592726
O4    O     O_2   0.694139 0.463796 0.175921 -0.223744
O5    O     O_2   0.693215 0.372823 0.043602 -0.340428
O6    O     O_3   0.789199 0.527789 0.052657 -0.427485
O7    O     O_R   0.370250 0.417720 0.500020 -0.511303
O8    O     O_R   0.499990 0.582310 0.379440 -0.478931
O9    O     O_R   0.499990 0.417690 0.379440 -0.499102
O10   O     O_R   0.629730 0.582260 0.499990 -0.508936
O11   O     O_R   0.629730 0.417740 0.499990 -0.508766
O12   O     O_R   0.499980 0.582240 0.620570 -0.498283
O13   O     O_R   0.499980 0.417760 0.620570 -0.497708
O14   O     O_2   0.610014 0.678583 0.175320 -0.265585
S1    S     S_3+6 0.617886 0.670670 0.081235 0.028043
S2    S     S_3+6 0.694023 0.473309 0.081708 0.054760

loop_
_geom_bond_atom_site_label_1
_geom_bond_atom_site_label_2
_ccdc_geom_bond_type
H20   N3    S    
C16   O10   A    
C18   H27   S    
C22   C29   A    
Cu1   O12   S    
C7    C8    A    
C38   H1    S    
C45   C46   A    
C44   H16   S    
C12   C23   S    
C12   C41   S    
C20   H29   S    
C35   H10   S    
C3    C9    A    
Cu2   N2    S    
C19   H28   S    
C24   C26   A    
O5    S2    D    
C10   C17   A    
C1    O1    A    
C23   C40   S    
C23   S2    S    
O4    S2    D    
C1    O7    A    
Cu1   Cu2   S    
C8    C9    A    
C22   C25   A    
C1    C15   S    
C9    C10   A    
C5    C13   A    
C38   H13   S    
C40   C42   S    
C2    C6    A    
C34   C41   S    
C32   H6    S    
C21   H2    S    
Cu2   O13   S    
H19   N3    S    
C35   H7    S    
C34   C39   T    
C36   C40   S    
C35   C38   S    
C46   H17   S    
C36   H9    S    
C11   H25   S    
C33   O12   A    
C12   H15   S    
C25   C26   A    
C14   H23   S    
Cu2   O11   S    
C2    C46   A    
C29   C30   A    
H21   O3    S    
C12   H14   S    
C31   C32   A    
C18   N1    A    
O3    S1    S    
C21   N2    A    
Cu2   O7    S    
C33   C39   S    
C31   H5    S    
C19   N2    A    
C19   C28   A    
C37   H11   S    
O6    S2    S    
C38   C41   S    
C5    C44   A    
C20   C22   A    
Cu2   O9    S    
Cu1   O10   S    
C42   C43   T    
H22   O6    S    
C44   C45   A    
C4    O9    A    
C29   H3    S    
C15   C17   A    
C30   H4    S    
C36   C37   S    
C8    C14   A    
O2    S1    D    
C27   C32   A    
C28   C31   A    
C18   C27   A    
C3    C5    A    
C33   O13   A    
C16   C45   S    
C6    C7    A    
C4    O8    A    
C4    C43   S    
C25   C27   A    
C26   C28   A    
C20   N1    A    
Cu1   O8    S    
C35   C40   S    
C11   C13   A    
C36   H8    S    
C23   S1    S    
C2    C3    A    
Cu1   O1    S    
C37   C41   S    
O14   S1    D    
C24   C30   A    
C37   H12   S    
C10   C11   A    
C16   O11   A    
C6    H18   S    
C13   H26   S    
C17   H24   S    
C21   C24   A    
C14   C15   A    
Cu1   N1    S    
C7    N3    S    
