data_mof_unit_9968.cif
_audit_creation_date              2012-12-10T20:36:41-0500
_audit_creation_method            fapswitch 2.2
_symmetry_space_group_name_H-M    P1
_symmetry_Int_Tables_number       1
_space_group_crystal_system       triclinic
_cell_length_a                    10.50894
_cell_length_b                    10.673977
_cell_length_c                    9.871544
_cell_angle_alpha                 90.083027
_cell_angle_beta                  90.674968
_cell_angle_gamma                 90.069174
_cell_volume                      1107.2338214

loop_
_atom_site_label
_atom_site_type_symbol
_atom_type_description
_atom_site_fract_x
_atom_site_fract_y
_atom_site_fract_z
_atom_type_partial_charge
Br1   Br    Br    0.891768 0.247557 0.348859 -0.379605
Br2   Br    Br    0.254142 0.227112 0.152837 -0.405425
C1    C     C_R   0.504530 0.259993 0.499898 0.934296
C2    C     C_R   0.513244 0.936456 0.623323 0.135051
C3    C     C_3   0.412826 0.929835 0.729127 -0.425603
C4    C     C_R   0.257414 0.499734 0.499236 0.918685
C5    C     C_3   0.413161 0.071877 0.728569 -0.415209
C6    C     C_R   0.434133 0.410534 0.070223 0.150347
C7    C     C_R   0.574613 0.580731 0.072925 0.655365
C8    C     C_R   0.574401 0.580813 0.928976 -0.174051
C9    C     C_R   0.434222 0.410455 0.927692 0.135218
C10   C     C_3   0.294438 0.387191 0.919595 -0.499121
C11   C     C_3   0.294202 0.388455 0.073544 0.097669
C12   C     C_3   0.956733 0.601784 0.435839 -0.261377
C13   C     C_R   0.503818 0.739944 0.500206 0.912145
C14   C     C_R   0.742587 0.499708 0.500890 0.927645
C15   C     C_3   0.044186 0.395975 0.565275 -0.293564
C16   C     C_3   0.957423 0.396243 0.438262 0.265113
C17   C     C_3   0.877413 0.499000 0.502461 -0.176223
C18   C     C_3   0.962936 0.500078 0.628105 0.692375
C19   C     C_3   0.043879 0.603266 0.563375 -0.252410
C20   C     C_3   0.038429 0.498088 0.370411 -0.091415
C21   C     C_3   0.122642 0.499243 0.498169 -0.130124
C22   C     C_R   0.513595 0.064117 0.622772 0.077919
C23   C     C_R   0.524767 0.128500 0.500933 -0.256049
C24   C     C_R   0.559865 0.063763 0.382804 0.682958
C25   C     C_R   0.559124 0.934169 0.383699 -0.267901
C26   C     C_R   0.523785 0.871229 0.501941 -0.214329
F1    F     F_    0.648265 0.664216 0.141494 -0.645725
F2    F     F_    0.920621 0.501299 0.760228 -0.633201
F3    F     F_    0.585700 0.123976 0.265152 -0.598208
H1    H     H_    0.449516 0.889164 0.825555 0.221166
H2    H     H_    0.916822 0.685184 0.383443 0.209527
H3    H     H_    0.071388 0.496968 0.264235 0.182062
H4    H     H_    0.578103 0.884187 0.290526 0.239266
H5    H     H_    0.322241 0.888334 0.690530 0.198737
H6    H     H_    0.322758 0.113193 0.689646 0.196248
H7    H     H_    0.449962 0.113319 0.824739 0.238242
H8    H     H_    0.632480 0.647723 0.875350 0.194415
H9    H     H_    0.241220 0.467045 0.874222 0.215152
H10   H     H_    0.271915 0.294488 0.873877 0.225957
H11   H     H_    0.241501 0.468973 0.116612 0.129004
H12   H     H_    0.083924 0.312728 0.618128 0.173992
H13   H     H_    0.083694 0.687231 0.615222 0.167707
N1    N     N_R   0.499140 0.499140 0.142800 -0.185407
N2    N     N_R   0.499140 0.499180 0.857150 -0.139550
O1    O     O_R   0.500020 0.316790 0.614690 -0.622752
O2    O     O_R   0.500000 0.316760 0.385350 -0.532283
O3    O     O_R   0.313960 0.499990 0.614650 -0.632161
O4    O     O_R   0.313940 0.499950 0.385310 -0.631581
O5    O     O_R   0.500000 0.683240 0.614650 -0.631658
O6    O     O_R   0.499980 0.683210 0.385310 -0.588801
O7    O     O_R   0.686060 0.500050 0.614690 -0.582553
O8    O     O_R   0.686040 0.500010 0.385350 -0.556039
Zn1   Zn    Zn3+2 0.500010 0.500020 0.653130 0.982313
Zn2   Zn    Zn3+2 0.499990 0.499980 0.346870 1.063750

loop_
_geom_bond_atom_site_label_1
_geom_bond_atom_site_label_2
_ccdc_geom_bond_type
N2    Zn1   S    
C10   H9    S    
C9    C10   S    
C15   H12   S    
C22   C23   A    
C7    N1    A    
C6    C11   S    
C13   O5    A    
C19   H13   S    
C3    C5    S    
C7    C8    A    
C1    O2    A    
C17   C18   S    
C7    F1    S    
C3    H1    S    
O3    Zn1   S    
C12   C20   S    
C12   H2    S    
C19   C21   S    
C15   C16   S    
Br1   C16   S    
C24   F3    S    
C14   O8    A    
C18   F2    S    
C13   O6    A    
C10   C11   S    
C24   C25   A    
C15   C21   S    
C6    C9    A    
C20   H3    S    
C4    C21   S    
C12   C19   S    
C1    O1    A    
C11   H11   S    
C2    C26   A    
C5    H7    S    
O5    Zn1   S    
O7    Zn1   S    
C4    O3    A    
C5    H6    S    
C2    C22   A    
O8    Zn2   S    
C13   C26   S    
C5    C22   S    
C3    H5    S    
C8    N2    A    
C1    C23   S    
C15   C18   S    
C18   C19   S    
C10   H10   S    
O1    Zn1   S    
C16   C17   S    
C25   C26   A    
O2    Zn2   S    
Br2   C11   S    
C6    N1    A    
C8    H8    S    
C9    N2    A    
C4    O4    A    
C25   H4    S    
C23   C24   A    
C16   C20   S    
C12   C17   S    
C20   C21   S    
O4    Zn2   S    
O6    Zn2   S    
N1    Zn2   S    
C2    C3    S    
C14   O7    A    
C14   C17   S    
