data_mof_unit_52608.cif
_audit_creation_date              2012-12-10T16:54:00-0500
_audit_creation_method            fapswitch 2.2
_symmetry_space_group_name_H-M    P1
_symmetry_Int_Tables_number       1
_space_group_crystal_system       triclinic
_cell_length_a                    7.865668
_cell_length_b                    8.552281
_cell_length_c                    10.609146
_cell_angle_alpha                 92.795923
_cell_angle_beta                  84.752483
_cell_angle_gamma                 93.468907
_cell_volume                      708.706044412

loop_
_atom_site_label
_atom_site_type_symbol
_atom_type_description
_atom_site_fract_x
_atom_site_fract_y
_atom_site_fract_z
_atom_type_partial_charge
C1    C     C_R   0.545176 0.794265 0.497450 0.925364
C2    C     C_3   0.318797 0.538469 0.942219 -0.401948
C3    C     C_3   0.318534 0.539298 0.085248 -0.381576
C4    C     C_3   0.548387 0.341721 0.918193 -0.419025
C5    C     C_3   0.630048 0.632898 0.924217 -0.401334
C6    C     C_3   0.499654 0.503948 0.878764 0.200019
C7    C     C_3   0.498729 0.503803 0.121698 0.166811
C8    C     C_3   0.547073 0.341383 0.062850 -0.383002
C9    C     C_3   0.630016 0.632428 0.068930 -0.411030
C10   C     C_2   0.568783 0.957821 0.497461 -0.391665
C11   C     C_2   0.430930 0.042163 0.504994 -0.364251
C12   C     C_R   0.500401 0.502425 0.742023 0.794227
C13   C     C_R   0.454805 0.205734 0.503494 0.987436
C14   C     C_R   0.499728 0.501978 0.258143 0.842143
H1    H     H_    0.221903 0.447444 0.911486 0.188906
H2    H     H_    0.220437 0.449708 0.122028 0.225915
H3    H     H_    0.456187 0.248130 0.884963 0.162023
H4    H     H_    0.453541 0.248203 0.100246 0.183209
H5    H     H_    0.761048 0.612040 0.879943 0.180973
H6    H     H_    0.596169 0.749984 0.895971 0.158188
H7    H     H_    0.597144 0.749579 0.111428 0.159890
H8    H     H_    0.874213 0.099793 0.281549 0.346994
H9    H     H_    0.760889 0.610553 0.093513 0.190854
H10   H     H_    0.677856 0.314707 0.874142 0.188314
H11   H     H_    0.675696 0.313219 0.088262 0.204758
H12   H     H_    0.699168 0.008168 0.491618 0.232638
H13   H     H_    0.300378 0.991552 0.511540 0.214100
H14   H     H_    0.993057 0.636910 0.580036 0.141049
H15   H     H_    0.280464 0.654292 0.914252 0.175358
H16   H     H_    0.281440 0.655821 0.126793 0.174485
N1    N     N_2   0.950330 0.457950 0.465890 0.114785
N2    N     N_2   0.049670 0.542050 0.534110 -0.140145
O1    O     O_R   0.389250 0.738570 0.508370 -0.625363
O2    O     O_2   0.006659 0.163189 0.505179 -0.341632
O3    O     O_3   0.845251 0.207998 0.309273 -0.551492
O4    O     O_R   0.678390 0.711620 0.486510 -0.646710
O5    O     O_R   0.355430 0.513500 0.696140 -0.640217
O6    O     O_R   0.644580 0.486550 0.674270 -0.645614
O7    O     O_R   0.321610 0.288380 0.513490 -0.531484
O8    O     O_R   0.610750 0.261430 0.491630 -0.555994
O9    O     O_R   0.355420 0.513450 0.325730 -0.585184
O10   O     O_R   0.644570 0.486500 0.303860 -0.597161
O11   O     O_2   0.162804 0.275832 0.316026 -0.326598
S1    S     S_3+6 0.000010 0.274641 0.400711 0.123417
Zn1   Zn    Zn3+2 0.306940 0.517990 0.514600 1.023139
Zn2   Zn    Zn3+2 0.693060 0.482010 0.485400 1.036430

loop_
_geom_bond_atom_site_label_1
_geom_bond_atom_site_label_2
_ccdc_geom_bond_type
C3    H16   S    
O11   S1    D    
O4    Zn2   S    
O7    Zn1   S    
O3    S1    S    
C11   H13   S    
O1    Zn1   S    
N2    Zn1   S    
N1    N2    D    
C14   O10   A    
C4    C8    S    
C10   H12   S    
H8    O3    S    
C2    C3    S    
C1    O1    A    
C7    C8    S    
C5    H6    S    
O8    Zn2   S    
C2    H1    S    
C11   C13   S    
C9    H7    S    
C5    C9    S    
C2    C6    S    
O10   Zn2   S    
C2    H15   S    
C5    H5    S    
C4    H3    S    
C6    C12   S    
C3    C7    S    
C14   O9    A    
C12   O6    A    
C5    C6    S    
C4    H10   S    
O6    Zn2   S    
C13   O7    A    
N1    S1    S    
C1    C10   S    
C8    H11   S    
H14   N2    S    
O2    S1    D    
C4    C6    S    
C10   C11   D    
C12   O5    A    
C7    C9    S    
O9    Zn1   S    
C9    H9    S    
C13   O8    A    
O5    Zn1   S    
C7    C14   S    
C8    H4    S    
C3    H2    S    
C1    O4    A    
N1    Zn2   S    
