data_mof_unit_11268.cif
_audit_creation_date              2012-12-10T17:15:55-0500
_audit_creation_method            fapswitch 2.2
_symmetry_space_group_name_H-M    P1
_symmetry_Int_Tables_number       1
_space_group_crystal_system       triclinic
_cell_length_a                    10.237691
_cell_length_b                    10.642676
_cell_length_c                    10.548003
_cell_angle_alpha                 91.045423
_cell_angle_beta                  94.823252
_cell_angle_gamma                 80.486806
_cell_volume                      1129.44256807

loop_
_atom_site_label
_atom_site_type_symbol
_atom_type_description
_atom_site_fract_x
_atom_site_fract_y
_atom_site_fract_z
_atom_type_partial_charge
C1    C     C_R   0.445538 0.502894 0.265756 1.005061
C2    C     C_2   0.494885 0.405395 0.929139 0.291547
C3    C     C_2   0.077943 0.472683 0.507509 0.432138
C4    C     C_R   0.503372 0.259939 0.506339 0.936305
C5    C     C_2   0.931310 0.487875 0.530627 0.490118
C6    C     C_R   0.554476 0.487448 0.734069 0.930450
C7    C     C_R   0.498864 0.739117 0.500219 0.843990
C8    C     C_R   0.613858 0.102694 0.733209 -0.055196
C9    C     C_R   0.611075 0.042531 0.849949 -0.301592
C10   C     C_R   0.566404 0.925267 0.854185 0.525191
C11   C     C_R   0.530640 0.866714 0.740293 -0.157023
C12   C     C_R   0.550774 0.055178 0.620731 0.055460
C13   C     C_R   0.524968 0.930268 0.623053 -0.009112
C14   C     C_2   0.431336 0.130946 0.268130 0.439986
C15   C     C_2   0.874009 0.421892 0.321337 0.539911
C16   C     C_2   0.714492 0.187041 0.730433 0.445039
C17   C     C_R   0.510347 0.125387 0.506326 -0.070655
C18   C     C_R   0.472117 0.065278 0.391595 -0.010278
C19   C     C_R   0.474142 0.935943 0.392449 -0.276648
C20   C     C_R   0.497059 0.871104 0.506619 -0.021644
C21   C     C_2   0.419467 0.482297 0.130243 -0.309291
C22   C     C_2   0.509036 0.403216 0.067449 0.396851
C23   C     C_2   0.580508 0.461836 0.869061 -0.403992
H1    H     H_    0.330646 0.535195 0.080355 0.118312
H2    H     H_    0.173770 0.708757 0.624666 0.380154
H3    H     H_    0.734029 0.246419 0.811952 0.050665
H4    H     H_    0.594829 0.914962 0.038294 0.328328
H5    H     H_    0.342414 0.318250 0.924973 0.342672
H6    H     H_    0.670245 0.278206 0.067278 0.313475
H7    H     H_    0.654471 0.081043 0.936353 0.123843
H8    H     H_    0.505103 0.772252 0.744597 0.144187
H9    H     H_    0.451674 0.885837 0.304695 0.139231
H10   H     H_    0.666563 0.492114 0.920561 0.171538
H11   H     H_    0.444307 0.078114 0.179792 0.063736
H12   H     H_    0.967737 0.532879 0.707313 0.353109
H13   H     H_    0.188711 0.389965 0.383711 0.388122
H14   H     H_    0.940451 0.335880 0.298038 0.087546
N1    N     N_2   0.157290 0.551390 0.551110 0.016934
N2    N     N_2   0.842740 0.448550 0.448960 -0.160257
O1    O     O_R   0.568950 0.489660 0.307530 -0.525360
O2    O     O_3   0.889209 0.536797 0.644999 -0.695825
O3    O     O_3   0.129086 0.364305 0.443683 -0.796898
O4    O     O_2   0.823324 0.494549 0.236209 -0.542212
O5    O     O_3   0.099625 0.661965 0.600063 -0.693267
O6    O     O_2   0.788264 0.179076 0.644538 -0.521552
O7    O     O_3   0.566130 0.861355 0.966750 -0.765037
O8    O     O_3   0.391488 0.356914 0.862883 -0.729733
O9    O     O_3   0.616830 0.327623 0.131142 -0.722809
O10   O     O_R   0.348880 0.522640 0.340350 -0.642186
O11   O     O_R   0.610060 0.300270 0.483590 -0.579991
O12   O     O_R   0.389990 0.333260 0.516410 -0.562573
O13   O     O_R   0.651120 0.477360 0.659650 -0.565547
O14   O     O_R   0.431050 0.510340 0.692470 -0.554927
O15   O     O_R   0.610010 0.666740 0.483590 -0.572509
O16   O     O_R   0.389940 0.699730 0.516410 -0.641873
O17   O     O_2   0.376481 0.241498 0.262865 -0.592148
Zn1   Zn    Zn3+2 0.646940 0.477980 0.478090 1.095952
Zn2   Zn    Zn3+2 0.353060 0.522020 0.521910 1.030283

loop_
_geom_bond_atom_site_label_1
_geom_bond_atom_site_label_2
_ccdc_geom_bond_type
C12   C17   A    
C14   H11   S    
C14   O17   D    
O14   Zn2   S    
C3    O3    S    
N1    O5    S    
C2    O8    S    
C9    C10   A    
C14   C18   S    
H13   O3    S    
C19   C20   A    
C1    O1    A    
C7    O16   A    
H6    O9    S    
C8    C12   A    
C17   C18   A    
C15   O4    D    
C8    C16   S    
O12   Zn2   S    
N1    Zn2   S    
C2    C22   S    
C1    C21   S    
C11   C13   A    
C15   N2    S    
C9    H7    S    
C19   H9    S    
H2    O5    S    
C22   O9    S    
C7    C20   S    
C5    N2    D    
C16   H3    S    
H12   O2    S    
O16   Zn2   S    
C10   C11   A    
C6    C23   S    
C6    O14   A    
C11   H8    S    
N2    Zn1   S    
C10   O7    S    
C12   C13   A    
H4    O7    S    
C23   H10   S    
C18   C19   A    
O13   Zn1   S    
C21   H1    S    
C2    C23   D    
C5    O2    S    
C15   H14   S    
C16   O6    D    
O1    Zn1   S    
C4    O12   A    
C7    O15   A    
C6    O13   A    
C21   C22   D    
O11   Zn1   S    
C1    O10   A    
C13   C20   A    
H5    O8    S    
O10   Zn2   S    
C3    N1    D    
C4    O11   A    
C8    C9    A    
C3    C5    S    
O15   Zn1   S    
C4    C17   S    
