data_mof_unit_16078.cif
_audit_creation_date              2012-12-10T16:51:12-0500
_audit_creation_method            fapswitch 2.2
_symmetry_space_group_name_H-M    P1
_symmetry_Int_Tables_number       1
_space_group_crystal_system       triclinic
_cell_length_a                    27.802881
_cell_length_b                    8.722769
_cell_length_c                    7.580604
_cell_angle_alpha                 103.831701
_cell_angle_beta                  94.380893
_cell_angle_gamma                 95.520038
_cell_volume                      1767.42594949

loop_
_atom_site_label
_atom_site_type_symbol
_atom_type_description
_atom_site_fract_x
_atom_site_fract_y
_atom_site_fract_z
_atom_type_partial_charge
C1    C     C_R   0.498384 0.199701 0.452584 0.868664
C2    C     C_R   0.501616 0.800299 0.547416 0.868656
C3    C     C_R   0.101649 0.494141 0.492408 -0.041802
C4    C     C_R   0.898350 0.505808 0.507570 -0.041808
C5    C     C_R   0.123781 0.364163 0.527087 -0.032070
C6    C     C_R   0.876220 0.635814 0.472962 -0.032062
C7    C     C_R   0.095320 0.237350 0.564315 -0.133695
C8    C     C_R   0.904684 0.762659 0.435814 -0.133681
C9    C     C_R   0.130723 0.621548 0.454742 -0.031889
C10   C     C_R   0.869272 0.378373 0.545163 -0.031880
C11   C     C_R   0.354631 0.499486 0.503317 -0.174707
C12   C     C_R   0.645368 0.500501 0.496678 -0.174693
C13   C     C_R   0.970965 0.370411 0.538955 0.044836
C14   C     C_R   0.029032 0.629525 0.460995 0.044825
C15   C     C_R   0.978059 0.632641 0.465240 0.045990
C16   C     C_R   0.021940 0.367321 0.534775 0.045984
C17   C     C_R   0.949361 0.502986 0.504008 0.074174
C18   C     C_R   0.050637 0.496963 0.495973 0.074181
C19   C     C_R   0.940501 0.245020 0.577162 -0.208648
C20   C     C_R   0.059492 0.754872 0.422676 -0.208668
C21   C     C_R   0.890798 0.249216 0.579926 -0.125930
C22   C     C_R   0.109194 0.750670 0.419897 -0.125947
C23   C     C_R   0.407720 0.500999 0.501795 0.849019
C24   C     C_R   0.592280 0.498999 0.498205 0.849026
C25   C     C_R   0.045529 0.238503 0.568143 -0.205621
C26   C     C_R   0.954475 0.761502 0.431978 -0.205593
C27   C     C_2   0.497578 0.030783 0.427324 -0.337421
C28   C     C_2   0.502421 0.969217 0.572676 -0.337435
C29   C     C_R   0.174230 0.364549 0.524719 0.618409
C30   C     C_R   0.825771 0.635431 0.475331 0.618447
C31   C     C_R   0.181015 0.617107 0.453535 0.597591
C32   C     C_R   0.818980 0.382817 0.546374 0.597550
C33   C     C_R   0.282596 0.568631 0.652539 -0.166738
C34   C     C_R   0.717400 0.431309 0.347461 -0.166753
C35   C     C_R   0.333045 0.574620 0.659383 0.343173
C36   C     C_R   0.666951 0.425334 0.340621 0.343182
C37   C     C_R   0.324599 0.421983 0.342562 -0.288536
C38   C     C_R   0.675402 0.578024 0.657418 -0.288564
C39   C     C_R   0.274230 0.417470 0.336525 0.448872
C40   C     C_R   0.725771 0.582525 0.663453 0.448883
C41   C     C_R   0.253170 0.490607 0.492397 0.204527
C42   C     C_R   0.746828 0.509353 0.507589 0.204529
Cu1   Cu    Cu3+1 0.505380 0.517380 0.684380 0.966901
Cu2   Cu    Cu3+1 0.494620 0.482620 0.315620 0.966899
H1    H     H_    0.340201 0.364144 0.220992 0.199152
H2    H     H_    0.659801 0.635890 0.778976 0.199137
H3    H     H_    0.111466 0.136003 0.591393 0.186796
H4    H     H_    0.888541 0.864036 0.408808 0.186743
H5    H     H_    0.733991 0.373042 0.228497 0.204753
H6    H     H_    0.266004 0.626875 0.771512 0.204763
H7    H     H_    0.869223 0.149870 0.609507 0.201772
H8    H     H_    0.130766 0.849984 0.390235 0.201773
H9    H     H_    0.953604 0.140684 0.605988 0.138022
H10   H     H_    0.046384 0.859163 0.393740 0.138077
H11   H     H_    0.026822 0.135566 0.598325 0.133714
H12   H     H_    0.973187 0.864483 0.401904 0.133667
H13   H     H_    0.492928 0.956837 0.288333 0.184735
H14   H     H_    0.507072 0.043163 0.711667 0.184741
N1    N     N_R   0.201591 0.489989 0.488528 -0.448799
N2    N     N_R   0.798407 0.509965 0.511453 -0.448800
N3    N     N_2   0.486510 0.456430 0.038510 -0.090252
N4    N     N_2   0.513490 0.543570 0.961490 -0.090250
O1    O     O_R   0.503500 0.286120 0.619780 -0.596000
O2    O     O_R   0.496500 0.713880 0.380220 -0.595998
O3    O     O_R   0.494410 0.256780 0.308360 -0.589774
O4    O     O_R   0.505590 0.743220 0.691640 -0.589773
O5    O     O_R   0.434810 0.514700 0.655690 -0.574572
O6    O     O_R   0.565190 0.485300 0.344310 -0.574578
O7    O     O_R   0.425720 0.485350 0.344280 -0.596155
O8    O     O_R   0.574280 0.514650 0.655720 -0.596157
O9    O     O_2   0.195851 0.241154 0.559038 -0.480730
O10   O     O_2   0.804154 0.758856 0.441083 -0.480733
O11   O     O_2   0.790783 0.261078 0.581744 -0.486574
O12   O     O_2   0.209209 0.738821 0.418104 -0.486584
C43   C     C_3   0.441120 0.369001 0.940161 -0.050685
C44   C     C_3   0.426379 0.213497 0.993639 -0.439899
C45   C     C_3   0.381601 0.120441 0.871402 -0.796771
H15   H     H_    0.351735 0.196517 0.871949 0.273404
H16   H     H_    0.390582 0.076656 0.729071 0.259023
H17   H     H_    0.368679 0.017242 0.923700 0.312063
H18   H     H_    0.456653 0.138381 0.979023 0.243392
H19   H     H_    0.416666 0.235868 0.135052 0.259274
H20   H     H_    0.411628 0.446007 0.963772 0.214939
H21   H     H_    0.444146 0.327154 0.796037 0.209824
C46   C     C_3   0.558882 0.630989 0.059837 -0.050675
C47   C     C_3   0.573629 0.786489 0.006359 -0.439915
C48   C     C_3   0.618421 0.879495 0.128550 -0.796735
H22   H     H_    0.609456 0.923261 0.270906 0.259035
H23   H     H_    0.648281 0.803388 0.127927 0.273395
H24   H     H_    0.631342 0.982702 0.076266 0.312063
H25   H     H_    0.583329 0.764121 0.864932 0.259292
H26   H     H_    0.543363 0.861638 0.021024 0.243375
H27   H     H_    0.555855 0.672845 0.203961 0.209812
H28   H     H_    0.588371 0.553971 0.036233 0.214936
Cl1   Cl    Cl    0.238161 0.321441 0.131811 -0.544489
Cl2   Cl    Cl    0.761843 0.678582 0.868149 -0.544498
Cl3   Cl    Cl    0.633023 0.313757 0.137156 -0.641229
Cl4   Cl    Cl    0.366969 0.686177 0.862870 -0.641224

loop_
_geom_bond_atom_site_label_1
_geom_bond_atom_site_label_2
_ccdc_geom_bond_type
C48   H22   S    
C8    C26   A    
C14   C18   A    
C34   C42   A    
Cu1   Cu2   S    
Cu1   O1    S    
C39   C41   A    
C45   H15   S    
Cu2   O2    S    
C19   C21   A    
C47   H25   S    
C43   H21   S    
C23   O5    A    
C3    C18   A    
C31   N1    A    
C11   C37   A    
C23   O7    A    
C46   H27   S    
C29   N1    A    
C30   N2    A    
C1    O3    A    
C36   Cl3   S    
C12   C36   A    
C35   Cl4   S    
C19   H9    S    
C40   C42   A    
Cu2   O3    S    
C40   Cl2   S    
C1    O1    A    
C2    O2    A    
C5    C29   A    
C45   H16   S    
C10   C21   A    
N4    C46   S    
C13   C19   A    
C24   O8    A    
C14   C20   A    
C44   C45   S    
C41   N1    S    
C20   H10   S    
C27   H13   S    
C42   N2    S    
C32   O11   S    
C5    C7    A    
C9    C31   A    
C47   C48   S    
C15   C26   A    
C6    C8    A    
C3    C5    A    
C33   H6    S    
C46   C47   S    
N3    C43   S    
C7    H3    S    
C43   C44   S    
C8    H4    S    
C3    C9    A    
C46   H28   S    
Cu2   O7    S    
C16   C18   A    
C39   Cl1   S    
C4    C17   A    
C4    C6    A    
C6    C30   A    
C20   C22   A    
Cu1   O8    S    
C48   H23   S    
Cu2   O6    S    
C32   N2    A    
C37   H1    S    
C21   H7    S    
C22   H8    S    
C45   H17   S    
C16   C25   A    
C15   C17   A    
C34   H5    S    
C25   H11   S    
C2    O4    A    
C26   H12   S    
C44   H18   S    
C30   O10   S    
C28   H14   S    
Cu2   N3    S    
C12   C24   S    
C7    C25   A    
C13   C17   A    
C33   C41   A    
C11   C35   A    
C13   C16   A    
C37   C39   A    
C47   H26   S    
C38   C40   A    
C43   H20   S    
Cu1   O4    S    
C44   H19   S    
C11   C23   S    
C33   C35   A    
C34   C36   A    
C12   C38   A    
N3    N4    D    
C31   O12   S    
C38   H2    S    
C24   O6    A    
C10   C32   A    
Cu1   O5    S    
C9    C22   A    
C48   H24   S    
C27   C28   D    
C1    C27   S    
C14   C15   A    
C2    C28   S    
C4    C10   A    
Cu1   N4    S    
C29   O9    S    
