data_mof_unit_46852.cif
_audit_creation_date              2012-12-11T15:23:45-0500
_audit_creation_method            fapswitch 2.2
_symmetry_space_group_name_H-M    P1
_symmetry_Int_Tables_number       1
_space_group_crystal_system       triclinic
_cell_length_a                    17.297452
_cell_length_b                    24.231246
_cell_length_c                    15.005443
_cell_angle_alpha                 90.182663
_cell_angle_beta                  125.769578
_cell_angle_gamma                 90.019582
_cell_volume                      5102.98317522

loop_
_atom_site_label
_atom_site_type_symbol
_atom_type_description
_atom_site_fract_x
_atom_site_fract_y
_atom_site_fract_z
_atom_type_partial_charge
C1    C     C_R   0.351645 0.347376 0.909724 -0.135943
C2    C     C_R   0.689407 0.375219 0.091601 -0.126792
C3    C     C_R   0.851645 0.847376 0.909724 -0.135944
C4    C     C_R   0.189407 0.875219 0.091601 -0.126792
C5    C     C_R   0.380966 0.683640 0.999190 0.047280
C6    C     C_R   0.690391 0.635833 0.002515 0.039982
C7    C     C_R   0.880964 0.183639 0.999190 0.047274
C8    C     C_R   0.190391 0.135833 0.002516 0.039981
C9    C     C_R   0.450733 0.500470 0.274774 0.084030
C10   C     C_R   0.435712 0.500321 0.635101 0.095840
C11   C     C_R   0.950738 0.000467 0.274774 0.084021
C12   C     C_R   0.935733 0.000319 0.635117 0.095832
C13   C     C_R   0.173172 0.498196 0.699933 0.178012
C14   C     C_R   0.795531 0.499765 0.371249 0.177329
C15   C     C_R   0.673172 0.998196 0.699934 0.178016
C16   C     C_R   0.295531 0.999764 0.371249 0.177331
C17   C     C_2   0.913753 0.462023 0.560872 0.322580
C18   C     C_2   0.016053 0.469965 0.650856 0.299307
C19   C     C_2   0.413754 0.962023 0.560872 0.322583
C20   C     C_2   0.516053 0.969966 0.650857 0.299307
C21   C     C_2   0.868928 0.504188 0.489893 -0.292815
C22   C     C_2   0.070493 0.496442 0.626722 -0.307546
C23   C     C_2   0.368928 0.004188 0.489893 -0.292824
C24   C     C_2   0.570493 0.996442 0.626722 -0.307547
C25   C     C_R   0.290345 0.768123 0.900764 -0.171075
C26   C     C_R   0.844147 0.685756 0.102367 -0.168896
C27   C     C_R   0.790343 0.268123 0.900764 -0.171075
C28   C     C_R   0.344147 0.185757 0.102369 -0.168896
C29   C     C_R   0.743021 0.314064 0.901161 -0.167664
C30   C     C_R   0.390684 0.232058 0.101898 -0.169123
C31   C     C_R   0.243021 0.814064 0.901161 -0.167663
C32   C     C_R   0.890685 0.732057 0.101896 -0.169124
C33   C     C_R   0.761707 0.332788 0.000557 0.142423
C34   C     C_R   0.357785 0.257803 0.001987 0.142374
C35   C     C_R   0.261707 0.832787 0.000557 0.142422
C36   C     C_R   0.857785 0.757803 0.001986 0.142373
C37   C     C_R   0.842366 0.313465 0.099940 -0.168363
C38   C     C_R   0.291645 0.230381 0.903011 -0.171686
C39   C     C_R   0.342366 0.813465 0.099940 -0.168360
C40   C     C_R   0.791644 0.730382 0.903010 -0.171685
C41   C     C_R   0.389893 0.767629 0.099649 -0.168595
C42   C     C_R   0.745435 0.683898 0.903612 -0.167431
C43   C     C_R   0.889892 0.267629 0.099649 -0.168598
C44   C     C_R   0.245437 0.183897 0.903614 -0.167435
C45   C     C_R   0.442402 0.651646 0.090272 -0.137711
C46   C     C_R   0.599881 0.623215 0.909982 -0.123553
C47   C     C_R   0.942400 0.151645 0.090273 -0.137693
C48   C     C_R   0.099881 0.123216 0.909983 -0.123555
C49   C     C_R   0.357263 0.741440 0.999884 0.141669
C50   C     C_R   0.764165 0.665523 0.003027 0.143655
C51   C     C_R   0.857261 0.241439 0.999884 0.141671
C52   C     C_R   0.264165 0.165523 0.003028 0.143654
C53   C     C_R   0.469867 0.543578 0.519690 -0.233679
C54   C     C_R   0.473443 0.543796 0.431854 -0.229399
C55   C     C_R   0.970066 0.043517 0.519828 -0.233693
C56   C     C_R   0.973639 0.043734 0.431991 -0.229427
C57   C     C_R   0.424223 0.503891 0.349665 0.055141
C58   C     C_R   0.416890 0.503553 0.528200 0.052240
C59   C     C_R   0.924293 0.003883 0.349718 0.055148
C60   C     C_R   0.916968 0.003545 0.528252 0.052250
C61   C     C_R   0.361193 0.466457 0.349248 0.251147
C62   C     C_R   0.356722 0.466649 0.440474 0.262769
C63   C     C_R   0.861187 0.966491 0.349247 0.251107
C64   C     C_R   0.856721 0.966684 0.440474 0.262736
C65   C     C_R   0.482432 0.453687 0.251525 -0.139538
C66   C     C_R   0.452176 0.453961 0.696784 -0.154635
C67   C     C_R   0.982430 0.953685 0.251519 -0.139514
C68   C     C_R   0.952183 0.953959 0.696789 -0.154629
C69   C     C_R   0.229762 0.545080 0.733955 -0.150700
C70   C     C_R   0.751288 0.545136 0.305607 -0.171838
C71   C     C_R   0.729762 0.045081 0.733955 -0.150698
C72   C     C_R   0.251288 0.045136 0.305607 -0.171846
C73   C     C_R   0.477594 0.546014 0.244034 -0.138865
C74   C     C_R   0.450699 0.545606 0.698226 -0.159698
C75   C     C_R   0.977600 0.046014 0.244041 -0.138894
C76   C     C_R   0.950715 0.045605 0.698232 -0.159726
C77   C     C_R   0.231407 0.452407 0.736886 -0.119944
C78   C     C_R   0.751063 0.453831 0.304997 -0.134760
C79   C     C_R   0.731407 0.952407 0.736886 -0.119951
C80   C     C_R   0.251063 0.953831 0.304997 -0.134760
C81   C     C_R   0.350673 0.651437 0.907879 -0.130573
C82   C     C_R   0.691775 0.623131 0.093859 -0.125551
C83   C     C_R   0.850672 0.151437 0.907879 -0.130576
C84   C     C_R   0.191775 0.123131 0.093860 -0.125549
C85   C     C_R   0.443113 0.347772 0.092232 -0.135410
C86   C     C_R   0.597575 0.375111 0.907869 -0.124204
C87   C     C_R   0.943113 0.847772 0.092231 -0.135406
C88   C     C_R   0.097575 0.875110 0.907869 -0.124204
C89   C     C_R   0.381294 0.315613 0.001080 0.049311
C90   C     C_R   0.687862 0.362309 0.000175 0.041254
C91   C     C_R   0.881294 0.815612 0.001080 0.049307
C92   C     C_R   0.187862 0.862308 0.000175 0.041252
H1    H     H_    0.313420 0.333333 0.825659 0.084537
H2    H     H_    0.747587 0.370405 0.177040 0.092479
H3    H     H_    0.813420 0.833333 0.825659 0.084537
H4    H     H_    0.247587 0.870404 0.177040 0.092479
H5    H     H_    0.899714 0.545291 0.517108 0.109598
H6    H     H_    0.039543 0.514605 0.546488 0.121349
H7    H     H_    0.399714 0.045291 0.517108 0.109599
H8    H     H_    0.539543 0.014602 0.546486 0.121351
H9    H     H_    0.267414 0.750995 0.822271 0.107120
H10   H     H_    0.864785 0.670097 0.180788 0.107123
H11   H     H_    0.767412 0.250995 0.822271 0.107120
H12   H     H_    0.364784 0.170098 0.180790 0.107122
H13   H     H_    0.685522 0.330653 0.822912 0.108898
H14   H     H_    0.445690 0.250085 0.180208 0.106690
H15   H     H_    0.185522 0.830653 0.822911 0.108898
H16   H     H_    0.945691 0.750084 0.180207 0.106691
H17   H     H_    0.863009 0.329489 0.178332 0.108701
H18   H     H_    0.268601 0.247189 0.824476 0.106938
H19   H     H_    0.363009 0.829488 0.178331 0.108700
H20   H     H_    0.768599 0.747189 0.824474 0.106937
H21   H     H_    0.445426 0.750179 0.177984 0.106967
H22   H     H_    0.688565 0.666581 0.825425 0.105926
H23   H     H_    0.945424 0.250178 0.177985 0.106970
H24   H     H_    0.188568 0.166580 0.825426 0.105922
H25   H     H_    0.515630 0.572436 0.585763 0.138309
H26   H     H_    0.522263 0.572779 0.434094 0.138230
H27   H     H_    0.015900 0.072335 0.585955 0.138342
H28   H     H_    0.022528 0.072676 0.434267 0.138267
H29   H     H_    0.489617 0.665498 0.174439 0.084166
H30   H     H_    0.572667 0.628250 0.825023 0.090691
H31   H     H_    0.989613 0.165496 0.174440 0.084165
H32   H     H_    0.072667 0.128253 0.825025 0.090686
H33   H     H_    0.477071 0.411288 0.269461 0.112725
H34   H     H_    0.438419 0.411596 0.668596 0.108462
H35   H     H_    0.977071 0.911287 0.269459 0.112705
H36   H     H_    0.938422 0.911595 0.668597 0.108444
H37   H     H_    0.206739 0.587580 0.716043 0.102207
H38   H     H_    0.759532 0.587214 0.334350 0.095491
H39   H     H_    0.706739 0.087580 0.716044 0.102206
H40   H     H_    0.259532 0.087214 0.334350 0.095490
H41   H     H_    0.466349 0.588879 0.253159 0.101278
H42   H     H_    0.433229 0.587956 0.670826 0.095969
H43   H     H_    0.966379 0.088878 0.253201 0.101300
H44   H     H_    0.933265 0.087957 0.670831 0.095997
H45   H     H_    0.210116 0.409535 0.720413 0.102212
H46   H     H_    0.758700 0.411441 0.329783 0.108213
H47   H     H_    0.710117 0.909535 0.720413 0.102211
H48   H     H_    0.258698 0.911441 0.329783 0.108213
H49   H     H_    0.312759 0.665052 0.823796 0.084299
H50   H     H_    0.750034 0.627849 0.179415 0.093976
H51   H     H_    0.812758 0.165052 0.823797 0.084301
H52   H     H_    0.250034 0.127849 0.179416 0.093977
H53   H     H_    0.489830 0.334442 0.176548 0.085136
H54   H     H_    0.570313 0.369925 0.822886 0.092174
H55   H     H_    0.989830 0.834442 0.176547 0.085135
H56   H     H_    0.070312 0.869924 0.822886 0.092174
N1    N     N_R   0.395440 0.396300 0.944370 -0.037644
N2    N     N_R   0.604560 0.396300 0.055630 -0.039856
N3    N     N_R   0.895440 0.896300 0.944370 -0.037643
N4    N     N_R   0.104560 0.896300 0.055630 -0.039856
N5    N     N_R   0.449890 0.602500 0.055780 -0.037920
N6    N     N_R   0.550110 0.602500 0.944220 -0.040024
N7    N     N_R   0.949890 0.102500 0.055780 -0.037917
N8    N     N_R   0.050110 0.102500 0.944220 -0.040023
N9    N     N_R   0.525090 0.470990 0.205640 -0.040486
N10   N     N_R   0.474910 0.470990 0.794360 -0.038183
N11   N     N_R   0.025090 0.970990 0.205640 -0.040488
N12   N     N_R   0.974910 0.970990 0.794360 -0.038182
N13   N     N_R   0.320240 0.527820 0.794510 -0.043068
N14   N     N_R   0.679760 0.527820 0.205490 -0.039661
N15   N     N_R   0.820240 0.027820 0.794510 -0.043067
N16   N     N_R   0.179760 0.027820 0.205490 -0.039660
N17   N     N_R   0.524580 0.527810 0.205160 -0.039867
N18   N     N_R   0.475420 0.527810 0.794840 -0.036501
N19   N     N_R   0.024580 0.027810 0.205160 -0.039870
N20   N     N_R   0.975420 0.027810 0.794840 -0.036501
N21   N     N_R   0.320750 0.470990 0.794990 -0.047418
N22   N     N_R   0.679250 0.470990 0.205010 -0.045710
N23   N     N_R   0.820750 0.970990 0.794990 -0.047418
N24   N     N_R   0.179250 0.970990 0.205010 -0.045710
N25   N     N_R   0.393580 0.602500 0.942610 -0.037278
N26   N     N_R   0.606420 0.602500 0.057390 -0.039770
N27   N     N_R   0.893580 0.102500 0.942610 -0.037278
N28   N     N_R   0.106420 0.102500 0.057390 -0.039771
N29   N     N_R   0.451750 0.396300 0.057540 -0.037546
N30   N     N_R   0.548250 0.396300 0.942460 -0.039741
N31   N     N_R   0.951750 0.896300 0.057540 -0.037546
N32   N     N_R   0.048250 0.896300 0.942460 -0.039741
Ni1   Ni    Ni4+2 0.435420 0.434250 0.870220 0.208356
Ni2   Ni    Ni4+2 0.564580 0.434250 0.129780 0.208633
Ni3   Ni    Ni4+2 0.935420 0.934250 0.870220 0.208357
Ni4   Ni    Ni4+2 0.064580 0.934250 0.129780 0.208633
Ni5   Ni    Ni4+2 0.563400 0.564580 0.128670 0.210330
Ni6   Ni    Ni4+2 0.436600 0.564580 0.871330 0.211543
Ni7   Ni    Ni4+2 0.063400 0.064580 0.128670 0.210327
Ni8   Ni    Ni4+2 0.936600 0.064580 0.871330 0.211546
C93   C     C_3   0.298956 0.427479 0.253608 -1.010191
H57   H     H_    0.304398 0.434193 0.184486 0.253760
H58   H     H_    0.318861 0.384119 0.281510 0.252805
H59   H     H_    0.222905 0.433923 0.219446 0.259860
C94   C     C_3   0.287458 0.429125 0.441948 -1.036370
H60   H     H_    0.309075 0.385428 0.447564 0.253138
H61   H     H_    0.282319 0.438383 0.510643 0.250541
H62   H     H_    0.214435 0.434846 0.366153 0.261774
C95   C     C_3   0.798866 0.927559 0.253550 -1.010160
H63   H     H_    0.804342 0.934259 0.184450 0.253765
H64   H     H_    0.818662 0.884184 0.281396 0.252818
H65   H     H_    0.722830 0.934070 0.219390 0.259860
C96   C     C_3   0.787383 0.929206 0.441900 -1.036333
H66   H     H_    0.808896 0.885494 0.447421 0.253142
H67   H     H_    0.782288 0.938453 0.510631 0.250548
H68   H     H_    0.714368 0.934990 0.366128 0.261773
C97   C     C_3   0.871211 0.405122 0.541737 -1.007749
H69   H     H_    0.902151 0.383069 0.620271 0.254152
H70   H     H_    0.793353 0.407690 0.501693 0.248552
H71   H     H_    0.886832 0.380233 0.491828 0.238430
C98   C     C_3   0.058013 0.446212 0.763425 -0.958366
H72   H     H_    0.001308 0.436269 0.774183 0.243306
H73   H     H_    0.098417 0.408071 0.775153 0.245306
H74   H     H_    0.106227 0.476804 0.827974 0.252635
C99   C     C_3   0.371215 0.905121 0.541736 -1.007754
H75   H     H_    0.402159 0.883067 0.620270 0.254151
H76   H     H_    0.293357 0.907688 0.501696 0.248553
H77   H     H_    0.386834 0.880234 0.491823 0.238430
C100  C     C_3   0.558011 0.946218 0.763429 -0.958364
H78   H     H_    0.501304 0.936268 0.774180 0.243305
H79   H     H_    0.598432 0.908081 0.775173 0.245308
H80   H     H_    0.606211 0.976816 0.827972 0.252631

loop_
_geom_bond_atom_site_label_1
_geom_bond_atom_site_label_2
_ccdc_geom_bond_type
C2    N2    A    
C95   H65   S    
C23   H7    S    
C55   C56   A    
C25   C31   A    
C6    C82   A    
C83   N27   A    
C65   H33   S    
C27   C29   A    
C96   H67   S    
C96   H66   S    
C7    C83   A    
C19   C20   S    
C16   C72   A    
C70   H38   S    
C82   H50   S    
N16   Ni7   S    
C5    C49   S    
C76   H44   S    
C39   C41   A    
C55   H27   S    
C97   H69   S    
C100  H80   S    
C26   C32   A    
C12   C68   A    
C87   H55   S    
N20   Ni8   S    
C32   C36   A    
C14   C21   S    
N23   Ni3   S    
C10   C58   S    
C85   H53   S    
C53   H25   S    
C87   C91   A    
C26   C50   A    
N26   Ni5   S    
C75   H43   S    
C99   H77   S    
C24   H8    S    
C84   H52   S    
N29   Ni2   S    
C29   C33   A    
C78   N22   A    
C98   H74   S    
C5    C81   A    
N6    Ni6   S    
C3    C91   A    
C20   C100  S    
C79   N23   A    
C57   C61   A    
C2    C90   A    
C28   H12   S    
C43   H23   S    
N27   Ni8   S    
C4    H4    S    
C47   H31   S    
C42   H22   S    
C15   C79   A    
C82   N26   A    
C27   C51   A    
C94   H61   S    
C88   N32   A    
C10   C74   A    
N11   Ni4   S    
N4    Ni4   S    
N15   N23   A    
C68   H36   S    
N12   Ni3   S    
C37   H17   S    
N32   Ni3   S    
C28   C52   A    
N2    N30   A    
N13   N21   A    
C35   C92   S    
C44   C52   A    
C64   C96   S    
N8    Ni8   S    
C48   N8    A    
C8    C84   A    
C55   C60   A    
N22   Ni2   S    
C61   C93   S    
C14   C70   A    
C29   H13   S    
C95   H63   S    
C9    C73   A    
C11   C75   A    
C86   N30   A    
C11   C59   S    
C78   H46   S    
C41   C49   A    
N5    Ni5   S    
C11   C67   A    
C72   H40   S    
C9    C65   A    
C10   C66   A    
C88   H56   S    
C46   N6    A    
C13   C77   A    
N25   Ni6   S    
C30   C34   A    
C68   N12   A    
C88   C92   A    
C36   C40   A    
C18   C98   S    
C74   N18   A    
C73   N17   A    
C79   H47   S    
C86   C90   A    
N9    N17   A    
C22   H6    S    
C85   C89   A    
C19   C23   D    
C34   C38   A    
C95   H64   S    
C45   H29   S    
C100  H78   S    
C80   H48   S    
C5    C45   A    
N1    Ni1   S    
C16   C80   A    
N17   Ni5   S    
C66   H34   S    
N15   Ni8   S    
C19   C99   S    
C81   N25   A    
N4    N32   A    
C93   H59   S    
C35   C39   A    
C8    C48   A    
C38   C44   A    
N13   Ni6   S    
C67   H35   S    
C14   C78   A    
C21   H5    S    
N24   Ni4   S    
N3    N31   A    
C98   H72   S    
N14   N22   A    
C2    H2    S    
N5    N25   A    
C94   H62   S    
N19   Ni7   S    
C81   H49   S    
N1    N29   A    
C17   C18   S    
C72   N16   A    
C6    C50   S    
C4    N4    A    
C1    N1    A    
N21   Ni1   S    
C71   N15   A    
C58   C62   A    
C42   C50   A    
C36   C91   S    
C85   N29   A    
C15   C24   S    
C41   H21   S    
C73   H41   S    
C16   C23   S    
C54   H26   S    
C12   C76   A    
C96   H68   S    
C31   C35   A    
C37   C43   A    
N16   N24   A    
C38   H18   S    
N9    Ni2   S    
C80   N24   A    
C66   N10   A    
N10   N18   A    
N28   Ni7   S    
C33   C37   A    
N31   Ni4   S    
C97   H71   S    
N7    N27   A    
C93   H57   S    
C77   N21   A    
C8    C52   S    
N8    N28   A    
C1    C89   A    
C6    C46   A    
C18   C22   D    
C31   H15   S    
N3    Ni3   S    
C44   H24   S    
C77   H45   S    
C3    N3    A    
N2    Ni2   S    
C48   H32   S    
N14   Ni5   S    
C3    H3    S    
C53   C58   A    
C53   C54   A    
C56   H28   S    
C100  H79   S    
C65   N9    A    
C15   C71   A    
C27   H11   S    
C59   C63   A    
C69   N13   A    
C56   C59   A    
C60   C64   A    
C13   C69   A    
C17   C97   S    
C99   H76   S    
C7    C51   S    
C28   C30   A    
N7    Ni7   S    
C33   C90   S    
C26   H10   S    
C87   N31   A    
C83   H51   S    
C39   H19   S    
C40   H20   S    
C25   H9    S    
C47   N7    A    
C43   C51   A    
C69   H37   S    
C99   H75   S    
C74   H42   S    
C40   C42   A    
C75   N19   A    
C98   H73   S    
N11   N19   A    
C13   C22   S    
C76   N20   A    
C9    C57   S    
N12   N20   A    
C61   C62   A    
N10   Ni1   S    
C25   C49   A    
C34   C89   S    
N30   Ni1   S    
N18   Ni6   S    
C71   H39   S    
C63   C64   A    
C12   C60   S    
C63   C95   S    
N6    N26   A    
C45   N5    A    
C86   H54   S    
C1    H1    S    
C94   H60   S    
C32   H16   S    
C46   H30   S    
C67   N11   A    
C62   C94   S    
C93   H58   S    
C84   N28   A    
C97   H70   S    
C20   C24   D    
C30   H14   S    
C70   N14   A    
C7    C47   A    
C4    C92   A    
C54   C57   A    
C17   C21   D    
