data_mof_unit_5640.cif
_audit_creation_date              2013-03-05T16:11:44-0500
_audit_creation_method            fapswitch 2.2
_symmetry_space_group_name_H-M    P1
_symmetry_Int_Tables_number       1
_space_group_crystal_system       triclinic
_cell_length_a                    10.652976
_cell_length_b                    9.979088
_cell_length_c                    10.508466
_cell_angle_alpha                 90.321739
_cell_angle_beta                  94.025298
_cell_angle_gamma                 90.858682
_cell_volume                      1114.21752638

loop_
_atom_site_label
_atom_site_type_symbol
_atom_site_description
_atom_site_fract_x
_atom_site_fract_y
_atom_site_fract_z
_atom_type_partial_charge
O1    O     O_R   0.316770 0.614620 0.499990 -0.619024
O2    O     O_R   0.683230 0.385380 0.500010 -0.619025
O3    O     O_R   0.683230 0.614620 0.500010 -0.621950
O4    O     O_R   0.316770 0.385380 0.499990 -0.621951
C1    C     C_R   0.872569 0.503305 0.466603 -0.172542
C2    C     C_R   0.127431 0.496694 0.533394 -0.172541
C3    C     C_R   0.261380 0.498956 0.515146 0.899674
C4    C     C_R   0.738620 0.501044 0.484853 0.899673
O5    O     O_R   0.499970 0.614650 0.313950 -0.624322
O6    O     O_R   0.500030 0.385350 0.686050 -0.624323
O7    O     O_R   0.500030 0.614650 0.686050 -0.634100
O8    O     O_R   0.499970 0.385350 0.313950 -0.634100
C5    C     C_R   0.499792 0.499548 0.257770 0.868496
C6    C     C_R   0.500208 0.500452 0.742229 0.868497
Zn1   Zn    Zn3+2 0.500000 0.653120 0.500000 0.916785
Zn2   Zn    Zn3+2 0.500000 0.346880 0.500000 0.916783
N1    N     N_R   0.500000 0.857200 0.500000 -0.116882
N2    N     N_R   0.500000 0.142800 0.500000 -0.116882
C7    C     C_3   0.395236 0.560121 0.035911 -0.236871
C8    C     C_3   0.604765 0.439879 0.964089 -0.236870
C9    C     C_3   0.497783 0.628415 0.959970 -0.189907
C10   C     C_3   0.502218 0.371585 0.040030 -0.189908
C11   C     C_3   0.398467 0.434124 0.951202 0.249216
C12   C     C_3   0.601534 0.565876 0.048799 0.249219
H1    H     H_    0.309825 0.607907 0.069206 0.143110
H2    H     H_    0.690176 0.392093 0.930794 0.143110
H3    H     H_    0.496320 0.733060 0.924772 0.150393
H4    H     H_    0.503680 0.266941 0.075228 0.150392
C13   C     C_3   0.499691 0.501377 0.877164 -0.017813
C14   C     C_3   0.500309 0.498623 0.122836 -0.017810
C15   C     C_R   0.577076 0.073390 0.586752 0.205848
C16   C     C_R   0.422924 0.926610 0.413248 0.205850
C17   C     C_R   0.423586 0.070176 0.412747 0.199021
C18   C     C_R   0.576414 0.929824 0.587253 0.199020
C19   C     C_R   0.059031 0.375076 0.514709 0.146907
C20   C     C_R   0.940969 0.624923 0.485287 0.146905
C21   C     C_R   0.935280 0.380084 0.463897 0.145470
C22   C     C_R   0.064719 0.619915 0.536101 0.145469
C23   C     C_3   0.665591 0.146296 0.683665 -0.831784
H5    H     H_    0.667893 0.254404 0.674703 0.292511
H6    H     H_    0.639686 0.122959 0.781718 0.219484
H7    H     H_    0.764112 0.116700 0.672675 0.199760
C24   C     C_3   0.334407 0.853704 0.316337 -0.831784
H8    H     H_    0.332108 0.745596 0.325296 0.292511
H9    H     H_    0.235887 0.883298 0.327331 0.199760
H10   H     H_    0.360308 0.877044 0.218282 0.219483
C25   C     C_3   0.341790 0.140311 0.310889 -0.837324
H11   H     H_    0.331169 0.246834 0.328229 0.294576
H12   H     H_    0.381111 0.126499 0.216789 0.217858
H13   H     H_    0.244020 0.100671 0.305310 0.199833
C26   C     C_3   0.658210 0.859689 0.689110 -0.837322
H14   H     H_    0.668831 0.753166 0.671770 0.294575
H15   H     H_    0.755980 0.899329 0.694689 0.199832
H16   H     H_    0.618889 0.873500 0.783210 0.217859
C27   C     C_3   0.282869 0.359250 0.892975 -0.937274
H17   H     H_    0.312619 0.270280 0.839589 0.250595
H18   H     H_    0.223533 0.325790 0.969835 0.242822
H19   H     H_    0.227595 0.426253 0.827107 0.236226
C28   C     C_3   0.717130 0.640753 0.107025 -0.937290
H20   H     H_    0.687379 0.729730 0.160397 0.250596
H21   H     H_    0.772399 0.573758 0.172904 0.236228
H22   H     H_    0.776471 0.674199 0.030166 0.242826
C29   C     C_3   0.111345 0.241184 0.558371 -0.842592
H23   H     H_    0.190766 0.253246 0.631641 0.253017
H24   H     H_    0.038524 0.182194 0.605187 0.225004
H25   H     H_    0.141203 0.183028 0.476168 0.245364
C30   C     C_3   0.888655 0.758814 0.441624 -0.842588
H26   H     H_    0.809234 0.746751 0.368353 0.253016
H27   H     H_    0.858796 0.816972 0.523826 0.245364
H28   H     H_    0.961476 0.817804 0.394808 0.225004
C31   C     C_3   0.875125 0.256290 0.399217 -0.837643
H29   H     H_    0.795406 0.282688 0.330579 0.244411
H30   H     H_    0.944124 0.205030 0.341998 0.223461
H31   H     H_    0.842225 0.185355 0.471012 0.250192
C32   C     C_3   0.124873 0.743709 0.600783 -0.837644
H32   H     H_    0.204592 0.717311 0.669421 0.244410
H33   H     H_    0.157772 0.814646 0.528989 0.250192
H34   H     H_    0.055873 0.794966 0.658003 0.223461

loop_
_geom_bond_atom_site_label_1
_geom_bond_atom_site_label_2
_geom_bond_distance
_ccdc_geom_bond_type
C27   H17   1.109608 S    
C29   H24   1.110633 S    
C1    C21   1.409255 A    
C32   H32   1.110720 S    
C20   C30   1.516452 S    
C25   H12   1.109341 S    
C21   C31   1.518036 S    
C18   C26   1.513457 S    
C11   C13   1.523320 S    
C7    C9    1.549486 S    
O7    C6    1.286334 A    
C1    C20   1.411785 A    
C2    C19   1.411787 A    
O5    C5    1.288413 A    
O7    Zn1   1.994526 S    
C8    C12   1.538669 S    
C2    C22   1.409256 A    
O1    Zn1   1.983732 S    
C25   H13   1.106138 S    
O2    Zn2   1.983731 S    
C8    C13   1.532083 S    
C9    H3    1.109750 S    
C29   H25   1.105732 S    
C28   H20   1.109590 S    
C10   H4    1.109750 S    
O4    C3    1.299738 A    
C24   H10   1.110312 S    
C23   H7    1.108158 S    
C22   C32   1.518036 S    
C28   H21   1.110245 S    
C30   H26   1.107982 S    
O8    Zn2   1.994527 S    
C5    C14   1.418327 S    
C23   H6    1.110313 S    
O3    C4    1.299740 A    
O6    C6    1.288414 A    
C23   H5    1.083507 S    
C31   H30   1.110565 S    
C32   H34   1.110564 S    
C9    C13   1.534792 S    
C26   H14   1.086417 S    
C26   H15   1.106138 S    
O4    Zn2   1.995031 S    
C7    C11   1.538668 S    
C24   H8    1.083507 S    
C1    C4    1.452927 S    
C32   H33   1.108509 S    
C25   H11   1.086419 S    
C15   C18   1.432612 A    
C24   H9    1.108158 S    
C8    C10   1.549486 S    
C27   H18   1.109857 S    
C17   C25   1.513459 S    
C27   H19   1.110257 S    
N1    C18   1.377908 A    
C6    C13   1.418328 S    
O3    Zn1   1.995030 S    
Zn1   N1    2.036532 S    
C28   H22   1.109837 S    
C10   C14   1.534793 S    
C19   C21   1.388890 A    
O1    C3    1.304077 A    
O2    C4    1.304076 A    
C31   H31   1.108509 S    
C11   C27   1.520088 S    
C2    C3    1.452928 S    
C26   H16   1.109340 S    
C16   C17   1.432612 A    
C30   H28   1.110635 S    
C20   C22   1.388889 A    
O5    Zn1   1.990295 S    
C31   H29   1.110718 S    
O6    Zn2   1.990293 S    
C8    H2    1.110640 S    
C12   C28   1.520087 S    
C16   C24   1.513908 S    
C15   C23   1.513907 S    
C7    H1    1.110639 S    
N2    C17   1.377909 A    
C12   C14   1.523320 S    
C29   H23   1.107974 S    
O8    C5    1.286334 A    
Zn2   N2    2.036532 S    
C9    C12   1.537779 S    
N1    C16   1.379880 A    
C10   C11   1.537779 S    
C19   C29   1.516451 S    
N2    C15   1.379879 A    
C30   H27   1.105735 S    
C7    C14   1.532083 S    
