data_mof_unit_20264.cif
_audit_creation_date              2012-12-11T14:13:23-0500
_audit_creation_method            fapswitch 2.2
_symmetry_space_group_name_H-M    P1
_symmetry_Int_Tables_number       1
_space_group_crystal_system       triclinic
_cell_length_a                    11.669663
_cell_length_b                    18.541059
_cell_length_c                    9.958205
_cell_angle_alpha                 90.68439
_cell_angle_beta                  110.455292
_cell_angle_gamma                 90.33639
_cell_volume                      2018.51574338

loop_
_atom_site_label
_atom_site_type_symbol
_atom_type_description
_atom_site_fract_x
_atom_site_fract_y
_atom_site_fract_z
_atom_type_partial_charge
C1    C     C_R   0.057207 0.654942 0.134139 0.608127
C2    C     C_2   0.629591 0.061746 0.016967 -0.090704
C3    C     C_2   0.598373 0.428126 0.070780 -0.068165
C4    C     C_2   0.410760 0.579251 0.908936 -0.067523
C5    C     C_2   0.522541 0.948554 0.960245 -0.151880
C6    C     C_2   0.543007 0.022029 0.922734 -0.165881
C7    C     C_2   0.520146 0.467643 0.968997 -0.138220
C8    C     C_2   0.502480 0.542168 0.998895 -0.103624
C9    C     C_2   0.006117 0.920504 0.111530 0.214029
C10   C     C_2   0.993391 0.079160 0.888171 0.218513
C11   C     C_2   0.979859 0.426249 0.887280 0.221659
C12   C     C_R   0.923798 0.355220 0.859671 0.574555
C13   C     C_2   0.971459 0.593100 0.089150 0.191869
C14   C     C_2   0.031167 0.965921 0.021160 -0.083027
C15   C     C_2   0.969425 0.034211 0.980048 -0.091663
C16   C     C_2   0.934375 0.475008 0.956861 -0.111347
C17   C     C_2   0.986287 0.547567 0.989511 -0.057376
C18   C     C_R   0.466576 0.645353 0.436375 0.555793
C19   C     C_R   0.534350 0.352699 0.560609 0.530775
C20   C     C_R   0.531607 0.146444 0.557210 0.529843
C21   C     C_R   0.467610 0.853610 0.442563 0.538539
C22   C     C_R   0.377294 0.646703 0.959743 0.597329
C23   C     C_R   0.926242 0.146170 0.859079 0.560920
C24   C     C_R   0.625328 0.355962 0.034498 0.579882
C25   C     C_R   0.646015 0.137594 0.992705 0.546645
C26   C     C_R   0.376724 0.854816 0.963342 0.558365
C27   C     C_R   0.514738 0.420923 0.489343 0.016677
C28   C     C_R   0.483341 0.569777 0.480066 0.001514
C29   C     C_R   0.488047 0.925257 0.513793 0.006679
C30   C     C_R   0.508143 0.074666 0.486138 0.013074
C31   C     C_R   0.292713 0.400598 0.411430 -0.042690
C32   C     C_R   0.706501 0.587175 0.581126 -0.073820
C33   C     C_R   0.709839 0.914923 0.585710 -0.071795
C34   C     C_R   0.073578 0.853700 0.140840 0.563208
C35   C     C_R   0.287456 0.086504 0.416403 -0.063055
C36   C     C_R   0.176781 0.429609 0.371219 0.232921
C37   C     C_R   0.821297 0.562591 0.590555 0.217665
C38   C     C_R   0.820564 0.942195 0.584178 0.224093
C39   C     C_R   0.175344 0.059823 0.413544 0.220628
C40   C     C_R   0.164439 0.502484 0.342492 -0.038626
C41   C     C_R   0.832942 0.493253 0.543076 -0.011780
C42   C     C_R   0.824202 0.009748 0.526649 -0.004856
C43   C     C_R   0.168285 0.991271 0.464494 -0.000713
C44   C     C_R   0.266328 0.542640 0.342551 0.218057
C45   C     C_R   0.396870 0.447306 0.448468 -0.046204
C46   C     C_R   0.732658 0.445826 0.498379 0.203412
C47   C     C_R   0.720029 0.052799 0.482138 0.220368
C48   C     C_R   0.270439 0.946560 0.507926 0.209811
C49   C     C_R   0.380978 0.521607 0.433248 0.015674
C50   C     C_R   0.616882 0.467862 0.504111 -0.011349
C51   C     C_R   0.610312 0.029428 0.501474 -0.012199
C52   C     C_R   0.384078 0.970233 0.496521 -0.019609
C53   C     C_R   0.602313 0.541765 0.526623 -0.074841
C54   C     C_R   0.602931 0.956776 0.537023 -0.074724
C55   C     C_R   0.393147 0.043621 0.464572 -0.072878
C56   C     C_2   0.409847 0.921576 0.909888 -0.068336
Cl1   Cl    Cl    0.047532 0.374278 0.341755 -0.468311
Cl2   Cl    Cl    0.897847 0.937853 0.194744 -0.622449
Cl3   Cl    Cl    0.859140 0.579311 0.168205 -0.624353
Cl4   Cl    Cl    0.101168 0.444315 0.824315 -0.543367
Cl5   Cl    Cl    0.947807 0.621672 0.645129 -0.515831
Cl6   Cl    Cl    0.951901 0.888738 0.641991 -0.483045
Cl7   Cl    Cl    0.045485 0.114567 0.356001 -0.481324
Cl8   Cl    Cl    0.273433 0.559633 0.172800 -0.594357
Cl9   Cl    Cl    0.754017 0.368115 0.405830 -0.467471
Cl10  Cl    Cl    0.726096 0.126978 0.376292 -0.463398
Cl11  Cl    Cl    0.250545 0.868448 0.597491 -0.511202
Cl12  Cl    Cl    0.099049 0.060443 0.801668 -0.580022
Cr1   Cr    Cr6+3 0.187610 0.750000 0.979860 1.180944
Cr2   Cr    Cr6+3 0.812390 0.250000 0.020140 1.184590
Cr3   Cr    Cr6+3 0.245810 0.750000 0.341640 1.166034
Cr4   Cr    Cr6+3 0.754190 0.250000 0.658360 1.187763
Cr5   Cr    Cr6+3 0.485760 0.750000 0.219910 1.105941
Cr6   Cr    Cr6+3 0.514240 0.250000 0.780090 1.087464
H1    H     H_    0.075175 0.524564 0.306622 0.199090
H2    H     H_    0.595603 0.920033 0.040414 0.197170
H3    H     H_    0.558791 0.564679 0.102623 0.204122
H4    H     H_    0.469411 0.445277 0.863097 0.174584
H5    H     H_    0.690613 0.037501 0.114449 0.203285
H6    H     H_    0.337013 0.953075 0.836247 0.192513
H7    H     H_    0.351177 0.555399 0.808214 0.145780
H8    H     H_    0.652590 0.452599 0.172934 0.180059
H9    H     H_    0.900359 0.048566 0.025565 0.177844
H10   H     H_    0.101468 0.951999 0.977232 0.191528
H11   H     H_    0.051848 0.561374 0.939137 0.245971
H12   H     H_    0.919826 0.476741 0.536831 0.236043
H13   H     H_    0.859660 0.459976 0.992719 0.164244
H14   H     H_    0.907419 0.028238 0.512937 0.231543
H15   H     H_    0.083028 0.972915 0.473066 0.237208
H16   H     H_    0.299679 0.342443 0.411579 0.174710
H17   H     H_    0.698273 0.642758 0.610970 0.161231
H18   H     H_    0.706582 0.860441 0.622604 0.162214
H19   H     H_    0.292476 0.141331 0.382086 0.169715
H20   H     H_    0.480613 0.045670 0.825227 0.172490
O1    O     O_R   0.267710 0.668200 0.902110 -0.437376
O2    O     O_R   0.883280 0.330790 0.732340 -0.440563
O3    O     O_R   0.883280 0.169210 0.732340 -0.442057
O4    O     O_R   0.116720 0.830790 0.267660 -0.442079
O5    O     O_R   0.366710 0.675440 0.427590 -0.481499
O6    O     O_R   0.633290 0.324560 0.572410 -0.450715
O7    O     O_R   0.633290 0.175440 0.572410 -0.449837
O8    O     O_R   0.366710 0.824560 0.427590 -0.460250
O9    O     O_R   0.534870 0.669390 0.371760 -0.486561
O10   O     O_R   0.465130 0.330610 0.628240 -0.524626
O11   O     O_R   0.465130 0.169390 0.628240 -0.518048
O12   O     O_R   0.732290 0.331800 0.097890 -0.417562
O13   O     O_R   0.534870 0.830610 0.371760 -0.501026
O14   O     O_R   0.453080 0.674480 0.075160 -0.486257
O15   O     O_R   0.546920 0.325520 0.924840 -0.497927
O16   O     O_R   0.546920 0.174480 0.924840 -0.472831
O17   O     O_R   0.453080 0.825520 0.075160 -0.512189
O18   O     O_3   0.306390 0.750000 0.180470 -0.284858
O19   O     O_3   0.693610 0.250000 0.819530 -0.343983
O20   O     O_R   0.732290 0.168200 0.097890 -0.400926
O21   O     O_R   0.267710 0.831800 0.902110 -0.433771
O22   O     O_R   0.099480 0.674460 0.038850 -0.479445
O23   O     O_R   0.900520 0.325540 0.961150 -0.495826
O24   O     O_R   0.900520 0.174460 0.961150 -0.520936
O25   O     O_R   0.099480 0.825540 0.038850 -0.516051
O26   O     O_R   0.116720 0.669210 0.267660 -0.455489

loop_
_geom_bond_atom_site_label_1
_geom_bond_atom_site_label_2
_ccdc_geom_bond_type
C44   C49   A    
C30   C51   A    
Cr1   O22   S    
C22   O1    A    
C5    C56   D    
C14   H10   S    
C4    C8    D    
C23   O24   A    
C7    C8    S    
C20   C30   S    
Cr2   O20   S    
C41   H12   S    
C43   H15   S    
Cr3   O26   S    
C17   H11   S    
C38   C42   A    
C48   C52   A    
C3    C7    D    
C10   C15   D    
C5    C6    S    
Cr1   O18   S    
Cr5   O13   S    
C32   H17   S    
C29   C54   A    
Cr2   O23   S    
C33   C54   A    
C9    Cl2   S    
C11   C16   D    
C26   O21   A    
C2    H5    S    
C4    H7    S    
C16   C17   S    
C6    H20   S    
C16   H13   S    
C41   C46   A    
C1    O22   A    
C19   C27   S    
C43   C48   A    
C47   Cl10  S    
C27   C50   A    
C18   O9    A    
C27   C45   A    
C3    C24   S    
C2    C6    D    
Cr6   O15   S    
Cr5   O17   S    
Cr4   O3    S    
C35   H19   S    
Cr2   O19   S    
C39   C43   A    
Cr3   O4    S    
C50   C53   A    
C35   C55   A    
C36   C40   A    
C18   C28   S    
C46   Cl9   S    
C36   Cl1   S    
Cr2   O12   S    
C33   H18   S    
Cr5   O14   S    
C47   C51   A    
C20   O7    A    
Cr6   O19   S    
Cr3   O5    S    
Cr4   O19   S    
Cr1   O25   S    
C44   Cl8   S    
C1    O26   A    
C35   C39   A    
C9    C14   D    
C4    C22   S    
C19   O10   A    
C37   Cl5   S    
C45   C49   A    
C28   C53   A    
C31   H16   S    
Cr3   O18   S    
C3    H8    S    
C32   C37   A    
C21   O13   A    
C25   O16   A    
C7    H4    S    
C21   O8    A    
C23   O3    A    
Cr3   O8    S    
C42   H14   S    
C31   C45   A    
C8    H3    S    
C1    C13   S    
C18   O5    A    
C11   Cl4   S    
C32   C53   A    
Cr5   O18   S    
Cr6   O10   S    
C20   O11   A    
Cr4   O6    S    
C34   O25   A    
Cr1   O21   S    
C31   C36   A    
C24   O15   A    
Cr1   O1    S    
C26   C56   S    
Cr6   O16   S    
C15   H9    S    
C19   O6    A    
C52   C55   A    
C13   Cl3   S    
C10   Cl12  S    
C10   C23   S    
C39   Cl7   S    
C30   C55   A    
C46   C50   A    
C33   C38   A    
C56   H6    S    
C40   H1    S    
C13   C17   D    
C51   C54   A    
C5    H2    S    
C25   O20   A    
Cr6   O11   S    
C9    C34   S    
C21   C29   S    
Cr2   O24   S    
C22   O14   A    
C34   O4    A    
C28   C49   A    
C2    C25   S    
Cr5   O9    S    
C42   C47   A    
C48   Cl11  S    
C37   C41   A    
C12   O23   A    
Cr4   O2    S    
C40   C44   A    
C24   O12   A    
Cr4   O7    S    
C14   C15   S    
C12   O2    A    
C26   O17   A    
C11   C12   S    
C38   Cl6   S    
C29   C52   A    
