data_mof_unit_55633.cif
_audit_creation_date              2012-12-10T20:01:41-0500
_audit_creation_method            fapswitch 2.2
_symmetry_space_group_name_H-M    P1
_symmetry_Int_Tables_number       1
_space_group_crystal_system       triclinic
_cell_length_a                    14.251636
_cell_length_b                    14.660922
_cell_length_c                    16.686712
_cell_angle_alpha                 87.581514
_cell_angle_beta                  94.292645
_cell_angle_gamma                 87.069642
_cell_volume                      3468.52025224

loop_
_atom_site_label
_atom_site_type_symbol
_atom_type_description
_atom_site_fract_x
_atom_site_fract_y
_atom_site_fract_z
_atom_type_partial_charge
C1    C     C_R   0.501674 0.326222 0.498655 0.934863
C2    C     C_R   0.498797 0.672825 0.508156 0.930138
C3    C     C_R   0.585416 0.181191 0.548556 0.316298
C4    C     C_R   0.414552 0.815343 0.553732 0.343010
C5    C     C_R   0.504411 0.226960 0.510190 -0.360997
C6    C     C_R   0.498987 0.766100 0.538474 -0.367003
C7    C     C_R   0.422371 0.179558 0.493295 0.421885
C8    C     C_R   0.585920 0.804807 0.559986 0.430042
C9    C     C_R   0.424038 0.087227 0.519024 -0.343868
C10   C     C_R   0.586773 0.896846 0.574460 -0.307428
C11   C     C_R   0.499064 0.047019 0.570405 -0.072545
C12   C     C_R   0.502962 0.947036 0.585383 -0.085158
C13   C     C_R   0.110672 0.492604 0.571646 0.272100
C14   C     C_R   0.886117 0.572182 0.457658 0.306091
C15   C     C_R   0.209726 0.480785 0.569261 0.394013
C16   C     C_R   0.786781 0.565984 0.454760 0.373623
C17   C     C_R   0.196679 0.518511 0.429699 0.335029
C18   C     C_R   0.804309 0.434909 0.544074 0.371379
C19   C     C_R   0.097571 0.513123 0.427319 0.254157
C20   C     C_R   0.903408 0.430759 0.539453 0.295556
C21   C     C_R   0.052629 0.504318 0.499304 -0.153927
C22   C     C_R   0.946344 0.502511 0.498726 -0.134861
C23   C     C_R   0.512542 0.497238 0.653687 0.842840
C24   C     C_R   0.488383 0.495425 0.346708 0.876564
C25   C     C_R   0.522522 0.482184 0.740467 -0.073817
C26   C     C_R   0.484805 0.470041 0.262958 -0.086719
C27   C     C_R   0.455522 0.433393 0.778109 -0.221123
C28   C     C_R   0.569722 0.452595 0.227833 -0.247668
C29   C     C_R   0.466211 0.413386 0.859872 -0.251914
C30   C     C_R   0.569179 0.425385 0.149877 -0.239759
C31   C     C_R   0.544653 0.443327 0.905832 0.230620
C32   C     C_R   0.483220 0.416782 0.104421 0.256272
C33   C     C_R   0.614789 0.488624 0.867953 0.479133
C34   C     C_R   0.397653 0.427513 0.140218 0.473663
C35   C     C_R   0.602588 0.509135 0.785144 -0.382758
C36   C     C_R   0.399186 0.452538 0.220735 -0.349361
C37   C     C_R   0.577492 0.098503 0.590580 0.392808
C38   C     C_R   0.419029 0.900488 0.588997 0.353181
H1    H     H_    0.637356 0.459119 0.260521 0.157041
H2    H     H_    0.395280 0.409881 0.744273 0.207782
H3    H     H_    0.636143 0.414297 0.124094 0.175342
H4    H     H_    0.411805 0.376603 0.887064 0.185412
H5    H     H_    0.654568 0.547145 0.756077 0.152040
H6    H     H_    0.334408 0.457694 0.250333 0.216947
H7    H     H_    0.368760 0.045579 0.496470 0.193491
H8    H     H_    0.653552 0.928292 0.573079 0.227549
N1    N     N_2   0.551297 0.437172 0.990581 -0.163020
N2    N     N_2   0.479814 0.409268 0.020303 -0.160306
N3    N     N_R   0.252470 0.499980 0.500000 -0.205007
N4    N     N_R   0.747530 0.500020 0.500000 -0.227228
O1    O     O_R   0.579480 0.369070 0.499990 -0.550239
O2    O     O_R   0.420520 0.630930 0.500010 -0.587630
O3    O     O_R   0.420520 0.369060 0.499990 -0.588863
O4    O     O_R   0.579480 0.630940 0.500010 -0.526377
O5    O     O_R   0.588340 0.499180 0.616130 -0.652919
O6    O     O_R   0.411660 0.500820 0.383870 -0.555747
O7    O     O_R   0.429390 0.499170 0.616130 -0.563005
O8    O     O_R   0.570610 0.500830 0.383870 -0.629784
Zn1   Zn    Zn3+2 0.606140 0.500010 0.500000 0.992250
Zn2   Zn    Zn3+2 0.393860 0.499990 0.500000 1.012151
O9    O     O_3   0.262307 0.444786 0.636854 -0.579798
C39   C     C_3   0.263846 0.347801 0.637097 0.181098
H9    H     H_    0.338234 0.321051 0.637863 0.144581
H10   H     H_    0.225940 0.319167 0.583620 0.092676
C40   C     C_3   0.222284 0.310299 0.712526 -0.876791
H11   H     H_    0.146313 0.331263 0.711351 0.302304
H12   H     H_    0.230059 0.234521 0.715339 0.208000
H13   H     H_    0.258937 0.335852 0.767435 0.249653
O10   O     O_3   0.728386 0.633546 0.413641 -0.540604
C41   C     C_3   0.733319 0.629331 0.329335 0.190219
H14   H     H_    0.665738 0.605731 0.303027 0.146005
H15   H     H_    0.790755 0.582218 0.310372 0.126242
C42   C     C_3   0.744131 0.724723 0.292649 -0.823177
H16   H     H_    0.813656 0.750034 0.312608 0.273346
H17   H     H_    0.738971 0.722786 0.226014 0.206871
H18   H     H_    0.687534 0.772677 0.310858 0.248890
O11   O     O_3   0.236503 0.537202 0.358489 -0.575765
C43   C     C_3   0.233108 0.632906 0.344747 0.164121
H19   H     H_    0.282637 0.662612 0.389422 0.173438
H20   H     H_    0.160622 0.664256 0.348084 0.156622
C44   C     C_3   0.263202 0.656852 0.261349 -0.894678
H21   H     H_    0.215681 0.626510 0.215243 0.251554
H22   H     H_    0.258873 0.732278 0.250678 0.211199
H23   H     H_    0.336963 0.631363 0.256023 0.252064
O12   O     O_3   0.763880 0.367454 0.587975 -0.515943
C45   C     C_3   0.764457 0.389606 0.669840 0.226445
H24   H     H_    0.696525 0.369417 0.691724 0.159688
H25   H     H_    0.769328 0.464061 0.680090 0.065915
C46   C     C_3   0.842832 0.334930 0.721167 -0.850598
H26   H     H_    0.909315 0.371121 0.721880 0.280054
H27   H     H_    0.823328 0.327232 0.784139 0.176114
H28   H     H_    0.854351 0.265775 0.697818 0.291681
O13   O     O_3   0.045063 0.521710 0.354052 -0.533062
C47   C     C_3   0.043334 0.435092 0.320361 0.146586
H29   H     H_    0.007361 0.386313 0.359060 0.095393
H30   H     H_    0.115887 0.406777 0.312118 0.153988
C48   C     C_3   0.988877 0.444514 0.238265 -0.829582
H31   H     H_    0.023631 0.492282 0.197936 0.257576
H32   H     H_    0.986910 0.376756 0.211037 0.202176
H33   H     H_    0.915536 0.471174 0.244470 0.245457
O14   O     O_3   0.956615 0.360381 0.582158 -0.533659
C49   C     C_3   0.000361 0.300713 0.530127 0.181135
H34   H     H_    0.068047 0.326670 0.513133 0.105081
H35   H     H_    0.955995 0.291173 0.473907 0.100711
C50   C     C_3   0.022166 0.208323 0.574544 -0.866935
H36   H     H_    0.957228 0.181778 0.597441 0.271028
H37   H     H_    0.051798 0.158592 0.533759 0.207107
H38   H     H_    0.074314 0.215070 0.626371 0.253786
O15   O     O_3   0.689048 0.522083 0.914055 -0.601475
C51   C     C_3   0.773672 0.474433 0.897956 0.085786
H39   H     H_    0.791445 0.489687 0.835193 0.131896
H40   H     H_    0.768605 0.399244 0.908102 0.132665
C52   C     C_3   0.853693 0.504786 0.954412 -0.812944
H41   H     H_    0.921192 0.469662 0.940817 0.205597
H42   H     H_    0.859639 0.579815 0.946601 0.259109
H43   H     H_    0.840191 0.487459 0.017820 0.254942
O16   O     O_3   0.315010 0.409147 0.095489 -0.605959
C53   C     C_3   0.244096 0.479176 0.100687 0.090671
H44   H     H_    0.272922 0.548422 0.096947 0.140022
H45   H     H_    0.208989 0.469711 0.157514 0.160491
C54   C     C_3   0.169742 0.473679 0.030948 -0.819195
H46   H     H_    0.138081 0.406038 0.033343 0.257856
H47   H     H_    0.113202 0.528014 0.034668 0.205524
H48   H     H_    0.202073 0.483206 0.972836 0.261390
O17   O     O_3   0.652334 0.064549 0.642805 -0.635832
C55   C     C_3   0.628776 0.074291 0.723046 0.085750
H49   H     H_    0.676465 0.026008 0.762143 0.163192
H50   H     H_    0.555737 0.054821 0.732459 0.109743
C56   C     C_3   0.643770 0.171808 0.749746 -0.335939
H51   H     H_    0.717901 0.187991 0.742436 0.246291
H52   H     H_    0.596756 0.221742 0.711738 0.208140
C57   C     C_3   0.623104 0.182233 0.837348 -0.976142
H53   H     H_    0.548424 0.168436 0.845599 0.268680
H54   H     H_    0.635586 0.253242 0.854517 0.263454
H55   H     H_    0.670056 0.134259 0.877358 0.267013
O18   O     O_3   0.335922 0.943549 0.609875 -0.643719
C58   C     C_3   0.345713 0.968567 0.690645 0.107574
H56   H     H_    0.397873 0.021820 0.698594 0.133623
H57   H     H_    0.367780 0.907822 0.731437 0.138179
C59   C     C_3   0.250680 0.008362 0.713366 -0.323344
H58   H     H_    0.226903 0.067327 0.671357 0.215687
H59   H     H_    0.197581 0.955578 0.707628 0.232117
C60   C     C_3   0.257077 0.040410 0.799328 -0.982392
H60   H     H_    0.278564 0.982039 0.842528 0.269749
H61   H     H_    0.187166 0.069570 0.813616 0.272481
H62   H     H_    0.309059 0.094049 0.806096 0.262894
O19   O     O_3   0.673944 0.210423 0.536356 -0.516879
C61   C     C_3   0.696104 0.180815 0.459828 0.183946
H63   H     H_    0.645017 0.211728 0.411077 0.120630
H64   H     H_    0.696543 0.104785 0.458146 0.122700
C62   C     C_3   0.792818 0.209593 0.441620 -0.808649
H65   H     H_    0.845641 0.177553 0.487660 0.264319
H66   H     H_    0.809800 0.186367 0.381633 0.185959
H67   H     H_    0.794211 0.285175 0.441110 0.252959
O20   O     O_3   0.327805 0.779103 0.538257 -0.565075
C63   C     C_3   0.278687 0.828661 0.471936 0.174568
H68   H     H_    0.306467 0.806837 0.414981 0.098082
H69   H     H_    0.284309 0.904012 0.473105 0.158666
C64   C     C_3   0.174851 0.810873 0.471801 -0.891150
H70   H     H_    0.144763 0.842400 0.524247 0.271448
H71   H     H_    0.136941 0.841169 0.415609 0.202514
H72   H     H_    0.165586 0.736223 0.476093 0.229546
O21   O     O_3   0.350203 0.222354 0.441421 -0.616619
C65   C     C_3   0.259509 0.190262 0.451302 0.096268
H73   H     H_    0.209180 0.250936 0.448403 0.131817
H74   H     H_    0.252609 0.155240 0.511014 0.128183
C66   C     C_3   0.230356 0.130485 0.381408 -0.335826
H75   H     H_    0.225848 0.172651 0.324154 0.230865
H76   H     H_    0.284019 0.073808 0.376617 0.209771
C67   C     C_3   0.135237 0.090174 0.391758 -1.002624
H77   H     H_    0.138123 0.047362 0.448537 0.273385
H78   H     H_    0.117193 0.046455 0.340707 0.270048
H79   H     H_    0.079355 0.145738 0.392447 0.260303
O22   O     O_3   0.671533 0.755585 0.562242 -0.605709
C68   C     C_3   0.688659 0.707615 0.638037 0.141402
H80   H     H_    0.732316 0.644429 0.629004 0.147171
H81   H     H_    0.623055 0.684611 0.663480 0.116183
C69   C     C_3   0.743264 0.764993 0.698546 -0.428623
H82   H     H_    0.810250 0.784193 0.674275 0.239436
H83   H     H_    0.701056 0.828620 0.708837 0.232356
C70   C     C_3   0.765859 0.712295 0.779043 -0.937958
H84   H     H_    0.699827 0.697196 0.807144 0.287544
H85   H     H_    0.808752 0.754037 0.820284 0.271800
H86   H     H_    0.806539 0.647283 0.770513 0.260989
O23   O     O_3   0.070673 0.482148 0.644159 -0.577465
C71   C     C_3   0.073495 0.565388 0.683367 0.123811
H87   H     H_    0.036778 0.622109 0.644708 0.111117
H88   H     H_    0.147803 0.582270 0.699075 0.170172
C72   C     C_3   0.023036 0.555968 0.760647 -0.333870
H89   H     H_    0.948720 0.539380 0.745523 0.209539
H90   H     H_    0.058105 0.499170 0.799980 0.230997
C73   C     C_3   0.024269 0.644090 0.806104 -0.980795
H91   H     H_    0.097967 0.660918 0.823324 0.271577
H92   H     H_    0.986809 0.635321 0.861636 0.268930
H93   H     H_    0.988374 0.701560 0.768180 0.271660
O24   O     O_3   0.921627 0.642572 0.413069 -0.577530
C74   C     C_3   0.959051 0.709273 0.463267 0.069680
H94   H     H_    0.996629 0.755744 0.424229 0.173835
H95   H     H_    0.011728 0.679392 0.510686 0.116752
C75   C     C_3   0.882182 0.766412 0.500821 -0.308508
H96   H     H_    0.826697 0.791617 0.453700 0.269569
H97   H     H_    0.850139 0.722768 0.545975 0.232462
C76   C     C_3   0.922657 0.848080 0.542429 -0.994808
H98   H     H_    0.975833 0.824296 0.591983 0.260476
H99   H     H_    0.865145 0.888770 0.567966 0.282488
H100  H     H_    0.956071 0.892868 0.498691 0.270143

loop_
_geom_bond_atom_site_label_1
_geom_bond_atom_site_label_2
_ccdc_geom_bond_type
C60   H62   S    
C76   H98   S    
C9    H7    S    
O13   C47   S    
O5    Zn1   S    
C29   H4    S    
C27   C29   A    
C42   H17   S    
C42   H16   S    
O21   C65   S    
C59   C60   S    
C24   O6    A    
C48   H33   S    
C53   H45   S    
C69   H82   S    
C66   H76   S    
O11   C43   S    
C3    O19   S    
C50   H37   S    
O14   C49   S    
N3    Zn2   S    
C55   H49   S    
C1    C5    S    
N4    Zn1   S    
C63   H68   S    
C19   C21   A    
C24   C26   S    
C56   H51   S    
O10   C41   S    
C57   H55   S    
C64   H70   S    
C8    C10   A    
C43   H20   S    
C76   H99   S    
C67   H77   S    
C74   H94   S    
C60   H60   S    
C70   H84   S    
C49   C50   S    
C60   H61   S    
C62   H67   S    
C72   H90   S    
C1    O3    A    
C51   H39   S    
C54   H48   S    
C39   H10   S    
O2    Zn2   S    
O19   C61   S    
C48   H32   S    
O22   C68   S    
C63   H69   S    
N1    N2    D    
C72   C73   S    
C75   H96   S    
C40   H12   S    
C10   H8    S    
C62   H65   S    
C61   C62   S    
C30   H3    S    
C41   H14   S    
C38   O18   S    
C46   H27   S    
C35   H5    S    
C18   C20   A    
C19   O13   S    
C56   C57   S    
C47   C48   S    
C34   O16   S    
C15   N3    A    
C24   O8    A    
C31   N1    S    
C21   C22   S    
C53   H44   S    
C62   H66   S    
C32   N2    S    
C2    C6    S    
C10   C12   A    
C50   H38   S    
O3    Zn2   S    
C48   H31   S    
C68   C69   S    
C37   O17   S    
O4    Zn1   S    
C70   H85   S    
C58   C59   S    
C18   O12   S    
C13   O23   S    
C31   C33   A    
C45   H25   S    
C49   H34   S    
C73   H93   S    
C76   H100  S    
C59   H58   S    
C68   H81   S    
C2    O4    A    
C17   N3    A    
C66   H75   S    
C5    C7    A    
C45   H24   S    
O24   C74   S    
O7    Zn2   S    
C6    C8    A    
C20   O14   S    
C55   C56   S    
O8    Zn1   S    
O12   C45   S    
C7    O21   S    
C44   H21   S    
O6    Zn2   S    
C53   C54   S    
C73   H92   S    
C74   C75   S    
C49   H35   S    
C39   H9    S    
C33   C35   A    
C58   H57   S    
C68   H80   S    
C13   C15   A    
C27   H2    S    
C40   H13   S    
C41   C42   S    
C17   O11   S    
C15   O9    S    
C64   H72   S    
C13   C21   A    
C47   H29   S    
C61   H63   S    
C46   H28   S    
C47   H30   S    
C1    O1    A    
C51   C52   S    
C54   H46   S    
C2    O2    A    
C25   C35   A    
C66   C67   S    
C61   H64   S    
C4    C6    A    
C4    C38   A    
C9    C11   A    
O17   C55   S    
C42   H18   S    
C14   C16   A    
C36   H6    S    
O1    Zn1   S    
C71   H88   S    
C44   H23   S    
C18   N4    A    
C11   C37   A    
C52   H41   S    
C50   H36   S    
C8    O22   S    
C26   C36   A    
C72   H89   S    
C23   O7    A    
C14   O24   S    
C65   H73   S    
C55   H50   S    
C70   H86   S    
C39   C40   S    
C43   H19   S    
C63   C64   S    
C16   O10   S    
C20   C22   A    
O18   C58   S    
C3    C5    A    
C45   C46   S    
C44   H22   S    
C69   H83   S    
C11   C12   S    
C23   O5    A    
C59   H59   S    
C25   C27   A    
C58   H56   S    
C26   C28   A    
C28   H1    S    
C73   H91   S    
C52   H43   S    
C71   C72   S    
C74   H95   S    
C64   H71   S    
C46   H26   S    
C28   C30   A    
C29   C31   A    
O16   C53   S    
C30   C32   A    
C43   C44   S    
C14   C22   A    
O23   C71   S    
C67   H78   S    
C75   C76   S    
C65   H74   S    
C65   C66   S    
C17   C19   A    
C57   H53   S    
C34   C36   A    
C23   C25   S    
C12   C38   A    
O9    C39   S    
C16   N4    A    
C51   H40   S    
C54   H47   S    
C69   C70   S    
C7    C9    A    
C4    O20   S    
C33   O15   S    
C3    C37   A    
C57   H54   S    
C40   H11   S    
O20   C63   S    
C41   H15   S    
C52   H42   S    
C71   H87   S    
O15   C51   S    
C75   H97   S    
C32   C34   A    
C56   H52   S    
C67   H79   S    
