data_mof_unit_61113.cif
_audit_creation_date              2012-12-11T17:37:28-0500
_audit_creation_method            fapswitch 2.2
_symmetry_space_group_name_H-M    P1
_symmetry_Int_Tables_number       1
_space_group_crystal_system       triclinic
_cell_length_a                    23.788168
_cell_length_b                    6.911525
_cell_length_c                    21.964061
_cell_angle_alpha                 90.037082
_cell_angle_beta                  101.843363
_cell_angle_gamma                 89.958633
_cell_volume                      3534.29190518

loop_
_atom_site_label
_atom_site_type_symbol
_atom_type_description
_atom_site_fract_x
_atom_site_fract_y
_atom_site_fract_z
_atom_type_partial_charge
O1    O     O_R   0.301920 0.607900 0.199160 -0.536074
O2    O     O_R   0.698080 0.392100 0.800840 -0.536075
O3    O     O_R   0.198080 0.107900 0.300840 -0.536191
O4    O     O_R   0.801920 0.892100 0.699160 -0.536195
O5    O     O_R   0.190790 0.275820 0.184850 -0.522298
O6    O     O_R   0.809210 0.724180 0.815150 -0.522301
O7    O     O_R   0.309210 0.775820 0.315150 -0.522265
O8    O     O_R   0.690790 0.224180 0.684850 -0.522265
C1    C     C_R   0.168707 0.447185 0.166687 0.716173
C2    C     C_R   0.831293 0.552814 0.833313 0.716179
C3    C     C_R   0.331273 0.947170 0.333333 0.715226
C4    C     C_R   0.668727 0.052830 0.666667 0.715220
O9    O     O_R   0.301050 0.278040 0.191980 -0.534064
O10   O     O_R   0.698950 0.721960 0.808020 -0.534065
O11   O     O_R   0.198950 0.778040 0.308020 -0.533100
O12   O     O_R   0.801050 0.221960 0.691980 -0.533095
O13   O     O_R   0.309130 0.110040 0.308020 -0.519265
O14   O     O_R   0.690870 0.889960 0.691980 -0.519266
O15   O     O_R   0.190870 0.610040 0.191980 -0.519684
O16   O     O_R   0.809130 0.389960 0.808020 -0.519685
C5    C     C_R   0.318285 0.446609 0.177467 0.702719
C6    C     C_R   0.681715 0.553391 0.822533 0.702718
C7    C     C_R   0.179966 0.946382 0.320447 0.705133
C8    C     C_R   0.820033 0.053617 0.679554 0.705143
O17   O     O_3   0.252520 0.442130 0.288070 -0.357002
O18   O     O_3   0.747480 0.557870 0.711930 -0.356998
O19   O     O_3   0.247480 0.942130 0.211930 -0.356968
O20   O     O_3   0.752520 0.057870 0.788070 -0.356971
V1    V     V_3+5 0.249530 0.166380 0.242940 1.398108
V2    V     V_3+5 0.750470 0.833620 0.757060 1.398104
V3    V     V_3+5 0.250470 0.666380 0.257060 1.399344
V4    V     V_3+5 0.749530 0.333620 0.742940 1.399357
C9    C     C_R   0.941796 0.181574 0.595361 -0.129096
C10   C     C_R   0.058239 0.818354 0.404694 -0.129110
C11   C     C_R   0.594655 0.679474 0.946968 -0.129158
C12   C     C_R   0.405345 0.320526 0.053032 -0.129157
H1    H     H_    0.972021 0.297313 0.593013 0.113169
H2    H     H_    0.028047 0.702528 0.407089 0.113142
H3    H     H_    0.590259 0.794512 0.979264 0.113174
H4    H     H_    0.409741 0.205487 0.020736 0.113174
C13   C     C_R   0.902790 0.197881 0.635569 0.147986
C14   C     C_R   0.097250 0.802012 0.364493 0.147960
C15   C     C_R   0.635339 0.696024 0.908728 0.140456
C16   C     C_R   0.364661 0.303976 0.091272 0.140455
C17   C     C_R   0.862926 0.045517 0.638244 -0.068883
C18   C     C_R   0.137071 0.954486 0.361757 -0.068927
C19   C     C_R   0.640583 0.544681 0.865930 -0.070049
C20   C     C_R   0.359417 0.455319 0.134070 -0.070050
C21   C     C_R   0.864689 0.880586 0.600899 -0.211393
C22   C     C_R   0.135262 0.119541 0.399042 -0.211340
C23   C     C_R   0.605126 0.380531 0.864405 -0.207645
C24   C     C_R   0.394874 0.619469 0.135595 -0.207645
H5    H     H_    0.834946 0.762499 0.601563 0.131885
H6    H     H_    0.164975 0.237705 0.398340 0.131871
H7    H     H_    0.607636 0.263106 0.832414 0.127571
H8    H     H_    0.392364 0.736894 0.167585 0.127571
C25   C     C_R   0.903964 0.866695 0.561437 -0.137669
C26   C     C_R   0.095979 0.133469 0.438494 -0.137734
C27   C     C_R   0.565139 0.366579 0.902987 -0.138706
C28   C     C_R   0.434861 0.633421 0.097013 -0.138706
H9    H     H_    0.904057 0.738249 0.533158 0.122415
H10   H     H_    0.095849 0.262019 0.466723 0.122411
H11   H     H_    0.538320 0.238968 0.900361 0.121742
H12   H     H_    0.461680 0.761032 0.099639 0.121741
C29   C     C_R   0.942506 0.017407 0.558264 0.085908
C30   C     C_R   0.057479 0.982660 0.441723 0.085952
C31   C     C_R   0.559471 0.516421 0.944127 0.086950
C32   C     C_R   0.440528 0.483579 0.055873 0.086950
C33   C     C_1   0.983010 0.004699 0.517123 -0.049310
C34   C     C_1   0.016972 0.995388 0.482861 -0.049307
C35   C     C_1   0.517505 0.504353 0.983498 -0.049782
C36   C     C_1   0.482495 0.495647 0.016502 -0.049783
C37   C     C_1   0.616635 0.040827 0.614555 -0.214543
C38   C     C_1   0.383365 0.959173 0.385445 -0.214543
C39   C     C_1   0.883387 0.540778 0.885411 -0.215422
C40   C     C_1   0.116613 0.459222 0.114588 -0.215429
C41   C     C_1   0.573273 0.026843 0.571787 0.002137
C42   C     C_1   0.426727 0.973156 0.428213 0.002138
C43   C     C_1   0.926744 0.526797 0.928185 0.002718
C44   C     C_1   0.073256 0.473203 0.071815 0.002719
C45   C     C_1   0.521733 0.008116 0.521269 -0.000421
C46   C     C_1   0.478267 0.991884 0.478731 -0.000421
C47   C     C_1   0.978273 0.508100 0.978722 0.000133
C48   C     C_1   0.021727 0.491900 0.021278 0.000133
C49   C     C_3   0.906180 0.375702 0.676040 -0.759028
H13   H     H_    0.943261 0.468842 0.671969 0.197794
H14   H     H_    0.866779 0.464163 0.661855 0.217565
H15   H     H_    0.911392 0.332955 0.725607 0.198304
C50   C     C_3   0.093913 0.624011 0.324100 -0.758843
H16   H     H_    0.056869 0.530719 0.328229 0.197755
H17   H     H_    0.088662 0.666568 0.274506 0.198309
H18   H     H_    0.133355 0.535744 0.338315 0.217509
C51   C     C_3   0.672916 0.873762 0.916036 -0.744591
H19   H     H_    0.666252 0.965843 0.955426 0.195337
H20   H     H_    0.718878 0.830854 0.925377 0.203400
H21   H     H_    0.662622 0.963528 0.873360 0.217258
C52   C     C_3   0.327084 0.126237 0.083964 -0.744591
H22   H     H_    0.333748 0.034156 0.044574 0.195338
H23   H     H_    0.337378 0.036472 0.126640 0.217258
H24   H     H_    0.281122 0.169145 0.074623 0.203400

loop_
_geom_bond_atom_site_label_1
_geom_bond_atom_site_label_2
_ccdc_geom_bond_type
C26   H10   S    
O1    C5    A    
C51   H19   S    
O19   V1    S    
O13   V1    S    
O3    C7    A    
C10   C14   A    
C44   C48   S    
O15   V3    S    
C10   C30   A    
C52   H22   S    
C9    C29   A    
C49   H13   S    
O7    C3    A    
C22   H6    S    
C8    C17   S    
O9    V1    S    
O4    C8    A    
C21   H5    S    
O1    V3    S    
C21   C25   A    
O2    V4    S    
C14   C18   A    
O3    V1    S    
C24   C28   A    
C27   C31   A    
C26   C30   A    
C2    O16   A    
O2    C6    A    
O14   V2    S    
C1    C40   S    
C11   C31   A    
C50   H17   S    
C11   C15   A    
C23   H7    S    
C32   C36   S    
C5    C20   S    
O11   C7    A    
C6    C19   S    
O12   C8    A    
C7    C18   S    
C4    C37   S    
O10   V2    S    
O20   V4    S    
C52   H23   S    
C1    O15   A    
C45   C46   T    
O5    V1    S    
C49   H14   S    
O17   V1    S    
O7    V3    S    
O19   V3    S    
O8    V4    S    
C12   H4    S    
O18   V4    S    
C19   C23   A    
C9    H1    S    
C22   C26   A    
C11   H3    S    
O5    C1    A    
C16   C52   S    
C42   C46   S    
C47   C48   T    
C17   C21   A    
O8    C4    A    
O9    C5    A    
C50   H18   S    
O11   V3    S    
O6    V2    S    
O18   V2    S    
C51   H21   S    
C12   C16   A    
C23   C27   A    
C52   H24   S    
O16   V4    S    
C49   H15   S    
C3    O13   A    
C37   C41   T    
C10   H2    S    
O17   V3    S    
C40   C44   T    
C25   C29   A    
C3    C38   S    
O6    C2    A    
C12   C32   A    
C25   H9    S    
O12   V4    S    
C13   C49   S    
C18   C22   A    
C27   H11   S    
C28   H12   S    
C14   C50   S    
C9    C13   A    
O10   C6    A    
O20   V2    S    
C35   C36   T    
C43   C47   S    
C30   C34   S    
C39   C43   T    
C29   C33   S    
C15   C51   S    
C31   C35   S    
C33   C34   T    
C24   H8    S    
C20   C24   A    
C28   C32   A    
C51   H20   S    
C41   C45   S    
C38   C42   T    
C4    O14   A    
C13   C17   A    
C50   H16   S    
C15   C19   A    
O4    V2    S    
C16   C20   A    
C2    C39   S    
