data_mof_unit_7355.cif
_audit_creation_date              2012-12-11T15:48:04-0500
_audit_creation_method            fapswitch 2.2
_symmetry_space_group_name_H-M    P1
_symmetry_Int_Tables_number       1
_space_group_crystal_system       triclinic
_cell_length_a                    6.925226
_cell_length_b                    17.59159
_cell_length_c                    19.488545
_cell_angle_alpha                 108.716863
_cell_angle_beta                  89.405782
_cell_angle_gamma                 90.662833
_cell_volume                      2248.44247593

loop_
_atom_site_label
_atom_site_type_symbol
_atom_type_description
_atom_site_fract_x
_atom_site_fract_y
_atom_site_fract_z
_atom_type_partial_charge
O1    O     O_R   0.494330 0.415710 0.413720 -0.548826
O2    O     O_R   0.819360 0.430070 0.560210 -0.524649
O3    O     O_R   0.994320 0.584290 0.586280 -0.557974
C1    C     C_R   0.649309 0.414871 0.581797 0.772988
O4    O     O_R   0.823740 0.406290 0.412670 -0.495282
O5    O     O_R   0.998730 0.560340 0.437690 -0.503724
C2    C     C_R   0.655168 0.383792 0.384311 0.892534
O6    O     O_R   0.489920 0.439660 0.562310 -0.545887
O7    O     O_3   0.662330 0.550570 0.508380 -0.377867
V1    V     V_3+5 0.935370 0.490620 0.498440 1.601943
O8    O     O_R   0.328720 0.569930 0.439790 -0.535500
C3    C     C_R   0.161199 0.581878 0.415417 0.795585
O9    O     O_R   0.324340 0.593710 0.587330 -0.557198
C4    C     C_R   0.155158 0.616803 0.615370 0.645343
V2    V     V_3+5 0.435940 0.509380 0.501560 1.506702
O10   O     O_3   0.159110 0.449430 0.491620 -0.357006
C5    C     C_R   0.312187 0.725203 0.717433 -0.134372
H1    H     H_    0.452881 0.707418 0.693233 0.120450
C6    C     C_R   0.301002 0.789085 0.782413 -0.150167
H2    H     H_    0.433611 0.818747 0.806161 0.146615
C7    C     C_R   0.121415 0.814388 0.816060 -0.066224
C8    C     C_R   0.953348 0.774130 0.782899 -0.076222
H3    H     H_    0.812674 0.791769 0.807167 0.131383
C9    C     C_R   0.964485 0.710375 0.717855 -0.144645
H4    H     H_    0.831837 0.680780 0.694082 0.109672
C10   C     C_R   0.144043 0.685056 0.684207 -0.038596
C11   C     C_R   0.005253 0.612559 0.308816 0.357666
C12   C     C_R   0.153465 0.626676 0.361904 -0.208931
C13   C     C_R   0.297557 0.684427 0.363838 -0.219500
C14   C     C_R   0.292413 0.730430 0.316896 0.088108
C15   C     C_R   0.133962 0.722944 0.270253 -0.002227
C16   C     C_R   0.985549 0.666286 0.268167 -0.018929
C17   C     C_R   0.441966 0.785015 0.316750 -0.146446
C18   C     C_R   0.436283 0.831090 0.270083 -0.176171
C19   C     C_R   0.278832 0.824824 0.223777 0.087988
C20   C     C_R   0.125417 0.771625 0.224754 0.085314
C21   C     C_R   0.963921 0.766803 0.180006 0.097220
C22   C     C_R   0.811754 0.714433 0.181682 -0.214300
C23   C     C_R   0.821727 0.665262 0.225322 -0.084806
C24   C     C_R   0.272065 0.870779 0.176570 -0.208292
C25   C     C_R   0.111124 0.866131 0.131630 -0.077919
C26   C     C_R   0.956472 0.814670 0.134606 -0.218179
H5    H     H_    0.415042 0.693534 0.402073 0.159719
H6    H     H_    0.564937 0.791363 0.352156 0.141039
H7    H     H_    0.555170 0.871767 0.270313 0.141868
H8    H     H_    0.391052 0.911019 0.175563 0.125885
H9    H     H_    0.831529 0.810660 0.100509 0.126808
H10   H     H_    0.684104 0.711474 0.149180 0.137920
H11   H     H_    0.696806 0.628374 0.226612 0.200775
C27   C     C_R   0.506216 0.196997 0.878735 -0.257847
C28   C     C_R   0.626157 0.130010 0.865765 -0.207087
C29   C     C_R   0.751841 0.108789 0.804478 0.403473
C30   C     C_R   0.769168 0.161165 0.762200 -0.026243
C31   C     C_R   0.640517 0.226203 0.774103 0.038767
C32   C     C_R   0.509601 0.243908 0.832780 0.111222
C33   C     C_R   0.913440 0.151427 0.708873 -0.096001
C34   C     C_R   0.913797 0.197125 0.662331 -0.087396
C35   C     C_R   0.770261 0.254574 0.667229 -0.028803
C36   C     C_R   0.641251 0.273165 0.726735 -0.030154
C37   C     C_R   0.511704 0.337776 0.738768 0.076314
C38   C     C_R   0.388197 0.356172 0.799815 -0.153604
C39   C     C_R   0.385815 0.309349 0.845572 -0.181247
C40   C     C_R   0.754970 0.294373 0.614911 0.313600
C41   C     C_R   0.637594 0.363633 0.629755 -0.272798
C42   C     C_R   0.512204 0.384246 0.691289 0.191133
H12   H     H_    0.408623 0.212499 0.924979 0.150839
H13   H     H_    0.030088 0.109552 0.703244 0.197609
H14   H     H_    0.030699 0.187989 0.623405 0.197753
H15   H     H_    0.291930 0.406897 0.812886 0.161698
H16   H     H_    0.286778 0.324581 0.891301 0.132524
C43   C     C_R   0.776672 0.253019 0.299048 -0.093459
H17   H     H_    0.889516 0.252595 0.336970 0.186174
C44   C     C_R   0.761975 0.188530 0.234555 -0.238980
H18   H     H_    0.862741 0.139500 0.224766 0.135636
C45   C     C_R   0.619100 0.186846 0.183292 -0.072256
C46   C     C_R   0.489343 0.251843 0.198204 0.280792
C47   C     C_R   0.502343 0.315388 0.264053 -0.143596
H19   H     H_    0.403188 0.365045 0.274638 0.129051
C48   C     C_R   0.644697 0.316362 0.315089 -0.062644
O11   O     O_R   0.774940 0.060470 0.937800 -0.506677
O12   O     O_R   0.440880 0.093730 0.087350 -0.530449
O13   O     O_R   0.266130 0.939630 0.062280 -0.548780
C49   C     C_R   0.609498 0.117685 0.114876 0.701461
O14   O     O_R   0.445480 0.069960 0.939820 -0.531788
O15   O     O_R   0.270770 0.915690 0.913690 -0.543358
C50   C     C_R   0.614980 0.083309 0.916952 0.833581
O16   O     O_R   0.770300 0.084410 0.086380 -0.557072
O17   O     O_3   0.602600 0.949510 0.991670 -0.381630
V3    V     V_3+5 0.329470 0.009370 0.001550 1.483404
O18   O     O_R   0.940760 0.906160 0.912560 -0.519033
C51   C     C_R   0.110088 0.882779 0.884802 0.754176
O19   O     O_R   0.936150 0.929930 0.060100 -0.552325
C52   C     C_R   0.103955 0.915254 0.082150 0.679135
V4    V     V_3+5 0.828930 0.990450 0.998310 1.490486
O20   O     O_3   0.105670 0.050490 0.008320 -0.361285
S1    S     S_3+6 0.865726 0.012816 0.775098 -0.018973
O21   O     O_2   0.753475 0.952650 0.799834 -0.355504
O22   O     O_2   0.878023 0.981424 0.693747 -0.331047
O23   O     O_3   0.089623 0.023085 0.809721 -0.516138
H20   H     H_    0.161406 0.975927 0.778824 0.356556
S2    S     S_3+6 0.851750 0.248995 0.525870 -0.003504
O24   O     O_2   0.049451 0.282947 0.520863 -0.333616
O25   O     O_2   0.865972 0.159442 0.507600 -0.316657
O26   O     O_3   0.707611 0.267294 0.464361 -0.526154
H21   H     H_    0.581600 0.242574 0.469874 0.338180
N1    N     N_2   0.390336 0.452824 0.707294 -0.534559
H22   H     H_    0.449780 0.502142 0.697083 0.242639
C53   C     C_3   0.192509 0.436077 0.683050 -0.457236
H23   H     H_    0.186217 0.414778 0.623118 0.242425
H24   H     H_    0.106134 0.491677 0.703785 0.156547
H25   H     H_    0.126036 0.389565 0.703320 0.183598
N2    N     N_2   0.354345 0.256459 0.145260 -0.534625
H26   H     H_    0.361123 0.310594 0.135292 0.264520
C54   C     C_3   0.158569 0.235900 0.159234 -0.465605
H27   H     H_    0.101212 0.280992 0.209033 0.199450
H28   H     H_    0.153101 0.175459 0.165712 0.199283
H29   H     H_    0.065660 0.234984 0.112879 0.200386
S3    S     S_3+6 0.869309 0.520945 0.284371 -0.039221
O27   O     O_2   0.687348 0.533527 0.329097 -0.348457
O28   O     O_2   0.816589 0.493902 0.205491 -0.349268
O29   O     O_3   0.998995 0.447497 0.299001 -0.516971
H30   H     H_    0.111716 0.440720 0.265967 0.315948

loop_
_geom_bond_atom_site_label_1
_geom_bond_atom_site_label_2
_ccdc_geom_bond_type
C49   O16   A    
O16   V4    S    
S2    O24   D    
C44   H18   S    
C19   C20   A    
C1    O6    A    
N2    C54   S    
C54   H27   S    
O15   C51   A    
C30   C31   A    
C33   C34   A    
C24   H8    S    
C21   C22   A    
O13   V3    S    
C3    C12   S    
C5    C10   A    
C20   C21   A    
C6    C7    A    
O14   C50   A    
C15   C20   A    
O5    C3    A    
C14   C15   A    
C11   S3    S    
N1    H22   S    
V2    O10   S    
S1    O23   S    
C53   H23   S    
C39   H16   S    
C18   C19   A    
C25   C26   A    
C16   C23   A    
C21   C26   A    
S3    O27   D    
N2    H26   S    
O11   C50   A    
O8    V2    S    
C25   C52   S    
C15   C16   A    
S1    O22   D    
O18   V4    S    
O1    V2    S    
O7    V1    S    
C22   H10   S    
O18   C51   A    
C40   S2    S    
O12   V3    S    
O17   V3    S    
C36   C37   A    
S2    O25   D    
O13   C52   A    
O9    C4    A    
C13   H5    S    
C44   C45   A    
C38   C39   A    
C28   C50   S    
C43   C48   A    
O26   H21   S    
O12   C49   A    
C17   C18   A    
O4    C2    A    
C31   C36   A    
C47   C48   A    
O17   V4    S    
C28   C29   A    
C9    H4    S    
C43   C44   A    
O15   V3    S    
C27   C28   A    
C35   C36   A    
C47   H19   S    
C37   C38   A    
S3    O29   S    
V3    O20   S    
O2    C1    A    
C45   C46   A    
C13   C14   A    
O23   H20   S    
C46   N2    S    
S1    O21   D    
O19   V4    S    
C5    H1    S    
C18   H7    S    
C4    C10   S    
C27   H12   S    
O29   H30   S    
O3    C4    A    
C24   C25   A    
C23   H11   S    
C37   C42   A    
O6    V2    S    
O9    V2    S    
C8    C9    A    
O14   V3    S    
C34   H14   S    
O11   V4    S    
O2    V1    S    
C42   N1    S    
C29   C30   A    
C2    C48   S    
C7    C51   S    
C30   C33   A    
C38   H15   S    
C35   C40   A    
C31   C32   A    
C12   C13   A    
C14   C17   A    
C11   C16   A    
O1    C2    A    
C17   H6    S    
C9    C10   A    
O5    V1    S    
C54   H28   S    
O8    C3    A    
S2    O26   S    
C33   H13   S    
C1    C41   S    
C27   C32   A    
C53   H25   S    
C41   C42   A    
C6    H2    S    
C19   C24   A    
O7    V2    S    
C43   H17   S    
O3    V1    S    
V1    O10   S    
C46   C47   A    
C45   C49   S    
C34   C35   A    
C22   C23   A    
N1    C53   S    
O19   C52   A    
C5    C6    A    
C53   H24   S    
C29   S1    S    
C26   H9    S    
V4    O20   S    
S3    O28   D    
C54   H29   S    
C40   C41   A    
O4    V1    S    
C32   C39   A    
C11   C12   A    
C8    H3    S    
C7    C8    A    
