data_mof_unit_59971.cif
_audit_creation_date              2012-12-10T17:10:58-0500
_audit_creation_method            fapswitch 2.2
_symmetry_space_group_name_H-M    P1
_symmetry_Int_Tables_number       1
_space_group_crystal_system       triclinic
_cell_length_a                    11.690122
_cell_length_b                    13.004756
_cell_length_c                    13.459066
_cell_angle_alpha                 93.067071
_cell_angle_beta                  76.43269
_cell_angle_gamma                 100.544612
_cell_volume                      1955.33695224

loop_
_atom_site_label
_atom_site_type_symbol
_atom_type_description
_atom_site_fract_x
_atom_site_fract_y
_atom_site_fract_z
_atom_type_partial_charge
C1    C     C_R   0.521482 0.701110 0.502830 0.837348
C2    C     C_R   0.436488 0.460273 0.975902 -0.040256
C3    C     C_R   0.470058 0.450161 0.867990 0.031678
C4    C     C_R   0.523539 0.456680 0.033639 0.077639
C5    C     C_R   0.633122 0.424737 0.985397 0.167743
C6    C     C_R   0.654308 0.395625 0.882570 -0.258023
C7    C     C_R   0.574076 0.407880 0.824616 -0.187750
C8    C     C_R   0.508358 0.490512 0.136072 -0.223684
C9    C     C_R   0.700935 0.451863 0.143222 -0.193693
C10   C     C_R   0.396538 0.479776 0.807648 -0.098038
C11   C     C_R   0.462085 0.184267 0.500536 -0.098076
C12   C     C_R   0.435969 0.490455 0.695756 0.803132
C13   C     C_R   0.534528 0.815187 0.507319 -0.148630
C14   C     C_R   0.637958 0.987912 0.542461 -0.295517
C15   C     C_R   0.635635 0.879694 0.532452 0.461484
C16   C     C_R   0.442030 0.859828 0.487630 -0.329586
C17   C     C_R   0.447325 0.967166 0.493911 0.136747
C18   C     C_R   0.545966 0.031747 0.521022 0.117067
C19   C     C_R   0.551503 0.139421 0.526032 -0.315019
C20   C     C_R   0.360692 0.118678 0.476818 0.261263
C21   C     C_R   0.354231 0.010447 0.474473 -0.260388
C22   C     C_R   0.938404 0.582601 0.611631 0.137326
C23   C     C_R   0.477574 0.298725 0.499570 0.809568
C24   C     C_R   0.820624 0.575488 0.597549 -0.024025
C25   C     C_R   0.861892 0.467405 0.450300 0.387976
C26   C     C_R   0.981546 0.472833 0.459677 -0.032938
C27   C     C_R   0.019812 0.529996 0.541468 -0.047912
C28   C     C_R   0.139154 0.532100 0.550384 0.041240
C29   C     C_R   0.179857 0.427102 0.401794 0.128541
C30   C     C_R   0.063852 0.422097 0.389410 -0.292633
C31   C     C_R   0.562896 0.501144 0.303747 0.793930
C32   C     C_R   0.720576 0.422380 0.040484 -0.201863
C33   C     C_R   0.594317 0.485031 0.192139 -0.076268
C34   C     C_R   0.285411 0.505868 0.855783 -0.277719
C35   C     C_R   0.244458 0.498409 0.960887 -0.212742
C36   C     C_R   0.316004 0.470392 0.020937 0.455752
Cu1   Cu    Cu3+1 0.386470 0.492430 0.492410 0.949595
Cu2   Cu    Cu3+1 0.613530 0.507570 0.507590 0.951420
H1    H     H_    0.767988 0.446393 0.184413 0.155360
H2    H     H_    0.711031 0.037661 0.567760 0.135688
H3    H     H_    0.276928 0.960393 0.455819 0.134139
H4    H     H_    0.365011 0.810956 0.467307 0.175723
H5    H     H_    0.171900 0.574689 0.612202 0.130612
H6    H     H_    0.242331 0.388722 0.347600 0.136904
H7    H     H_    0.040531 0.378693 0.324502 0.158315
H8    H     H_    0.757286 0.616026 0.648706 0.184338
H9    H     H_    0.735022 0.366084 0.845895 0.148381
H10   H     H_    0.804032 0.397113 0.004164 0.133737
H11   H     H_    0.431018 0.523898 0.173126 0.204003
H12   H     H_    0.228038 0.529182 0.811713 0.178187
H13   H     H_    0.154430 0.510392 0.995831 0.155127
H14   H     H_    0.594030 0.380815 0.746335 0.176173
H15   H     H_    0.626429 0.188360 0.549210 0.164214
N1    N     N_R   0.215880 0.481050 0.481000 -0.186143
N2    N     N_R   0.784100 0.518950 0.519000 -0.224937
O1    O     O_R   0.419710 0.645650 0.494620 -0.595440
O2    O     O_R   0.611450 0.658430 0.507430 -0.548756
O3    O     O_R   0.357340 0.490460 0.641450 -0.588995
O4    O     O_R   0.549080 0.503250 0.654260 -0.596652
O5    O     O_R   0.388550 0.341570 0.492570 -0.546193
O6    O     O_R   0.580290 0.354350 0.505380 -0.574292
O7    O     O_R   0.450920 0.496750 0.345740 -0.593965
O8    O     O_R   0.642660 0.509540 0.358550 -0.558767
N3    N     N_2   0.263825 0.159805 0.456891 -0.399914
H16   H     H_    0.181807 0.122357 0.497284 0.242719
C37   C     C_3   0.266479 0.165896 0.349463 -0.710592
H17   H     H_    0.186544 0.196138 0.341041 0.206252
H18   H     H_    0.264312 0.087134 0.312773 0.221860
H19   H     H_    0.348142 0.219598 0.310406 0.233972
O9    O     O_3   0.723011 0.835498 0.560189 -0.605168
C38   C     C_3   0.837006 0.868729 0.495125 0.042135
H20   H     H_    0.905156 0.861333 0.538394 0.163286
H21   H     H_    0.853809 0.952255 0.472681 0.122162
C39   C     C_3   0.856156 0.798745 0.399483 -0.319264
H22   H     H_    0.844575 0.716076 0.422418 0.243359
H23   H     H_    0.788982 0.804912 0.354775 0.206309
C40   C     C_3   0.981253 0.830078 0.331939 -0.940539
H24   H     H_    0.994802 0.912130 0.306318 0.257778
H25   H     H_    0.992379 0.777972 0.263535 0.261786
H26   H     H_    0.050011 0.822473 0.374475 0.253006
N4    N     N_2   0.976726 0.642659 0.693926 -0.442111
H27   H     H_    0.052275 0.698667 0.671839 0.243896
C41   C     C_3   0.888860 0.673130 0.780011 -0.690773
H28   H     H_    0.933583 0.704677 0.842208 0.229103
H29   H     H_    0.819950 0.604324 0.810000 0.244746
H30   H     H_    0.846520 0.735186 0.757232 0.229822
N5    N     N_2   0.823931 0.413223 0.365969 -0.381400
H31   H     H_    0.875904 0.441656 0.296840 0.211948
C42   C     C_3   0.801406 0.299844 0.369639 -0.665153
H32   H     H_    0.868103 0.267278 0.309420 0.196330
H33   H     H_    0.712271 0.269539 0.354036 0.243470
H34   H     H_    0.805115 0.271232 0.444961 0.215529
O10   O     O_3   0.261757 0.440731 0.120348 -0.643061
C43   C     C_3   0.227276 0.330316 0.123272 0.048207
H35   H     H_    0.226022 0.305176 0.200538 0.153305
H36   H     H_    0.292284 0.288126 0.070033 0.135175
C44   C     C_3   0.101724 0.296510 0.103253 -0.367052
H37   H     H_    0.040427 0.346928 0.148035 0.216893
H38   H     H_    0.105447 0.305504 0.020908 0.215561
C45   C     C_3   0.051565 0.182526 0.132181 -0.932751
H39   H     H_    0.111005 0.130585 0.087416 0.262671
H40   H     H_    0.961627 0.160148 0.115448 0.258740
H41   H     H_    0.043057 0.171549 0.215043 0.246307

loop_
_geom_bond_atom_site_label_1
_geom_bond_atom_site_label_2
_ccdc_geom_bond_type
C37   H18   S    
N5    H31   S    
O10   C43   S    
C14   C18   A    
C30   H7    S    
C35   C36   A    
C9    H1    S    
C4    C8    A    
C44   H37   S    
C40   H24   S    
C24   N2    A    
C11   C19   A    
C26   C27   A    
Cu1   Cu2   S    
C39   H23   S    
C1    O1    A    
C7    H14   S    
C18   C19   A    
C3    C7    A    
C5    C6    A    
C37   H19   S    
C29   N1    A    
C25   N5    S    
C34   C35   A    
C9    C32   A    
N4    C41   S    
Cu1   O1    S    
C36   O10   S    
Cu2   N2    S    
C16   C17   A    
C39   C40   S    
C31   C33   S    
O9    C38   S    
C42   H33   S    
Cu1   O3    S    
Cu2   O6    S    
C12   O3    A    
C19   H15   S    
C37   H17   S    
C9    C33   A    
C32   H10   S    
C31   O7    A    
C44   H38   S    
N4    H27   S    
C40   H25   S    
C23   O5    A    
C11   C20   A    
C34   H12   S    
C39   H22   S    
C22   N4    S    
C31   O8    A    
C6    H9    S    
C38   H21   S    
C28   N1    A    
C43   C44   S    
C25   C26   A    
C45   H41   S    
C17   C21   A    
N3    C37   S    
C20   N3    S    
C2    C4    A    
C29   C30   A    
C1    O2    A    
Cu2   O2    S    
C41   H28   S    
C45   H40   S    
C17   C18   A    
C10   C34   A    
C42   H34   S    
C43   H36   S    
C10   C12   S    
C21   H3    S    
Cu1   N1    S    
C41   H29   S    
C26   C30   A    
C22   C27   A    
C13   C15   A    
C29   H6    S    
C35   H13   S    
C22   C24   A    
C1    C13   S    
C16   H4    S    
C44   C45   S    
Cu2   O8    S    
C40   H26   S    
C2    C36   A    
C15   O9    S    
C25   N2    A    
C4    C5    A    
C38   C39   S    
C6    C7    A    
C28   H5    S    
C24   H8    S    
N3    H16   S    
C5    C32   A    
N5    C42   S    
C2    C3    A    
C38   H20   S    
C3    C10   A    
C11   C23   S    
C45   H39   S    
C8    C33   A    
C12   O4    A    
C43   H35   S    
Cu1   O5    S    
C14   H2    S    
Cu2   O4    S    
C23   O6    A    
C41   H30   S    
C20   C21   A    
C13   C16   A    
C27   C28   A    
Cu1   O7    S    
C14   C15   A    
C42   H32   S    
C8    H11   S    
