data_mof_unit_21886.cif
_audit_creation_date              2012-12-10T17:22:52-0500
_audit_creation_method            fapswitch 2.2
_symmetry_space_group_name_H-M    P1
_symmetry_Int_Tables_number       1
_space_group_crystal_system       triclinic
_cell_length_a                    10.140736
_cell_length_b                    10.499319
_cell_length_c                    10.81662
_cell_angle_alpha                 90.344171
_cell_angle_beta                  95.578384
_cell_angle_gamma                 80.727004
_cell_volume                      1131.16687619

loop_
_atom_site_label
_atom_site_type_symbol
_atom_type_description
_atom_site_fract_x
_atom_site_fract_y
_atom_site_fract_z
_atom_type_partial_charge
C1    C     C_R   0.443663 0.512294 0.267309 0.938703
C2    C     C_R   0.556314 0.495065 0.732737 0.937821
C3    C     C_R   0.499933 0.257465 0.497663 0.909978
C4    C     C_R   0.500063 0.742530 0.502314 0.903080
C5    C     C_3   0.612466 0.019609 0.457041 0.598321
C6    C     C_3   0.387533 0.980336 0.542901 0.598538
C7    C     C_3   0.506075 0.953233 0.383190 -0.330520
C8    C     C_3   0.493914 0.046715 0.616753 -0.330720
C9    C     C_3   0.498835 0.877467 0.502812 -0.091353
C10   C     C_3   0.501162 0.122499 0.497134 -0.094638
C11   C     C_3   0.607204 0.942202 0.576056 -0.331384
C12   C     C_3   0.392787 0.057751 0.423887 -0.331350
C13   C     C_2   0.411606 0.531176 0.135285 -0.378211
C14   C     C_2   0.588281 0.504038 0.864929 -0.380856
C15   C     C_2   0.512002 0.539723 0.066412 -0.153882
C16   C     C_2   0.487784 0.543410 0.934059 -0.146232
C17   C     C_2   0.073083 0.488958 0.490227 -0.145669
C18   C     C_2   0.926904 0.511076 0.509745 -0.147775
H1    H     H_    0.512298 0.910294 0.289457 0.151614
H2    H     H_    0.487655 0.089599 0.710502 0.151686
H3    H     H_    0.693659 0.890853 0.636947 0.148311
H4    H     H_    0.306325 0.109084 0.362996 0.148046
H5    H     H_    0.384488 0.570117 0.893677 0.189762
H6    H     H_    0.615265 0.534725 0.106903 0.188260
H7    H     H_    0.691292 0.477214 0.905754 0.148499
H8    H     H_    0.308626 0.535992 0.094351 0.147957
H9    H     H_    0.890172 0.582074 0.576855 0.160713
H10   H     H_    0.109806 0.417979 0.423099 0.160297
H11   H     H_    0.880950 0.380703 0.386280 0.164337
H12   H     H_    0.119062 0.619280 0.613742 0.162843
N1    N     N_2   0.157310 0.552180 0.551120 -0.194097
N2    N     N_2   0.842690 0.447820 0.448880 -0.194570
O1    O     O_R   0.568940 0.489500 0.307530 -0.610822
O2    O     O_R   0.431060 0.510500 0.692470 -0.611411
O3    O     O_R   0.348880 0.522990 0.340350 -0.615688
O4    O     O_R   0.651120 0.477010 0.659650 -0.615072
O5    O     O_R   0.610000 0.297210 0.483560 -0.571838
O6    O     O_R   0.390000 0.702790 0.516440 -0.574732
O7    O     O_R   0.389940 0.330700 0.516390 -0.637293
O8    O     O_R   0.610060 0.669300 0.483610 -0.640367
Zn1   Zn    Zn3+2 0.646930 0.477640 0.478080 0.940635
Zn2   Zn    Zn3+2 0.353070 0.522360 0.521920 0.940353
O9    O     O_3   0.728698 0.050056 0.409908 -0.634575
C19   C     C_3   0.816043 0.934878 0.388302 0.087498
H13   H     H_    0.765510 0.871132 0.323177 0.138418
H14   H     H_    0.850796 0.881826 0.477285 0.133568
C20   C     C_3   0.937840 0.968183 0.330103 -0.359121
H15   H     H_    0.905915 0.006848 0.234552 0.217218
H16   H     H_    0.979865 0.044196 0.385367 0.230239
C21   C     C_3   0.047023 0.850280 0.324681 -0.893754
H17   H     H_    0.083141 0.812530 0.419805 0.284505
H18   H     H_    0.133365 0.877835 0.281250 0.262825
H19   H     H_    0.007726 0.773116 0.268553 0.252654
O10   O     O_3   0.271359 0.949778 0.590053 -0.635530
C22   C     C_3   0.183789 0.064871 0.611410 0.087100
H20   H     H_    0.148959 0.117678 0.522319 0.133701
H21   H     H_    0.234144 0.128858 0.676390 0.139833
C23   C     C_3   0.062090 0.031441 0.669659 -0.359877
H22   H     H_    0.020198 0.955283 0.614473 0.230058
H23   H     H_    0.094115 0.992890 0.765245 0.216693
C24   C     C_3   0.952733 0.149259 0.675011 -0.892806
H24   H     H_    0.991852 0.226414 0.731239 0.253177
H25   H     H_    0.866387 0.121616 0.718289 0.262295
H26   H     H_    0.916684 0.187055 0.579917 0.284605

loop_
_geom_bond_atom_site_label_1
_geom_bond_atom_site_label_2
_ccdc_geom_bond_type
C24   H26   S    
C21   H18   S    
O9    C19   S    
O6    Zn2   S    
N1    Zn2   S    
C20   C21   S    
C20   H15   S    
O2    Zn2   S    
C19   C20   S    
N2    Zn1   S    
O1    Zn1   S    
C16   H5    S    
C2    O2    A    
C23   C24   S    
C13   C15   D    
C17   C18   S    
C5    O9    S    
C3    O7    A    
C5    C10   S    
C20   H16   S    
C3    C10   S    
C8    H2    S    
C6    C12   S    
C9    C11   S    
C3    O5    A    
O4    Zn1   S    
H12   N1    S    
C18   N2    D    
C10   C12   S    
C6    O10   S    
C8    C11   S    
C2    C14   S    
C6    C8    S    
C8    C10   S    
C15   H6    S    
C4    O6    A    
C5    C11   S    
O7    Zn2   S    
C7    H1    S    
C22   H21   S    
C14   H7    S    
O5    Zn1   S    
C24   H24   S    
C17   N1    D    
C14   C16   D    
C13   H8    S    
C23   H22   S    
C21   H19   S    
H11   N2    S    
C22   H20   S    
C1    O1    A    
C15   C16   S    
C12   H4    S    
C6    C9    S    
C1    C13   S    
C19   H13   S    
C1    O3    A    
C5    C7    S    
C22   C23   S    
C2    O4    A    
C24   H25   S    
O3    Zn2   S    
C7    C9    S    
O10   C22   S    
O8    Zn1   S    
C7    C12   S    
C21   H17   S    
C4    C9    S    
C17   H10   S    
C23   H23   S    
C11   H3    S    
C18   H9    S    
C4    O8    A    
C19   H14   S    
