data_mof_unit_27773.cif
_audit_creation_date              2012-12-10T16:51:28-0500
_audit_creation_method            fapswitch 2.2
_symmetry_space_group_name_H-M    P1
_symmetry_Int_Tables_number       1
_space_group_crystal_system       triclinic
_cell_length_a                    7.8766
_cell_length_b                    8.561513
_cell_length_c                    12.070005
_cell_angle_alpha                 92.973225
_cell_angle_beta                  101.362054
_cell_angle_gamma                 93.863424
_cell_volume                      794.415314942

loop_
_atom_site_label
_atom_site_type_symbol
_atom_type_description
_atom_site_fract_x
_atom_site_fract_y
_atom_site_fract_z
_atom_type_partial_charge
C1    C     C_R   0.044404 0.794473 0.497740 0.952439
C2    C     C_R   0.161318 0.515067 0.833841 -0.233520
C3    C     C_2   0.067757 0.958175 0.496880 -0.394411
C4    C     C_R   0.106837 0.508501 0.710763 0.840765
C5    C     C_2   0.933307 0.042042 0.505464 -0.386352
C6    C     C_R   0.955977 0.205598 0.503105 0.958805
C7    C     C_R   0.892271 0.487768 0.289532 0.865983
C8    C     C_R   0.803300 0.283435 0.000806 -0.174071
C9    C     C_R   0.828647 0.455819 0.169113 -0.072254
C10   C     C_R   0.082812 0.613703 0.904453 0.449225
C11   C     C_R   0.149935 0.629584 0.020173 -0.124881
C12   C     C_R   0.393533 0.482060 0.992670 0.083725
C13   C     C_R   0.306276 0.568903 0.063930 -0.313155
C14   C     C_3   0.545563 0.629593 0.630885 -0.448179
C15   C     C_R   0.306772 0.435688 0.881657 0.035338
C16   C     C_R   0.564860 0.440544 0.027904 0.110845
C17   C     C_R   0.634684 0.328561 0.962341 0.178341
C18   C     C_R   0.533686 0.262102 0.860839 -0.248249
C19   C     C_R   0.371381 0.315168 0.820589 -0.192012
C20   C     C_R   0.670326 0.512029 0.125455 -0.240941
C21   C     C_R   0.898820 0.344184 0.105916 -0.191519
H1    H     H_    0.022286 0.299027 0.139856 0.159198
H2    H     H_    0.194689 0.009056 0.488756 0.179987
H3    H     H_    0.663863 0.709891 0.661279 0.185122
H4    H     H_    0.436147 0.704327 0.615598 0.202934
H5    H     H_    0.536916 0.548311 0.698463 0.214411
H6    H     H_    0.966450 0.745943 0.794071 0.326059
H7    H     H_    0.806477 0.991171 0.513820 0.180312
H8    H     H_    0.465683 0.387819 0.406345 0.173130
H9    H     H_    0.581843 0.172398 0.811131 0.150590
H10   H     H_    0.857653 0.196794 0.952185 0.144025
H11   H     H_    0.627939 0.607430 0.172763 0.149281
H12   H     H_    0.355440 0.589809 0.153905 0.163254
H13   H     H_    0.087102 0.699071 0.075495 0.165065
H14   H     H_    0.297293 0.261014 0.741227 0.173418
N1    N     N_2   0.434800 0.456690 0.470850 -0.134150
N2    N     N_2   0.565200 0.543310 0.529150 -0.046588
O1    O     O_R   0.893060 0.738880 0.507150 -0.611748
O2    O     O_R   0.172250 0.711130 0.488470 -0.631952
O3    O     O_R   0.944700 0.520730 0.667600 -0.591217
O4    O     O_R   0.223890 0.492980 0.648920 -0.625534
O5    O     O_R   0.827750 0.288870 0.511530 -0.621693
O6    O     O_R   0.106940 0.261120 0.492850 -0.615126
O7    O     O_R   0.776110 0.507020 0.351080 -0.620570
O8    O     O_R   0.055300 0.479270 0.332400 -0.617128
O9    O     O_3   0.944751 0.699596 0.863935 -0.775073
Zn1   Zn    Zn3+2 0.813580 0.518530 0.512470 0.943882
Zn2   Zn    Zn3+2 0.186420 0.481470 0.487530 0.924187

loop_
_geom_bond_atom_site_label_1
_geom_bond_atom_site_label_2
_ccdc_geom_bond_type
C10   O9    S    
O3    Zn1   S    
C2    C4    S    
O7    Zn1   S    
C13   H12   S    
C18   H9    S    
N2    Zn1   S    
C5    H7    S    
O6    Zn2   S    
C9    C20   A    
C3    H2    S    
C8    C17   A    
C12   C15   A    
C16   C20   A    
C10   C11   A    
C8    C21   A    
C19   H14   S    
C7    O7    A    
C14   H5    S    
C14   N2    S    
C15   C19   A    
C2    C15   A    
C11   C13   A    
H8    N1    S    
C9    C21   A    
O1    Zn1   S    
C1    O1    A    
C7    O8    A    
H6    O9    S    
N1    N2    D    
O4    Zn2   S    
C17   C18   A    
N1    Zn2   S    
O5    Zn1   S    
C14   H4    S    
C20   H11   S    
C5    C6    S    
C4    O4    A    
C1    O2    A    
C2    C10   A    
C12   C16   A    
C12   C13   A    
C18   C19   A    
C6    O5    A    
O8    Zn2   S    
C14   H3    S    
C7    C9    S    
C6    O6    A    
C16   C17   A    
C3    C5    D    
C21   H1    S    
C8    H10   S    
C11   H13   S    
C4    O3    A    
O2    Zn2   S    
C1    C3    S    
