data_mof_unit_12055.cif
_audit_creation_date              2012-12-10T21:30:32-0500
_audit_creation_method            fapswitch 2.2
_symmetry_space_group_name_H-M    P1
_symmetry_Int_Tables_number       1
_space_group_crystal_system       triclinic
_cell_length_a                    13.105295
_cell_length_b                    16.191575
_cell_length_c                    16.758803
_cell_angle_alpha                 94.317066
_cell_angle_beta                  89.457811
_cell_angle_gamma                 108.252987
_cell_volume                      3367.24929007

loop_
_atom_site_label
_atom_site_type_symbol
_atom_type_description
_atom_site_fract_x
_atom_site_fract_y
_atom_site_fract_z
_atom_type_partial_charge
C1    C     C_R   0.500156 0.487617 0.346946 0.953431
C2    C     C_R   0.184053 0.425621 0.529139 -0.113704
C3    C     C_R   0.510506 0.478914 0.260425 -0.213066
C4    C     C_R   0.299055 0.453142 0.509767 0.819902
C5    C     C_R   0.590827 0.543847 0.223874 0.398122
C6    C     C_R   0.612226 0.530933 0.143273 -0.359556
C7    C     C_R   0.549866 0.456585 0.097743 0.106604
C8    C     C_R   0.471371 0.390805 0.133893 0.462525
C9    C     C_R   0.447026 0.403707 0.214564 -0.000668
C10   C     C_R   0.492412 0.438725 0.859864 -0.251485
C11   C     C_R   0.467484 0.436255 0.779634 0.368112
C12   C     C_R   0.020698 0.466113 0.541870 0.131372
C13   C     C_R   0.535737 0.518901 0.904602 0.211756
C14   C     C_R   0.490690 0.515130 0.741407 -0.272154
C15   C     C_R   0.517103 0.595124 0.788447 0.430254
C16   C     C_R   0.495264 0.510654 0.653476 0.887252
C17   C     C_R   0.546757 0.596258 0.869204 -0.354505
C18   C     C_R   0.548845 0.780827 0.542453 0.164955
C19   C     C_R   0.544640 0.865933 0.540005 -0.384544
C20   C     C_R   0.482622 0.886220 0.481857 0.132550
C21   C     C_R   0.424663 0.818650 0.425984 0.270762
C22   C     C_R   0.424930 0.731603 0.432805 0.460166
C23   C     C_R   0.132203 0.488406 0.552848 0.052017
C24   C     C_R   0.424511 0.128836 0.490521 0.105632
C25   C     C_R   0.430297 0.215735 0.476974 0.190116
C26   C     C_R   0.514655 0.113759 0.524787 0.228457
C27   C     C_R   0.593177 0.271859 0.552537 0.587588
C28   C     C_R   0.702391 0.548549 0.498505 0.935129
C29   C     C_R   0.597723 0.186078 0.556699 -0.490041
C30   C     C_R   0.983444 0.688000 0.562677 0.361300
C31   C     C_R   0.819591 0.579718 0.510215 -0.234476
C32   C     C_R   0.122753 0.337683 0.516386 -0.201115
C33   C     C_R   0.011556 0.312988 0.520665 -0.161667
C34   C     C_R   0.974206 0.534185 0.540629 -0.041399
C35   C     C_R   0.960349 0.376346 0.531154 -0.193265
C36   C     C_3   0.872304 0.774583 0.453392 0.164336
C37   C     C_3   0.853341 0.862819 0.457298 -0.859436
C38   C     C_3   0.460321 0.256694 0.076986 0.097414
C39   C     C_3   0.390228 0.178218 0.025872 -0.821482
C40   C     C_3   0.348204 0.340184 0.247495 -0.818721
C41   C     C_3   0.473357 0.724171 0.806266 0.090697
C42   C     C_3   0.400559 0.760524 0.759606 -0.863957
C43   C     C_3   0.614027 0.688633 0.244864 0.146469
C44   C     C_3   0.668544 0.770557 0.297834 -0.839370
C45   C     C_R   0.034880 0.622428 0.563923 -0.033823
C46   C     C_3   0.345955 0.229030 0.424323 -0.856016
C47   C     C_3   0.321576 0.054221 0.471806 -0.830104
C48   C     C_3   0.430879 0.883050 0.307273 0.158207
C49   C     C_3   0.402813 0.831571 0.226408 -0.877418
C50   C     C_3   0.220958 0.733004 0.600415 -0.840008
C51   C     C_3   0.263586 0.644256 0.377439 0.145037
C52   C     C_3   0.213545 0.556523 0.330905 -0.828919
C53   C     C_3   0.684481 0.337501 0.668736 0.101154
C54   C     C_3   0.748082 0.427006 0.706760 -0.796088
C55   C     C_3   0.627637 0.769171 0.601598 -0.682309
C56   C     C_R   0.144590 0.641302 0.585942 0.158913
C57   C     C_3   0.999090 0.789459 0.667234 0.131403
C58   C     C_3   0.055647 0.883791 0.696892 -0.842074
C59   C     C_3   0.314097 0.337914 0.727041 0.137316
C60   C     C_3   0.269764 0.253592 0.674334 -0.812373
C61   C     C_R   0.189054 0.573219 0.584678 -0.251157
C62   C     C_R   0.870218 0.516140 0.510769 -0.288330
C63   C     C_R   0.878482 0.667040 0.530826 0.330635
H1    H     H_    0.476268 0.377295 0.886904 0.188571
H2    H     H_    0.270504 0.587982 0.606911 0.189096
H3    H     H_    0.829331 0.733748 0.400263 0.164932
H4    H     H_    0.960355 0.786911 0.445583 0.154568
H5    H     H_    0.894463 0.903528 0.511054 0.262462
H6    H     H_    0.885983 0.896892 0.403092 0.208279
H7    H     H_    0.766198 0.854543 0.460260 0.255681
H8    H     H_    0.475379 0.234442 0.135819 0.133630
H9    H     H_    0.538125 0.282737 0.045957 0.139232
H10   H     H_    0.374926 0.198211 0.966319 0.257977
H11   H     H_    0.431422 0.127867 0.017470 0.200248
H12   H     H_    0.673945 0.580890 0.114999 0.185248
H13   H     H_    0.312332 0.149850 0.055661 0.256048
H14   H     H_    0.279312 0.327852 0.205287 0.264007
H15   H     H_    0.363313 0.277548 0.255054 0.236081
H16   H     H_    0.322902 0.365849 0.304868 0.209823
H17   H     H_    0.540689 0.779110 0.833619 0.146612
H18   H     H_    0.422954 0.689243 0.854920 0.137219
H19   H     H_    0.331064 0.705670 0.735306 0.259746
H20   H     H_    0.370172 0.804895 0.799964 0.210307
H21   H     H_    0.444325 0.797544 0.710070 0.262347
H22   H     H_    0.525504 0.672993 0.252015 0.176790
H23   H     H_    0.575672 0.657393 0.905579 0.147131
H24   H     H_    0.635037 0.702881 0.181756 0.123666
H25   H     H_    0.757004 0.788469 0.291435 0.246347
H26   H     H_    0.642336 0.825210 0.279540 0.197773
H27   H     H_    0.646633 0.759367 0.361127 0.268512
H28   H     H_    0.369966 0.294419 0.403837 0.291065
H29   H     H_    0.333271 0.183673 0.369594 0.218037
H30   H     H_    0.269495 0.216830 0.456666 0.215866
H31   H     H_    0.308821 0.004566 0.516262 0.258049
H32   H     H_    0.249351 0.075878 0.476151 0.228070
H33   H     H_    0.324655 0.023764 0.410629 0.248318
H34   H     H_    0.593154 0.916705 0.582239 0.197775
H35   H     H_    0.518826 0.898395 0.318862 0.114636
H36   H     H_    0.415141 0.946240 0.303997 0.155821
H37   H     H_    0.317083 0.820554 0.211038 0.259658
H38   H     H_    0.453948 0.868293 0.179447 0.204171
H39   H     H_    0.416572 0.767531 0.228311 0.262112
H40   H     H_    0.306001 0.734133 0.601775 0.215547
H41   H     H_    0.215226 0.772575 0.550352 0.270029
H42   H     H_    0.203897 0.763494 0.658295 0.260292
H43   H     H_    0.234843 0.692866 0.349230 0.188674
H44   H     H_    0.234594 0.638915 0.439739 0.152173
H45   H     H_    0.666107 0.175555 0.584916 0.168581
H46   H     H_    0.241316 0.505605 0.355926 0.257810
H47   H     H_    0.124617 0.537310 0.334667 0.208701
H48   H     H_    0.236827 0.560987 0.267093 0.249418
H49   H     H_    0.729131 0.291357 0.680228 0.122659
H50   H     H_    0.604699 0.316561 0.698039 0.189374
H51   H     H_    0.707095 0.475484 0.695025 0.254515
H52   H     H_    0.754721 0.424244 0.772443 0.203206
H53   H     H_    0.830065 0.448167 0.681511 0.249609
H54   H     H_    0.634501 0.703599 0.598660 0.299557
H55   H     H_    0.708668 0.814635 0.591038 0.225676
H56   H     H_    0.826881 0.451570 0.485544 0.210400
H57   H     H_    0.605870 0.786471 0.663015 0.233609
H58   H     H_    0.018022 0.746250 0.709599 0.122464
H59   H     H_    0.910969 0.779041 0.667338 0.171800
H60   H     H_    0.036709 0.928311 0.656267 0.259353
H61   H     H_    0.028193 0.897018 0.758016 0.204023
H62   H     H_    0.143968 0.896542 0.698748 0.253707
H63   H     H_    0.295863 0.390747 0.696717 0.119935
H64   H     H_    0.272551 0.330033 0.785579 0.135682
H65   H     H_    0.284622 0.198775 0.703134 0.248831
H66   H     H_    0.181911 0.238990 0.665035 0.201396
H67   H     H_    0.160244 0.288158 0.501913 0.151016
H68   H     H_    0.309365 0.260217 0.615279 0.268901
H69   H     H_    0.873769 0.353208 0.532557 0.172594
H70   H     H_    0.964563 0.244741 0.512213 0.143388
N1    N     N_2   0.550427 0.452831 0.013711 -0.147319
N2    N     N_2   0.554341 0.523869 0.987873 -0.160457
N3    N     N_R   0.487340 0.714070 0.490410 -0.144618
N4    N     N_2   0.479076 0.973206 0.475511 -0.139164
N5    N     N_2   0.522929 0.028130 0.531697 -0.160149
N6    N     N_R   0.512670 0.285920 0.509580 -0.131258
O1    O     O_R   0.504530 0.423560 0.387290 -0.640408
O2    O     O_3   0.406790 0.319928 0.087225 -0.595385
O3    O     O_3   0.515778 0.670246 0.753945 -0.602538
O4    O     O_3   0.649507 0.619629 0.267444 -0.604389
O5    O     O_3   0.363857 0.836208 0.366315 -0.625371
O6    O     O_3   0.376595 0.666439 0.374137 -0.584071
O7    O     O_3   0.674389 0.342982 0.585634 -0.600984
O8    O     O_3   0.035327 0.773705 0.589623 -0.604495
O9    O     O_3   0.425723 0.355327 0.738419 -0.600866
O10   O     O_R   0.496400 0.561030 0.381140 -0.528909
O11   O     O_R   0.352460 0.397130 0.504630 -0.629643
O12   O     O_R   0.344330 0.534610 0.498470 -0.601902
O13   O     O_R   0.503600 0.438970 0.618860 -0.548183
O14   O     O_R   0.495470 0.576440 0.612710 -0.597835
O15   O     O_R   0.655670 0.465390 0.501530 -0.568306
O16   O     O_R   0.647540 0.602870 0.495370 -0.586415
O17   O     O_3   0.833121 0.732531 0.523547 -0.612353
Zn1   Zn    Zn3+2 0.505430 0.408200 0.504110 0.969636
Zn2   Zn    Zn3+2 0.494570 0.591800 0.495890 0.990192

loop_
_geom_bond_atom_site_label_1
_geom_bond_atom_site_label_2
_ccdc_geom_bond_type
C59   C60   S    
C50   H41   S    
C56   C61   A    
O11   Zn1   S    
C37   H6    S    
C26   C29   A    
C27   C29   A    
C41   C42   S    
C30   C45   A    
C43   O4    S    
C19   C20   A    
C42   H19   S    
C41   H17   S    
C32   H67   S    
C19   H34   S    
C36   H4    S    
C30   O8    S    
C53   C54   S    
C59   H63   S    
C12   C23   A    
C58   H60   S    
C21   C22   A    
C36   C37   S    
C25   N6    A    
C24   C26   A    
C63   O17   S    
C27   O7    S    
C49   H38   S    
C38   C39   S    
C11   C14   A    
C36   H3    S    
C11   O9    S    
C5    O4    S    
C46   H29   S    
C51   O6    S    
C59   H64   S    
C37   H5    S    
C34   C62   A    
C48   O5    S    
C2    C32   A    
C18   C19   A    
C39   H11   S    
O14   Zn2   S    
C4    O12   A    
C57   H59   S    
C38   H8    S    
C45   C56   A    
C8    C9    A    
C54   H53   S    
C50   H42   S    
C47   H33   S    
C29   H45   S    
C1    O10   A    
C8    O2    S    
O10   Zn2   S    
N3    Zn2   S    
C59   O9    S    
C50   H40   S    
C37   H7    S    
O16   Zn2   S    
C28   O15   A    
C13   N2    S    
C31   C62   A    
C60   H68   S    
C53   H50   S    
C55   H57   S    
C38   H9    S    
C17   H23   S    
C43   H22   S    
O12   Zn2   S    
C31   C63   A    
C60   H65   S    
C42   H21   S    
C24   C25   A    
C25   C46   S    
C7    N1    S    
C49   H39   S    
C46   H28   S    
C52   H48   S    
C26   N5    S    
C9    C40   S    
C50   C56   S    
C51   C52   S    
C22   N3    A    
C1    C3    S    
C20   N4    S    
C2    C4    S    
C43   C44   S    
C3    C9    A    
C33   H70   S    
O1    Zn1   S    
C28   O16   A    
C15   O3    S    
C22   O6    S    
C52   H47   S    
C41   H18   S    
C54   H52   S    
C40   H16   S    
C16   O13   A    
C34   C45   A    
C39   H13   S    
C12   C35   A    
C18   N3    A    
C62   H56   S    
C6    C7    A    
C1    O1    A    
C18   C55   S    
O15   Zn1   S    
C53   H49   S    
C48   C49   S    
C57   O8    S    
C38   O2    S    
C40   H15   S    
C12   C34   A    
C16   O14   A    
C44   H27   S    
C36   O17   S    
C55   H54   S    
C15   C17   A    
C48   H36   S    
O13   Zn1   S    
C40   H14   S    
C24   C47   S    
C28   C31   S    
C10   H1    S    
C42   H20   S    
C21   O5    S    
C3    C5    A    
C10   C13   A    
C60   H66   S    
N1    N2    D    
C4    O11   A    
N4    N5    D    
C58   H61   S    
C13   C17   A    
C43   H24   S    
C32   C33   A    
C41   O3    S    
C49   H37   S    
C57   C58   S    
C5    C6    A    
C46   H30   S    
C52   H46   S    
C51   H43   S    
C54   H51   S    
C30   C63   A    
C53   O7    S    
C33   C35   A    
C47   H31   S    
C14   C16   S    
C48   H35   S    
C39   H10   S    
C27   N6    A    
C7    C8    A    
C10   C11   A    
C57   H58   S    
C61   H2    S    
C23   C61   A    
C20   C21   A    
N6    Zn1   S    
C58   H62   S    
C51   H44   S    
C2    C23   A    
C47   H32   S    
C14   C15   A    
C44   H25   S    
C35   H69   S    
C44   H26   S    
C55   H55   S    
C6    H12   S    
