data_mof_unit_10515.cif
_audit_creation_date              2012-12-10T17:42:14-0500
_audit_creation_method            fapswitch 2.2
_symmetry_space_group_name_H-M    P1
_symmetry_Int_Tables_number       1
_space_group_crystal_system       triclinic
_cell_length_a                    15.085372
_cell_length_b                    13.695097
_cell_length_c                    10.750573
_cell_angle_alpha                 90.151234
_cell_angle_beta                  89.903185
_cell_angle_gamma                 89.632082
_cell_volume                      2220.96466968

loop_
_atom_site_label
_atom_site_type_symbol
_atom_type_description
_atom_site_fract_x
_atom_site_fract_y
_atom_site_fract_z
_atom_type_partial_charge
C1    C     C_R   0.328627 0.500320 0.498334 0.831255
C2    C     C_3   0.592201 0.461863 0.925151 0.497362
C3    C     C_R   0.813142 0.575199 0.447524 -0.224589
C4    C     C_R   0.767971 0.498374 0.502984 -0.145554
C5    C     C_R   0.814364 0.421928 0.560861 0.424328
C6    C     C_R   0.907857 0.416598 0.550164 -0.094497
C7    C     C_R   0.953288 0.496135 0.495119 -0.082995
C8    C     C_R   0.905467 0.576691 0.445917 0.056872
C9    C     C_R   0.956031 0.332846 0.588853 0.391944
C10   C     C_R   0.049426 0.332207 0.582026 0.318098
C11   C     C_R   0.094533 0.415677 0.538431 -0.018475
C12   C     C_R   0.499507 0.499983 0.259770 0.911235
C13   C     C_R   0.046522 0.495900 0.490131 -0.002562
C14   C     C_R   0.091865 0.576717 0.438242 -0.020307
C15   C     C_R   0.043030 0.656930 0.393792 -0.203853
C16   C     C_R   0.950996 0.656901 0.395708 0.396851
C17   C     C_R   0.186865 0.421346 0.544625 -0.275921
C18   C     C_R   0.231919 0.500595 0.494102 -0.091476
C19   C     C_R   0.185395 0.576575 0.435358 0.392937
C20   C     C_R   0.441597 0.793383 0.574079 0.114943
C21   C     C_R   0.442310 0.207770 0.575167 0.085994
C22   C     C_R   0.558064 0.792640 0.425983 0.099336
C23   C     C_R   0.557303 0.206256 0.424821 0.145612
C24   C     C_R   0.559393 0.895853 0.423637 -0.033466
C25   C     C_R   0.559097 0.103010 0.423173 -0.041670
C26   C     C_R   0.671307 0.499627 0.501898 0.917834
C27   C     C_R   0.499376 0.948243 0.499994 -0.041239
C28   C     C_R   0.499748 0.051790 0.500555 -0.043254
C29   C     C_R   0.439573 0.896776 0.576603 -0.121012
C30   C     C_R   0.440181 0.104435 0.577516 -0.110084
C31   C     C_R   0.620252 0.946766 0.348340 0.304304
C32   C     C_R   0.617716 0.050924 0.344459 0.315173
C33   C     C_R   0.380228 0.052819 0.653904 0.327927
C34   C     C_R   0.379893 0.949615 0.653403 0.332415
C35   C     C_R   0.498738 0.500223 0.740181 0.912530
C36   C     C_3   0.477252 0.603701 0.072345 -0.498621
C37   C     C_3   0.428534 0.429206 0.072277 -0.408160
C38   C     C_3   0.484865 0.606718 0.930010 0.232248
C39   C     C_3   0.422865 0.434222 0.928956 0.180966
C40   C     C_3   0.594321 0.465898 0.072900 0.608149
C41   C     C_3   0.500763 0.499851 0.121895 -0.112059
C42   C     C_3   0.499198 0.500528 0.878171 -0.087328
Cu1   Cu    Cu3+1 0.499990 0.597420 0.500010 1.010046
Cu2   Cu    Cu3+1 0.499990 0.402580 0.500010 1.009591
H1    H     H_    0.520453 0.661031 0.112828 0.174498
H2    H     H_    0.443815 0.352850 0.100634 0.194184
H3    H     H_    0.224980 0.364866 0.590774 0.190930
H4    H     H_    0.075493 0.721617 0.359164 0.203070
H5    H     H_    0.397016 0.751323 0.631225 0.199710
H6    H     H_    0.398170 0.250713 0.633002 0.166062
H7    H     H_    0.603203 0.750516 0.368422 0.184142
H8    H     H_    0.601776 0.247539 0.366298 0.202501
H9    H     H_    0.408413 0.622960 0.101639 0.253455
H10   H     H_    0.363126 0.447974 0.114589 0.221040
H11   H     H_    0.543296 0.652112 0.904447 0.144998
H12   H     H_    0.429166 0.358456 0.891740 0.118217
H13   H     H_    0.775238 0.633874 0.405670 0.223687
N1    N     N_R   0.499930 0.743810 0.499950 -0.226206
N2    N     N_R   0.499930 0.256190 0.499950 -0.223025
O1    O     O_R   0.370250 0.582280 0.500040 -0.527658
O2    O     O_R   0.370250 0.417720 0.500040 -0.627603
O3    O     O_R   0.499970 0.582270 0.317700 -0.599658
O4    O     O_R   0.499970 0.417730 0.317700 -0.570333
O5    O     O_R   0.629730 0.582260 0.499980 -0.605799
O6    O     O_R   0.629730 0.417740 0.499980 -0.525354
O7    O     O_R   0.500000 0.582270 0.682320 -0.565275
O8    O     O_R   0.500000 0.417730 0.682320 -0.587468
O9    O     O_3   0.094568 0.248713 0.617449 -0.683959
H14   H     H_    0.144155 0.237741 0.558430 0.349181
O10   O     O_3   0.232910 0.648590 0.375668 -0.705445
H15   H     H_    0.201933 0.665196 0.297328 0.328714
Cl1   Cl    Cl    0.895907 0.760973 0.336485 -0.555902
O11   O     O_3   0.682142 0.893259 0.281579 -0.711011
H16   H     H_    0.736196 0.933055 0.271075 0.374943
O12   O     O_3   0.670355 0.103311 0.263560 -0.715376
H17   H     H_    0.682484 0.062826 0.188932 0.350404
Cl2   Cl    Cl    0.304385 0.116491 0.750907 -0.522091
Cl3   Cl    Cl    0.303787 0.887564 0.750067 -0.502547
O13   O     O_3   0.408180 0.650183 0.879485 -0.637289
H18   H     H_    0.412206 0.721337 0.896386 0.351911
O14   O     O_3   0.339050 0.470799 0.894453 -0.622001
H19   H     H_    0.328576 0.450455 0.807007 0.324133
O15   O     O_3   0.660640 0.529699 0.117724 -0.725300
H20   H     H_    0.652859 0.594827 0.079369 0.336116
O16   O     O_3   0.612959 0.372401 0.121314 -0.719595
H21   H     H_    0.676141 0.357420 0.102803 0.376643
O17   O     O_3   0.658652 0.522375 0.875337 -0.741712
H22   H     H_    0.716750 0.490733 0.892702 0.374265
O18   O     O_3   0.608583 0.366160 0.879755 -0.687283
H23   H     H_    0.567492 0.319860 0.920033 0.331137
O19   O     O_3   0.766920 0.356571 0.631656 -0.633127
H24   H     H_    0.797758 0.350668 0.712708 0.364615
O20   O     O_3   0.910134 0.250160 0.624495 -0.672286
H25   H     H_    0.951441 0.197894 0.651066 0.393917

loop_
_geom_bond_atom_site_label_1
_geom_bond_atom_site_label_2
_ccdc_geom_bond_type
O17   H22   S    
O20   H25   S    
C27   C29   A    
O11   H16   S    
C16   Cl1   S    
C24   C27   A    
O12   H17   S    
C32   O12   S    
O14   H19   S    
Cu2   O6    S    
C7    C8    A    
O16   H21   S    
C25   C28   A    
C23   N2    A    
C1    C18   S    
C12   C41   S    
O15   H20   S    
C21   N2    A    
C5    C6    A    
C31   O11   S    
C38   O13   S    
Cu2   N2    S    
C15   C16   A    
C18   C19   A    
C35   C42   S    
C26   O5    A    
C36   H9    S    
Cu1   N1    S    
C38   H11   S    
C31   C32   A    
O9    H14   S    
O10   H15   S    
C9    C10   A    
C25   C32   A    
C8    C16   A    
C13   C14   A    
C40   O15   S    
C36   C41   S    
C15   H4    S    
C6    C9    A    
C21   H6    S    
Cu1   O5    S    
C17   C18   A    
C39   C42   S    
C20   C29   A    
Cu2   O4    S    
C2    O17   S    
C39   O14   S    
C3    C8    A    
C1    O1    A    
O19   H24   S    
C12   O4    A    
C35   O7    A    
C29   C34   A    
C40   O16   S    
C2    O18   S    
Cu1   Cu2   S    
C20   H5    S    
C12   O3    A    
C39   H12   S    
C35   O8    A    
C33   C34   A    
C36   H1    S    
C5    O19   S    
Cu1   O1    S    
C37   H10   S    
C3    H13   S    
C40   C41   S    
C22   C24   A    
C20   N1    A    
C3    C4    A    
C9    O20   S    
C11   C17   A    
C30   C33   A    
C26   O6    A    
C14   C19   A    
C17   H3    S    
C4    C5    A    
Cu2   O8    S    
C1    O2    A    
C22   N1    A    
C4    C26   S    
C38   C42   S    
C6    C7    A    
C10   O9    S    
Cu2   O2    S    
C21   C30   A    
C36   C38   S    
O18   H23   S    
C24   C31   A    
C37   C39   S    
C34   Cl3   S    
C11   C13   A    
C33   Cl2   S    
C23   H8    S    
C2    C42   S    
Cu1   O7    S    
C28   C30   A    
C23   C25   A    
C37   C41   S    
C10   C11   A    
O13   H18   S    
C2    C40   S    
C7    C13   A    
C27   C28   A    
C14   C15   A    
C19   O10   S    
C37   H2    S    
Cu1   O3    S    
C22   H7    S    
