data_mof_unit_38212.cif
_audit_creation_date              2012-12-10T19:05:21-0500
_audit_creation_method            fapswitch 2.2
_symmetry_space_group_name_H-M    P1
_symmetry_Int_Tables_number       1
_space_group_crystal_system       triclinic
_cell_length_a                    9.545926
_cell_length_b                    10.870174
_cell_length_c                    17.349106
_cell_angle_alpha                 90.184547
_cell_angle_beta                  85.815281
_cell_angle_gamma                 89.651962
_cell_volume                      1795.40045074

loop_
_atom_site_label
_atom_site_type_symbol
_atom_type_description
_atom_site_fract_x
_atom_site_fract_y
_atom_site_fract_z
_atom_type_partial_charge
C1    C     C_R   0.499735 0.737379 0.500192 0.806681
C2    C     C_R   0.344593 0.483310 0.776828 -0.198242
C3    C     C_R   0.430293 0.442348 0.146165 -0.146705
C4    C     C_R   0.420415 0.445833 0.226311 -0.213679
C5    C     C_R   0.653140 0.534619 0.224415 -0.196918
C6    C     C_R   0.663367 0.530631 0.144043 -0.168057
C7    C     C_R   0.550790 0.487176 0.104620 0.189611
C8    C     C_2   0.448997 0.513195 0.980240 -0.229360
C9    C     C_2   0.561270 0.489674 0.020097 -0.232004
C10   C     C_R   0.530679 0.493684 0.265906 -0.023336
C11   C     C_R   0.378363 0.939462 0.500127 0.056641
C12   C     C_R   0.481494 0.501948 0.649833 0.790354
C13   C     C_R   0.501050 0.870149 0.499955 -0.110057
C14   C     C_R   0.629244 0.934705 0.498743 -0.210259
C15   C     C_R   0.630179 0.063768 0.498269 -0.218314
C16   C     C_R   0.502802 0.130311 0.498371 -0.081700
C17   C     C_R   0.379766 0.063484 0.498244 0.065560
C18   C     C_3   0.224486 0.076502 0.498874 -0.505985
C19   C     C_3   0.221659 0.934522 0.501347 0.092295
C20   C     C_R   0.932371 0.414241 0.458094 0.255953
C21   C     C_R   0.918627 0.574777 0.548194 -0.090498
C22   C     C_R   0.067593 0.574533 0.548328 -0.070814
C23   C     C_R   0.500629 0.262787 0.499350 0.808509
C24   C     C_R   0.079758 0.414609 0.457858 0.262945
C25   C     C_3   0.095967 0.396912 0.372472 -0.521611
C26   C     C_3   0.937213 0.395043 0.372909 -0.498572
C27   C     C_R   0.518747 0.498584 0.350178 0.786952
C28   C     C_R   0.471590 0.508374 0.734107 -0.025358
C29   C     C_R   0.590082 0.541375 0.772448 -0.205952
C30   C     C_R   0.582969 0.546319 0.852489 -0.147515
C31   C     C_R   0.457690 0.515963 0.895503 0.193782
C32   C     C_R   0.337830 0.487215 0.857228 -0.173260
Cu1   Cu    Cu3+1 0.359330 0.500020 0.500000 0.946778
Cu2   Cu    Cu3+1 0.640670 0.499980 0.500000 0.937435
H1    H     H_    0.688280 0.564276 0.740615 0.146306
H2    H     H_    0.757552 0.564318 0.112579 0.122231
H3    H     H_    0.728524 0.886154 0.498150 0.162511
H4    H     H_    0.730065 0.110600 0.497915 0.161168
H5    H     H_    0.179085 0.123040 0.552233 0.205228
H6    H     H_    0.190998 0.115113 0.443865 0.173010
H7    H     H_    0.183605 0.889267 0.449239 0.146069
H8    H     H_    0.857175 0.636982 0.586082 0.138147
H9    H     H_    0.118171 0.635958 0.586595 0.174591
H10   H     H_    0.141918 0.478612 0.342034 0.217955
H11   H     H_    0.327540 0.409352 0.257137 0.142700
H12   H     H_    0.146105 0.307217 0.355865 0.185599
H13   H     H_    0.894711 0.474505 0.341835 0.215711
H14   H     H_    0.895049 0.303853 0.357434 0.193163
H15   H     H_    0.739661 0.571730 0.253927 0.139434
H16   H     H_    0.664438 0.475186 0.990848 0.143333
H17   H     H_    0.239861 0.465258 0.889609 0.120941
H18   H     H_    0.344374 0.403469 0.116941 0.125367
H19   H     H_    0.251466 0.458814 0.748263 0.149040
H20   H     H_    0.346429 0.527661 0.010420 0.144186
H21   H     H_    0.675467 0.574843 0.880103 0.120581
N1    N     N_R   0.852130 0.499070 0.499500 -0.185998
N2    N     N_R   0.148040 0.499110 0.499500 -0.190421
O1    O     O_R   0.381190 0.680360 0.500000 -0.569806
O2    O     O_R   0.618770 0.680320 0.499990 -0.591504
O3    O     O_R   0.367430 0.500040 0.613600 -0.590540
O4    O     O_R   0.605020 0.500000 0.613590 -0.588226
O5    O     O_R   0.381230 0.319680 0.500010 -0.579199
O6    O     O_R   0.618810 0.319640 0.500000 -0.587295
O7    O     O_R   0.394980 0.500000 0.386410 -0.586925
O8    O     O_R   0.632570 0.499960 0.386400 -0.588162
N3    N     N_2   0.158693 0.887350 0.573935 -0.403548
H22   H     H_    0.203003 0.918824 0.622776 0.263043
C33   C     C_3   0.006897 0.890399 0.580876 -0.734179
H23   H     H_    0.967959 0.842344 0.634525 0.217920
H24   H     H_    0.964927 0.842931 0.530799 0.230312
H25   H     H_    0.968005 0.986962 0.583627 0.231960

loop_
_geom_bond_atom_site_label_1
_geom_bond_atom_site_label_2
_ccdc_geom_bond_type
C10   C27   S    
C21   N1    A    
N3    C33   S    
C18   H5    S    
C15   H4    S    
Cu2   N1    S    
Cu1   O1    S    
C27   O8    A    
C22   H9    S    
C16   C23   S    
C29   C30   A    
C2    C28   A    
C30   H21   S    
C29   H1    S    
C31   C32   A    
C2    H19   S    
C26   H14   S    
C30   C31   A    
C20   N1    A    
C11   C19   S    
C22   N2    A    
C23   O6    A    
Cu1   Cu2   S    
C19   H7    S    
C5    C10   A    
C32   H17   S    
C21   C22   A    
C3    H18   S    
C14   H3    S    
C12   O4    A    
C11   C13   A    
C5    H15   S    
C6    C7    A    
C20   C26   S    
C26   H13   S    
C12   C28   S    
Cu1   O7    S    
Cu2   O8    S    
C2    C32   A    
C28   C29   A    
C8    C31   S    
C6    H2    S    
C17   C18   S    
Cu1   O3    S    
C3    C7    A    
C4    H11   S    
C1    O2    A    
C5    C6    A    
C33   H25   S    
C1    C13   S    
C27   O7    A    
C4    C10   A    
C3    C4    A    
C12   O3    A    
C20   C24   A    
N3    H22   S    
C24   C25   S    
C25   H10   S    
C19   N3    S    
C33   H24   S    
C18   C19   S    
C24   N2    A    
C8    H20   S    
C7    C9    S    
C18   H6    S    
C14   C15   A    
Cu2   O6    S    
Cu1   N2    S    
C21   H8    S    
C13   C14   A    
C25   C26   S    
C1    O1    A    
Cu2   O2    S    
Cu1   O5    S    
C25   H12   S    
C33   H23   S    
C23   O5    A    
C11   C17   A    
C9    H16   S    
C15   C16   A    
C16   C17   A    
C8    C9    D    
Cu2   O4    S    
