data_mof_unit_24355.cif
_audit_creation_date              2012-12-11T16:41:48-0500
_audit_creation_method            fapswitch 2.2
_symmetry_space_group_name_H-M    P1
_symmetry_Int_Tables_number       1
_space_group_crystal_system       triclinic
_cell_length_a                    8.27084
_cell_length_b                    17.355808
_cell_length_c                    18.892685
_cell_angle_alpha                 99.970101
_cell_angle_beta                  91.576034
_cell_angle_gamma                 96.240565
_cell_volume                      2652.23292162

loop_
_atom_site_label
_atom_site_type_symbol
_atom_type_description
_atom_site_fract_x
_atom_site_fract_y
_atom_site_fract_z
_atom_type_partial_charge
Ba1   Ba    Ba6+2 0.849550 0.533890 0.465080 1.678016
Ba2   Ba    Ba6+2 0.340280 0.466170 0.534930 1.667301
C1    C     C_3   0.579099 0.801868 0.274654 0.422900
C2    C     C_R   0.915138 0.406415 0.092644 -0.087828
C3    C     C_R   0.803453 0.399954 0.941368 -0.070577
C4    C     C_3   0.115003 0.679718 0.267329 0.304920
C5    C     C_R   0.955780 0.438844 0.969880 0.039120
C6    C     C_R   0.744582 0.405672 0.873025 -0.107949
C7    C     C_R   0.834365 0.449992 0.828954 -0.015172
C8    C     C_R   0.990170 0.488854 0.854641 -0.025573
C9    C     C_R   0.052062 0.481022 0.924785 0.026748
C10   C     C_R   0.773527 0.455253 0.759502 -0.004546
C11   C     C_R   0.874473 0.491109 0.713748 -0.298710
C12   C     C_3   0.612577 0.728888 0.306015 0.593546
C13   C     C_R   0.026626 0.532630 0.737000 0.039938
C14   C     C_R   0.081233 0.537550 0.811772 -0.081771
C15   C     C_R   0.171038 0.475965 0.066796 0.013329
C16   C     C_3   0.089961 0.691113 0.189941 -0.254885
C17   C     C_R   0.224564 0.482412 0.140566 -0.001092
C18   C     C_R   0.119640 0.452896 0.190494 -0.035478
C19   C     C_R   0.969211 0.411854 0.164154 -0.043685
C20   C     C_R   0.218104 0.587640 0.848331 0.360129
C21   C     C_R   0.285647 0.571018 0.911770 -0.117229
C22   C     C_R   0.209601 0.516253 0.949760 -0.040521
C23   C     C_3   0.527407 0.349944 0.308908 0.330656
C24   C     C_R   0.276461 0.506617 0.017864 0.017248
C25   C     C_R   0.443871 0.528803 0.040571 0.124567
C26   C     C_R   0.383238 0.518539 0.164322 -0.072347
C27   C     C_R   0.491962 0.538177 0.113128 -0.058998
C28   C     C_3   0.176572 0.717287 0.624538 0.227603
C29   C     C_R   0.430617 0.531296 0.238296 0.010969
C30   C     C_R   0.320527 0.507835 0.287378 -0.273372
C31   C     C_R   0.169059 0.465524 0.264972 0.008882
C32   C     C_R   0.401977 0.717201 0.471616 -0.253074
C33   C     C_R   0.552852 0.744430 0.507443 0.062665
C34   C     C_3   0.575890 0.326301 0.231842 -0.352050
C35   C     C_R   0.616448 0.823744 0.511436 -0.041887
C36   C     C_R   0.528090 0.875420 0.480281 0.050044
C37   C     C_R   0.375659 0.847144 0.445135 -0.044725
C38   C     C_R   0.311168 0.768449 0.442084 0.029727
C39   C     C_R   0.595597 0.162140 0.473739 -0.130512
C40   C     C_3   0.101846 0.794276 0.651948 0.217884
C41   C     C_R   0.657410 0.240813 0.473631 0.031948
C42   C     C_R   0.908555 0.219964 0.534056 0.020008
C43   C     C_R   0.846096 0.141551 0.534543 -0.150866
C44   C     C_R   0.692307 0.111339 0.501552 -0.007597
C45   C     C_3   0.101865 0.310161 0.726042 0.323916
C46   C     C_1   0.635044 0.028173 0.495176 0.063930
C47   C     C_1   0.587540 0.958511 0.488530 0.114741
C48   C     C_R   0.820325 0.267152 0.497925 -0.089078
C49   C     C_3   0.112760 0.279367 0.320749 0.219456
C50   C     C_3   0.147753 0.249972 0.242646 -0.366479
C51   C     C_3   0.736121 0.652538 0.682435 0.294554
C52   C     C_3   0.797383 0.692558 0.757882 -0.328990
C53   C     C_3   0.097702 0.288047 0.800454 -0.353576
C54   C     C_3   0.605579 0.267099 0.688965 0.296733
C55   C     C_3   0.593176 0.184614 0.708320 -0.107858
C56   C     C_R   0.012199 0.439732 0.042598 0.021771
H1    H     H_    0.697252 0.746479 0.354149 0.065071
H2    H     H_    0.643602 0.601865 0.684959 0.041686
H3    H     H_    0.895914 0.739154 0.753512 0.151133
H4    H     H_    0.703912 0.723253 0.788145 0.184629
H5    H     H_    0.840160 0.649410 0.788857 0.079437
H6    H     H_    0.495110 0.704024 0.324379 -0.445301
H7    H     H_    0.498829 0.835377 0.311449 -0.018924
H8    H     H_    0.412430 0.375950 0.307911 -0.085634
H9    H     H_    0.619063 0.395982 0.337220 0.100251
H10   H     H_    0.478944 0.284310 0.200168 0.109704
H11   H     H_    0.595702 0.379167 0.206070 0.066084
H12   H     H_    0.108252 0.806259 0.711605 0.121709
H13   H     H_    0.688969 0.297227 0.231413 0.134886
H14   H     H_    0.143098 0.644488 0.153093 0.050112
H15   H     H_    0.218190 0.346591 0.722064 0.124440
H16   H     H_    0.999896 0.345033 0.719175 -0.025222
H17   H     H_    0.192524 0.248927 0.807116 0.143181
H18   H     H_    0.122267 0.341724 0.842151 0.078093
H19   H     H_    0.976165 0.257323 0.808105 0.116972
H20   H     H_    0.736464 0.290563 0.694295 -0.068630
H21   H     H_    0.561919 0.262654 0.632052 0.054184
H22   H     H_    0.686009 0.151170 0.679363 0.093288
H23   H     H_    0.971639 0.788577 0.634452 0.037775
H24   H     H_    0.041273 0.624113 0.273354 0.081337
H25   H     H_    0.620150 0.189269 0.766972 0.126038
H26   H     H_    0.830930 0.488423 0.658747 0.067644
H27   H     H_    0.625455 0.375368 0.856049 0.111865
H28   H     H_    0.889928 0.384478 0.198924 0.099140
H29   H     H_    0.618496 0.558432 0.128156 0.116362
H30   H     H_    0.357162 0.518861 0.343990 0.072730
H31   H     H_    0.725095 0.364424 0.970723 0.075507
H32   H     H_    0.794216 0.376864 0.078854 0.066514
H33   H     H_    0.388803 0.609953 0.937209 0.129384
H34   H     H_    0.076064 0.227247 0.345892 0.053956
H35   H     H_    0.245408 0.674235 0.277048 -0.008843
H36   H     H_    0.474417 0.140219 0.450755 0.088335
H37   H     H_    0.305062 0.886680 0.422277 0.086222
H38   H     H_    0.916874 0.104398 0.560460 0.122827
H39   H     H_    0.731531 0.845622 0.540599 0.112738
H40   H     H_    0.351563 0.656662 0.469763 0.063151
H41   H     H_    0.957964 0.687026 0.175488 0.170500
H42   H     H_    0.150334 0.749430 0.182888 0.164306
H43   H     H_    0.303780 0.730778 0.609907 0.042356
H44   H     H_    0.106864 0.683259 0.576413 0.032403
H45   H     H_    0.220104 0.310804 0.352294 0.074135
H46   H     H_    0.432159 0.872175 0.681667 0.355550
H47   H     H_    0.965991 0.917150 0.344150 0.369462
H48   H     H_    0.574423 0.756112 0.166101 0.227139
H49   H     H_    0.457605 0.829392 0.187977 0.214466
H50   H     H_    0.409266 0.135802 0.633421 0.215034
H51   H     H_    0.344614 0.173000 0.715070 0.241076
H52   H     H_    0.476390 0.638119 0.779407 0.300201
H53   H     H_    0.533871 0.503628 0.939340 0.182686
H54   H     H_    0.617355 0.590758 0.991557 0.191753
H55   H     H_    0.019113 0.332082 0.470981 0.195141
H56   H     H_    0.035265 0.218194 0.213173 0.138856
H57   H     H_    0.854754 0.349889 0.434933 0.199998
H58   H     H_    0.242091 0.208867 0.240273 0.122679
H59   H     H_    0.191334 0.300041 0.216161 0.073918
H60   H     H_    0.841002 0.631091 0.653185 -0.018580
N1    N     N_3   0.494073 0.778894 0.203910 -0.513815
N2    N     N_3   0.432313 0.141061 0.688865 -0.419652
N3    N     N_3   0.572592 0.532014 0.991262 -0.510113
N4    N     N_3   0.899705 0.340533 0.484047 -0.432601
O1    O     O_2   0.878040 0.448040 0.325130 -0.462077
O2    O     O_2   0.249547 0.233220 0.557389 -0.485169
O3    O     O_3   0.088586 0.241240 0.674135 -0.609815
O4    O     O_3   0.126800 0.453980 0.414370 -0.480142
O5    O     O_3   0.569440 0.593820 0.536390 -0.480728
O6    O     O_2   0.359400 0.311980 0.465480 -0.473969
O7    O     O_3   0.508003 0.282780 0.341295 -0.648447
O8    O     O_2   0.432844 0.460418 0.760108 -0.527595
O9    O     O_3   0.512874 0.315676 0.735289 -0.614226
O10   O     O_3   0.651020 0.589120 0.368830 -0.475081
O11   O     O_2   0.772101 0.533571 0.243728 -0.507561
O12   O     O_3   0.667122 0.708021 0.649455 -0.602962
O13   O     O_3   0.982882 0.324653 0.324291 -0.638648
O14   O     O_3   0.680256 0.674071 0.254603 -0.604710
O15   O     O_2   0.830300 0.688050 0.534560 -0.494509
O16   O     O_3   0.068750 0.630380 0.404830 -0.502478
O17   O     O_2   0.971598 0.770104 0.447253 -0.422338
O18   O     O_2   0.146447 0.888142 0.553141 -0.290695
O19   O     O_2   0.161042 0.951586 0.678984 -0.246770
O20   O     O_3   0.406139 0.880032 0.632108 -0.531953
O21   O     O_2   0.868928 0.829447 0.215039 -0.276417
O22   O     O_2   0.717021 0.942355 0.251134 -0.273623
O23   O     O_3   0.066648 0.744144 0.314707 -0.546527
O24   O     O_3   0.861601 0.886555 0.351692 -0.524662
O25   O     O_2   0.137919 0.724249 0.816767 -0.287644
O26   O     O_2   0.360436 0.734146 0.904481 -0.264254
O27   O     O_3   0.418344 0.683633 0.773243 -0.468328
O28   O     O_2   0.311660 0.551990 0.674910 -0.442246
O29   O     O_3   0.062910 0.546080 0.585630 -0.499963
O30   O     O_3   0.538690 0.410940 0.631180 -0.458340
O31   O     O_3   0.180247 0.676968 0.682653 -0.555108
O32   O     O_3   0.620260 0.406250 0.463620 -0.472377
O33   O     O_3   0.120960 0.369680 0.595180 -0.479903
P1    P     P_3+3 0.048060 0.426210 0.336320 0.961230
P2    P     P_3+3 0.655920 0.678120 0.556130 1.013764
P3    P     P_3+3 0.104905 0.730619 0.403236 1.027988
P4    P     P_3+3 0.141640 0.573850 0.663690 1.054231
P5    P     P_3+3 0.094582 0.266211 0.588209 0.966750
P6    P     P_3+3 0.633631 0.579833 0.275428 0.963286
P7    P     P_3+3 0.535031 0.308292 0.435287 0.949145
P8    P     P_3+3 0.565075 0.412963 0.723156 0.921149
S1    S     S_3+6 0.203358 0.881218 0.627561 -0.078013
S2    S     S_3+6 0.761624 0.866796 0.270720 -0.068911
S3    S     S_3+6 0.280996 0.685284 0.836320 -0.048906

loop_
_geom_bond_atom_site_label_1
_geom_bond_atom_site_label_2
_ccdc_geom_bond_type
O8    P8    D    
Ba2   O28   S    
C29   P6    S    
Ba2   O33   S    
C4    H24   S    
H48   N1    S    
H53   N3    S    
O26   S3    D    
H50   N2    S    
C17   C18   A    
C23   H9    S    
Ba1   O10   S    
C23   O7    S    
C35   H39   S    
C25   N3    S    
O3    P5    S    
C36   C47   S    
C51   C52   S    
C42   C43   A    
C5    C9    A    
C12   H1    S    
C11   H26   S    
C24   C25   A    
C54   H21   S    
C32   C38   A    
C15   C24   A    
C6    H27   S    
C38   P3    S    
C26   C27   A    
C33   C35   A    
C22   C24   A    
C32   C33   A    
O20   S1    S    
C36   C37   A    
C53   H19   S    
C40   S1    S    
C25   C27   A    
C52   H5    S    
C49   H45   S    
C13   C14   A    
C30   H30   S    
C9    C22   A    
C40   H12   S    
C54   H20   S    
C54   C55   S    
Ba1   Ba2   S    
O10   P6    S    
O21   S2    D    
C15   C17   A    
C23   H8    S    
C49   O13   S    
C28   O31   S    
H55   N4    S    
C39   H36   S    
O17   P3    D    
C6    C7    A    
C48   N4    S    
C21   C22   A    
C55   H25   S    
C7    C8    A    
O5    P2    S    
C5    C56   A    
C34   H13   S    
C15   C56   A    
O14   P6    S    
C53   H17   S    
C50   H59   S    
H52   O27   S    
Ba2   O32   S    
H57   N4    S    
C16   H14   S    
C39   C41   A    
C55   H22   S    
C1    H7    S    
C40   H23   S    
C16   H42   S    
H49   N1    S    
C51   H2    S    
C45   O3    S    
C2    H32   S    
O1    P1    D    
C50   H58   S    
Ba2   O30   S    
C4    C16   S    
C44   C46   S    
C31   P1    S    
O28   P4    D    
O27   S3    S    
C49   C50   S    
C54   O9    S    
Ba1   O4    S    
C45   H15   S    
C37   C38   A    
C3    C5    A    
C4    O23   S    
C51   H60   S    
Ba2   P4    S    
C52   H4    S    
C43   C44   A    
O13   P1    S    
O29   P4    S    
O31   P4    S    
Ba1   P1    S    
Ba1   O1    S    
C13   P4    S    
C35   C36   A    
O25   S3    D    
C49   H34   S    
O16   P3    S    
C29   C30   A    
O9    P8    S    
C39   C44   A    
C4    H35   S    
C12   H6    S    
C28   H44   S    
O6    P7    D    
C18   C19   A    
C17   C26   A    
C37   H37   S    
C1    C12   S    
C1    N1    S    
C55   N2    S    
C18   C31   A    
Ba2   O4    S    
C46   C47   T    
O24   S2    S    
C11   C13   A    
C42   P5    S    
C21   H33   S    
C16   H41   S    
C53   H18   S    
C33   P2    S    
Ba1   O15   S    
C34   H11   S    
C1    S2    S    
C45   C53   S    
C42   C48   A    
Ba2   O29   S    
C19   H28   S    
C14   C20   A    
O33   P5    S    
O32   P7    S    
C26   C29   A    
C51   O12   S    
Ba1   O5    S    
C45   H16   S    
O11   P6    D    
C3    C6    A    
C34   H10   S    
C41   C48   A    
C52   H3    S    
C50   H56   S    
O18   S1    D    
O15   P2    D    
O22   S2    D    
C30   C31   A    
Ba1   P2    S    
H54   N3    S    
C8    C14   A    
Ba2   O5    S    
C10   P8    S    
C2    C19   A    
C12   O14   S    
H47   O24   S    
O2    P5    D    
C28   H43   S    
C32   H40   S    
O7    P7    S    
Ba1   O29   S    
H46   O20   S    
Ba1   O32   S    
C7    C10   A    
C3    H31   S    
C27   H29   S    
O30   P8    S    
C8    C9    A    
C23   C34   S    
C20   S3    S    
C41   P7    S    
O12   P2    S    
C10   C11   A    
O19   S1    D    
C2    C56   A    
C20   C21   A    
C28   C40   S    
C43   H38   S    
O23   P3    S    
Ba1   O16   S    
H51   N2    S    
O4    P1    S    
Ba2   O6    S    
