data_mof_unit_40334.cif
_audit_creation_date              2012-12-10T21:14:47-0500
_audit_creation_method            fapswitch 2.2
_symmetry_space_group_name_H-M    P1
_symmetry_Int_Tables_number       1
_space_group_crystal_system       triclinic
_cell_length_a                    17.604184
_cell_length_b                    17.06763
_cell_length_c                    11.502505
_cell_angle_alpha                 89.979815
_cell_angle_beta                  94.096892
_cell_angle_gamma                 89.977727
_cell_volume                      3447.23026936

loop_
_atom_site_label
_atom_site_type_symbol
_atom_type_description
_atom_site_fract_x
_atom_site_fract_y
_atom_site_fract_z
_atom_type_partial_charge
C1    C     C_R   0.353619 0.500015 0.499287 0.905763
C2    C     C_R   0.112698 0.498613 0.473668 -0.034683
C3    C     C_1   0.964795 0.499608 0.469943 0.176987
C4    C     C_1   0.032218 0.498909 0.469686 0.177044
C5    C     C_R   0.499963 0.499991 0.282040 0.925568
C6    C     C_R   0.500041 0.499969 0.717960 0.927761
C7    C     C_R   0.492599 0.832915 0.395823 -0.225837
C8    C     C_R   0.530969 0.165943 0.596046 -0.191435
C9    C     C_R   0.507319 0.832811 0.604302 -0.226363
C10   C     C_R   0.468958 0.165998 0.404057 -0.190958
C11   C     C_R   0.478989 0.750436 0.399922 0.360709
C12   C     C_R   0.646252 0.499985 0.499070 0.909391
C13   C     C_R   0.536218 0.249900 0.592468 0.408207
C14   C     C_R   0.521016 0.750342 0.600098 0.360878
C15   C     C_R   0.463748 0.249961 0.407571 0.407638
C16   C     C_1   0.499938 0.963583 0.500098 0.167671
C17   C     C_1   0.499944 0.035732 0.500088 0.122688
C18   C     C_1   0.500016 0.499892 0.161599 -0.033876
C19   C     C_1   0.500009 0.499833 0.838406 -0.034395
C20   C     C_1   0.500022 0.499794 0.059327 0.093151
C21   C     C_1   0.500016 0.499764 0.940680 0.093303
C22   C     C_R   0.499943 0.876296 0.500082 -0.129254
C23   C     C_R   0.769715 0.568509 0.515754 -0.177614
C24   C     C_R   0.499957 0.123330 0.500064 -0.165725
C25   C     C_R   0.848361 0.569444 0.509393 -0.037533
C26   C     C_R   0.152588 0.428181 0.500155 -0.035085
C27   C     C_R   0.151681 0.569580 0.456270 -0.034706
C28   C     C_R   0.842988 0.431090 0.447795 -0.028715
C29   C     C_2   0.499261 0.872199 0.281886 1.054695
C30   C     C_2   0.557816 0.121415 0.701523 1.091471
C31   C     C_2   0.500617 0.871958 0.718306 1.054494
C32   C     C_2   0.442063 0.121520 0.298627 1.091604
C33   C     C_2   0.890337 0.643075 0.541476 0.958017
C34   C     C_R   0.231835 0.429691 0.507441 -0.173805
C35   C     C_2   0.113871 0.352450 0.522070 0.950150
C36   C     C_2   0.111866 0.644539 0.424327 0.962068
C37   C     C_2   0.878721 0.357759 0.406975 0.952940
C38   C     C_R   0.230910 0.569391 0.468698 -0.174872
C39   C     C_R   0.764835 0.431549 0.459540 -0.185317
C40   C     C_R   0.728272 0.499864 0.492483 -0.071369
C41   C     C_R   0.270892 0.499869 0.492962 -0.072891
C42   C     C_R   0.884716 0.500332 0.474321 -0.034347
H1    H     H_    0.740935 0.621085 0.541937 0.216326
H2    H     H_    0.675235 0.253555 0.847176 0.399109
H3    H     H_    0.668202 0.796323 0.718446 0.365563
H4    H     H_    0.324377 0.254018 0.153215 0.399024
H5    H     H_    0.986416 0.694363 0.611059 0.371434
H6    H     H_    0.024203 0.296098 0.583497 0.372382
H7    H     H_    0.020556 0.698767 0.344191 0.371055
H8    H     H_    0.961948 0.307195 0.320973 0.371145
H9    H     H_    0.263237 0.376115 0.527290 0.205178
H10   H     H_    0.261536 0.623429 0.456148 0.217252
H11   H     H_    0.731947 0.378990 0.439320 0.202648
H12   H     H_    0.465868 0.959204 0.172019 0.357980
H13   H     H_    0.547071 0.100640 0.872208 0.354568
H14   H     H_    0.533623 0.959071 0.828083 0.358011
H15   H     H_    0.452744 0.100767 0.127938 0.354402
H16   H     H_    0.331823 0.796255 0.280940 0.365750
N1    N     N_R   0.500000 0.707230 0.500000 -0.187788
N2    N     N_R   0.500000 0.292770 0.500000 -0.208048
O1    O     O_R   0.389110 0.566570 0.499990 -0.597352
O2    O     O_R   0.457556 0.939776 0.253418 -0.760641
O3    O     O_2   0.612481 0.077430 0.698375 -0.529994
O4    O     O_R   0.521932 0.131793 0.804975 -0.742330
O5    O     O_2   0.459573 0.843514 0.788632 -0.527687
O6    O     O_R   0.541953 0.939742 0.746654 -0.760882
O7    O     O_2   0.387369 0.077621 0.301835 -0.529708
O8    O     O_R   0.477929 0.131857 0.195146 -0.741794
O9    O     O_2   0.474535 0.685618 0.186331 -0.207023
O10   O     O_2   0.373341 0.644715 0.309211 -0.298222
O11   O     O_3   0.365279 0.781832 0.218626 -0.481489
O12   O     O_R   0.610890 0.433430 0.500010 -0.588723
O13   O     O_2   0.630588 0.368144 0.687720 -0.269924
O14   O     O_2   0.537523 0.309097 0.808929 -0.274816
O15   O     O_3   0.659784 0.233080 0.768442 -0.521520
O16   O     O_2   0.526007 0.685315 0.813672 -0.207479
O17   O     O_2   0.627024 0.644670 0.690252 -0.296202
O18   O     O_3   0.634963 0.781720 0.780953 -0.481285
O19   O     O_2   0.369470 0.368375 0.312106 -0.273985
O20   O     O_2   0.462422 0.309063 0.190985 -0.274039
O21   O     O_3   0.340094 0.233326 0.231755 -0.519783
O22   O     O_2   0.858912 0.706494 0.525297 -0.583398
O23   O     O_R   0.610890 0.566570 0.500010 -0.596311
O24   O     O_R   0.964590 0.640362 0.593326 -0.792314
O25   O     O_2   0.144238 0.290616 0.498022 -0.566863
O26   O     O_R   0.044154 0.351195 0.573157 -0.792968
O27   O     O_2   0.141837 0.707122 0.451959 -0.587776
O28   O     O_R   0.041360 0.644105 0.360069 -0.785869
O29   O     O_2   0.850243 0.294180 0.426729 -0.574378
O30   O     O_R   0.943454 0.361009 0.343380 -0.788008
O31   O     O_R   0.389110 0.433430 0.499990 -0.590064
O32   O     O_R   0.500000 0.566540 0.334450 -0.559781
O33   O     O_R   0.500000 0.433460 0.665550 -0.563426
O34   O     O_R   0.500000 0.566540 0.665550 -0.559885
O35   O     O_R   0.500000 0.433460 0.334450 -0.564240
O36   O     O_2   0.540570 0.844027 0.211702 -0.527429
S1    S     S_3+6 0.423008 0.711561 0.277639 0.095349
S2    S     S_3+6 0.590594 0.293887 0.714658 0.077011
S3    S     S_3+6 0.577288 0.711414 0.722123 0.096153
S4    S     S_3+6 0.409371 0.294018 0.285338 0.075984
Zn1   Zn    Zn3+2 0.500000 0.588860 0.500000 1.096509
Zn2   Zn    Zn3+2 0.500000 0.411140 0.500000 1.097174

loop_
_geom_bond_atom_site_label_1
_geom_bond_atom_site_label_2
_ccdc_geom_bond_type
C31   O6    S    
C3    C42   S    
C8    C13   A    
C7    C29   S    
C30   O4    S    
C15   N2    A    
O1    Zn1   S    
C15   S4    S    
C14   S3    S    
O14   S2    D    
C13   N2    A    
C36   O28   S    
O16   S3    D    
C7    C11   A    
C14   N1    A    
O11   S1    S    
C34   H9    S    
C37   O30   S    
C19   C21   T    
C10   C15   A    
C35   O26   S    
C11   N1    A    
C9    C22   A    
C38   H10   S    
C27   C38   A    
C23   C40   A    
C23   H1    S    
C13   S2    S    
C26   C34   A    
O34   Zn1   S    
C16   C17   T    
C6    O34   A    
H3    O18   S    
C33   O22   D    
O35   Zn2   S    
C32   O8    S    
C12   O12   A    
C1    O31   A    
C30   O3    D    
O20   S4    D    
H7    O28   S    
C34   C41   A    
N2    Zn2   S    
C25   C42   A    
C5    O35   A    
H8    O30   S    
C36   O27   D    
O13   S2    D    
C17   C24   S    
N1    Zn1   S    
O19   S4    D    
C38   C41   A    
C39   C40   A    
C5    C18   S    
H12   O2    S    
C28   C39   A    
C10   C24   A    
O15   S2    S    
C12   O23   A    
C12   C40   S    
H2    O15   S    
C2    C4    S    
C9    C14   A    
C6    C19   S    
H4    O21   S    
C6    O33   A    
H13   O4    S    
C2    C26   A    
H5    O24   S    
C2    C27   A    
O32   Zn1   S    
C32   O7    D    
C1    C41   S    
H6    O26   S    
O31   Zn2   S    
C3    C4    T    
C31   O5    D    
C29   O2    S    
C16   C22   S    
O23   Zn1   S    
C1    O1    A    
O33   Zn2   S    
C29   O36   D    
O10   S1    D    
O21   S4    S    
C27   C36   S    
C7    C22   A    
C37   O29   D    
C11   S1    S    
C8    C30   S    
C35   O25   D    
C39   H11   S    
O12   Zn2   S    
C28   C37   S    
H14   O6    S    
C28   C42   A    
C8    C24   A    
O17   S3    D    
C18   C20   T    
C23   C25   A    
H16   O11   S    
C33   O24   S    
C5    O32   A    
C9    C31   S    
C10   C32   S    
C26   C35   S    
C20   C21   S    
O18   S3    S    
H15   O8    S    
C25   C33   S    
O9    S1    D    
