data_mof_unit_36523.cif
_audit_creation_date              2012-12-10T18:05:57-0500
_audit_creation_method            fapswitch 2.2
_symmetry_space_group_name_H-M    P1
_symmetry_Int_Tables_number       1
_space_group_crystal_system       triclinic
_cell_length_a                    12.612773
_cell_length_b                    13.111448
_cell_length_c                    14.951634
_cell_angle_alpha                 89.507758
_cell_angle_beta                  102.061017
_cell_angle_gamma                 82.320959
_cell_volume                      2394.61135557

loop_
_atom_site_label
_atom_site_type_symbol
_atom_type_description
_atom_site_fract_x
_atom_site_fract_y
_atom_site_fract_z
_atom_type_partial_charge
C1    C     C_R   0.437939 0.691714 0.489480 0.899137
C2    C     C_R   0.435842 0.574777 0.802449 -0.056406
C3    C     C_R   0.500520 0.495277 0.768592 -0.110137
C4    C     C_R   0.500766 0.498380 0.672537 0.879039
C5    C     C_R   0.561414 0.411990 0.824640 -0.028059
C6    C     C_R   0.707894 0.059366 0.455375 -0.144811
C7    C     C_R   0.600462 0.198361 0.514761 -0.334987
C8    C     C_R   0.314007 0.834085 0.539125 -0.340297
C9    C     C_R   0.328237 0.915615 0.597911 0.541357
C10   C     C_R   0.415036 0.971144 0.599167 0.697524
C11   C     C_R   0.477076 0.957972 0.530166 -0.163212
C12   C     C_R   0.554313 0.405068 0.104183 -0.031567
C13   C     C_R   0.466908 0.872106 0.474221 -0.089334
C14   C     C_R   0.549281 0.026605 0.515114 -0.069232
C15   C     C_R   0.629405 0.995399 0.463259 -0.147965
C16   C     C_R   0.561436 0.308480 0.511134 1.005516
C17   C     C_R   0.620480 0.908572 0.410027 0.562464
C18   C     C_R   0.530871 0.855227 0.406481 -0.073468
C19   C     C_R   0.532767 0.130434 0.537033 0.653011
C20   C     C_R   0.694651 0.160586 0.482720 0.540142
C21   C     C_R   0.396996 0.802160 0.490523 -0.060295
C22   C     C_R   0.075021 0.403062 0.336986 0.531551
C23   C     C_R   0.350733 0.640335 0.021307 -0.215299
C24   C     C_R   0.812693 0.581395 0.635932 -0.006962
C25   C     C_R   0.921033 0.549845 0.680708 -0.262328
C26   C     C_R   0.994973 0.502795 0.632266 0.712649
C27   C     C_R   0.964566 0.500124 0.536285 -0.018491
C28   C     C_R   0.500196 0.498323 0.327697 0.821986
C29   C     C_R   0.852042 0.526887 0.494084 0.052852
C30   C     C_R   0.040901 0.471285 0.480690 -0.183179
C31   C     C_R   0.001413 0.445845 0.389131 -0.204270
C32   C     C_R   0.891777 0.477319 0.347847 0.044067
C33   C     C_R   0.822450 0.532190 0.397874 -0.037873
C34   C     C_R   0.351253 0.639999 0.928108 0.698222
C35   C     C_R   0.153669 0.478329 0.507862 0.715177
C36   C     C_R   0.186531 0.400179 0.371769 0.581784
C37   C     C_R   0.567351 0.413665 0.199608 -0.106839
C38   C     C_R   0.499887 0.491868 0.232206 -0.076604
C39   C     C_R   0.424933 0.562213 0.173826 -0.130422
C40   C     C_R   0.421747 0.564182 0.080466 -0.016187
C41   C     C_R   0.487577 0.484812 0.045237 0.015126
C42   C     C_2   0.649281 0.343131 0.266304 0.605035
C43   C     C_2   0.215125 0.782584 0.533106 0.605629
C44   C     C_2   0.498141 0.793008 0.325106 0.429897
C45   C     C_R   0.424733 0.567801 0.893655 -0.031142
C46   C     C_2   0.739929 0.646774 0.684581 0.531729
C47   C     C_2   0.741805 0.618236 0.350864 0.505575
C48   C     C_2   0.278141 0.723432 0.055387 0.579397
C49   C     C_2   0.392372 0.669592 0.743859 0.533418
C50   C     C_2   0.649183 0.344007 0.792325 0.404844
C51   C     C_2   0.618371 0.210200 0.932258 0.547722
C52   C     C_R   0.486533 0.484796 0.951257 -0.001471
C53   C     C_R   0.548322 0.402400 0.915505 -0.085985
C54   C     C_R   0.592135 0.312149 0.971573 -0.233277
C55   C     C_R   0.597957 0.315674 0.065763 0.707546
F1    F     F_    0.688820 0.885821 0.351422 -0.651093
F2    F     F_    0.633625 0.227300 0.117784 -0.571331
F3    F     F_    0.766005 0.224012 0.466894 -0.607398
F4    F     F_    0.440336 0.170047 0.564948 -0.572638
F5    F     F_    0.441166 0.032724 0.670737 -0.539544
F6    F     F_    0.260637 0.938997 0.656809 -0.557626
F7    F     F_    0.258615 0.361662 0.320862 -0.576157
F8    F     F_    0.039438 0.371046 0.251106 -0.559530
F9    F     F_    0.192787 0.533493 0.580631 -0.606491
F10   F     F_    0.093965 0.458032 0.680286 -0.577865
F11   F     F_    0.277602 0.709500 0.871149 -0.565170
H1    H     H_    0.773696 0.034513 0.420716 0.254312
H2    H     H_    0.303941 0.755698 0.121537 0.089486
H3    H     H_    0.346717 0.663917 0.674740 0.047901
H4    H     H_    0.728815 0.324199 0.837637 0.111671
H5    H     H_    0.574330 0.193364 0.864783 0.113575
H6    H     H_    0.865690 0.474065 0.274214 0.235133
H7    H     H_    0.370430 0.615924 0.203273 0.168011
H8    H     H_    0.948334 0.561010 0.753157 0.236943
H9    H     H_    0.629187 0.318249 0.329238 0.050749
H10   H     H_    0.172896 0.785540 0.589473 0.129479
H11   H     H_    0.554300 0.771497 0.280527 0.154941
H12   H     H_    0.666217 0.692373 0.646971 0.087364
H13   H     H_    0.703494 0.674517 0.391135 0.077424
N1    N     N_R   0.222190 0.444670 0.452360 -0.242851
N2    N     N_R   0.776970 0.554790 0.547140 -0.187039
O1    O     O_R   0.366740 0.627160 0.477250 -0.554564
O2    O     O_2   0.176080 0.741441 0.463242 -0.510126
O3    O     O_2   0.405399 0.771132 0.303227 -0.592761
O4    O     O_2   0.762551 0.652271 0.767762 -0.530840
O5    O     O_2   0.718318 0.627973 0.267434 -0.556161
O6    O     O_2   0.188370 0.757628 0.009272 -0.419446
O7    O     O_2   0.412939 0.753738 0.771166 -0.472651
O8    O     O_2   0.632236 0.306306 0.717264 -0.545283
O9    O     O_2   0.689014 0.144160 0.974473 -0.414602
O10   O     O_R   0.544830 0.662520 0.507680 -0.690165
O11   O     O_R   0.410940 0.482340 0.616930 -0.542512
O12   O     O_R   0.589030 0.517700 0.647360 -0.633493
O13   O     O_R   0.455170 0.337480 0.492320 -0.535346
O14   O     O_R   0.633260 0.372840 0.522750 -0.544690
O15   O     O_R   0.410970 0.482300 0.352640 -0.543293
O16   O     O_R   0.589060 0.517660 0.383070 -0.660916
O17   O     O_2   0.741119 0.316096 0.253321 -0.451973
Zn1   Zn    Zn3+2 0.381090 0.476390 0.479680 1.136750
Zn2   Zn    Zn3+2 0.618910 0.523610 0.520320 0.977518

loop_
_geom_bond_atom_site_label_1
_geom_bond_atom_site_label_2
_ccdc_geom_bond_type
C28   O16   A    
C1    C21   S    
C27   C29   A    
C43   O2    D    
O1    Zn1   S    
C8    C43   S    
C47   H13   S    
C34   F11   S    
C32   H6    S    
C53   C54   A    
C26   C27   A    
C12   C41   A    
C13   C18   A    
C9    F6    S    
C5    C53   A    
C44   H11   S    
C42   O17   D    
C51   O9    D    
C30   C31   A    
C11   C14   A    
C23   C40   A    
O15   Zn1   S    
C29   C33   A    
C35   N1    A    
C12   C37   A    
C25   H8    S    
C37   C42   S    
C22   F8    S    
C8    C9    A    
C35   F9    S    
O10   Zn2   S    
C9    C10   A    
C41   C52   A    
C46   O4    D    
C6    C15   A    
C1    O10   A    
C49   H3    S    
C27   C30   A    
C49   O7    D    
C51   H5    S    
C36   F7    S    
C8    C21   A    
C2    C45   A    
C22   C31   A    
C47   O5    D    
C24   C25   A    
C36   N1    A    
C39   C40   A    
C46   H12   S    
O14   Zn2   S    
C45   C52   A    
C19   F4    S    
C1    O1    A    
C10   F5    S    
C24   N2    A    
C29   N2    A    
C37   C38   A    
C2    C49   S    
C18   C44   S    
C50   O8    D    
C31   C32   A    
O12   Zn2   S    
C28   C38   S    
C23   C34   A    
C17   C18   A    
C42   H9    S    
C48   O6    D    
C13   C21   A    
C34   C45   A    
C48   H2    S    
C17   F1    S    
C30   C35   A    
C6    H1    S    
C7    C19   A    
C55   F2    S    
N1    Zn1   S    
C33   C47   S    
C5    C50   S    
C20   F3    S    
C3    C4    S    
O16   Zn2   S    
C6    C20   A    
C52   C53   A    
C43   H10   S    
C15   C17   A    
C54   C55   A    
C7    C16   S    
C16   O14   A    
C23   C48   S    
C26   F10   S    
C14   C19   A    
C3    C5    A    
N2    Zn2   S    
C22   C36   A    
C16   O13   A    
C44   O3    D    
C28   O15   A    
C51   C54   S    
C24   C46   S    
C32   C33   A    
C2    C3    A    
C25   C26   A    
C11   C13   A    
C38   C39   A    
O13   Zn1   S    
C39   H7    S    
C50   H4    S    
C12   C55   A    
C10   C11   A    
C4    O12   A    
C7    C20   A    
C14   C15   A    
C40   C41   A    
O11   Zn1   S    
C4    O11   A    
