data_mof_unit_5636.cif
_audit_creation_date              2012-10-26T17:12:25-0400
_audit_creation_method            fapswitch 2.2
_symmetry_space_group_name_H-M    P1
_symmetry_Int_Tables_number       1
_space_group_crystal_system       triclinic
_cell_length_a                    16.888011
_cell_length_b                    16.728386
_cell_length_c                    16.831808
_cell_angle_alpha                 68.34892
_cell_angle_beta                  67.922536
_cell_angle_gamma                 68.309256
_cell_volume                      3945.64489681

loop_
_atom_site_label
_atom_site_type_symbol
_atom_type_description
_atom_site_fract_x
_atom_site_fract_y
_atom_site_fract_z
_atom_type_partial_charge
C1    C     C_R   0.014294 0.831232 0.569582 0.575809
C2    C     C_R   0.028400 0.564391 0.827803 0.583998
C3    C     C_3   0.427663 0.711575 0.219561 -0.104281
C4    C     C_3   0.889073 0.679683 0.181570 -0.065051
C5    C     C_3   0.201209 0.415566 0.678528 -0.153352
C6    C     C_3   0.795608 0.888709 0.758924 -0.101307
C7    C     C_3   0.216729 0.097471 0.212718 -0.039437
C8    C     C_3   0.173755 0.713419 0.663126 -0.093259
C9    C     C_3   0.894903 0.256113 0.245822 -0.064972
C10   C     C_3   0.794771 0.784518 0.963515 -0.081227
C11   C     C_3   0.270018 0.270711 0.866465 -0.064458
C12   C     C_R   0.167525 0.988708 0.430018 0.567181
C13   C     C_R   0.828609 0.026323 0.565472 0.588744
C14   C     C_R   0.488420 0.960773 0.730422 0.292590
C15   C     C_R   0.540758 0.943587 0.296059 0.302736
C16   C     C_R   0.919574 0.741895 0.521441 0.293445
C17   C     C_R   0.917880 0.295615 0.551608 0.293083
C18   C     C_R   0.738498 0.514479 0.930655 0.291073
C19   C     C_R   0.289245 0.541810 0.964898 0.296162
C20   C     C_R   0.265241 0.047978 0.509452 0.291659
C21   C     C_R   0.970831 0.171751 0.435777 0.565785
C22   C     C_R   0.697690 0.075762 0.458575 0.311668
C23   C     C_R   0.548831 0.300646 0.913397 0.294217
C24   C     C_R   0.461960 0.689571 0.083806 0.288264
C25   C     C_R   0.908031 0.553623 0.301042 0.290453
C26   C     C_R   0.052289 0.457956 0.700380 0.323321
C27   C     C_R   0.545204 0.016883 0.546134 0.015219
C28   C     C_R   0.449032 0.004169 0.448517 0.023074
C29   C     C_R   0.972024 0.556069 0.562095 0.009906
C30   C     C_R   0.942623 0.465151 0.467954 0.018965
C31   C     C_R   0.554596 0.548214 0.002245 0.016050
C32   C     C_R   0.832008 0.569947 0.013920 0.600973
C33   C     C_R   0.460718 0.455042 0.976044 0.018962
C34   C     C_R   0.582375 0.023977 0.454480 -0.034372
C35   C     C_R   0.407111 0.013709 0.535408 -0.030176
C36   C     C_R   0.982906 0.463160 0.594127 -0.035248
C37   C     C_R   0.931832 0.557926 0.435335 -0.015221
C38   C     C_R   0.461294 0.574346 0.027352 -0.030798
C39   C     C_R   0.553997 0.424934 0.955807 -0.017113
C40   C     C_R   0.539195 0.002655 0.410105 -0.019364
C41   C     C_R   0.459386 0.004800 0.588008 -0.028798
C42   C     C_R   0.415477 0.533343 0.005556 -0.029201
C43   C     C_R   0.171586 0.434555 0.974521 0.575725
C44   C     C_R   0.601550 0.476283 0.962251 -0.024285
C45   C     C_R   0.957912 0.420297 0.552403 -0.034966
C46   C     C_R   0.938813 0.604809 0.487144 -0.020992
C47   C     C_R   0.431959 0.975698 0.680762 -0.113879
C48   C     C_R   0.585068 0.970624 0.334693 -0.132330
C49   C     C_R   0.909293 0.698352 0.470369 -0.120382
C50   C     C_R   0.940264 0.336876 0.595415 -0.112130
C51   C     C_R   0.693613 0.463652 0.923246 -0.114308
C52   C     C_R   0.328885 0.576060 0.999265 -0.121678
C53   C     C_R   0.314542 0.037232 0.564777 -0.115276
C54   C     C_R   0.569866 0.011724 0.832401 0.584490
C55   C     C_R   0.657990 0.056246 0.410536 -0.113776
C56   C     C_R   0.596749 0.348458 0.923532 -0.127676
C57   C     C_R   0.416360 0.641893 0.072229 -0.110238
C58   C     C_R   0.910831 0.601028 0.353976 -0.120262
C59   C     C_R   0.024307 0.414894 0.662693 -0.106073
C60   C     C_R   0.563275 0.996714 0.690138 -0.050136
C61   C     C_R   0.446088 0.970008 0.320319 -0.016181
C62   C     C_R   0.974689 0.694614 0.578717 -0.036017
C63   C     C_R   0.935119 0.326172 0.457130 -0.058743
C64   C     C_R   0.694299 0.573387 0.985467 -0.043023
C65   C     C_R   0.433770 0.976414 0.170845 0.589854
C66   C     C_R   0.321677 0.450452 0.964239 -0.038168
C67   C     C_R   0.307165 0.012651 0.433886 -0.046925
C68   C     C_R   0.675529 0.043811 0.552689 -0.038794
C69   C     C_R   0.454840 0.325528 0.944404 -0.015118
C70   C     C_R   0.554810 0.673940 0.045441 -0.053532
C71   C     C_R   0.931573 0.458397 0.328469 -0.018225
C72   C     C_R   0.026851 0.552204 0.680520 -0.032260
C73   C     C_R   0.610390 0.006085 0.739115 -0.018569
C74   C     C_R   0.394828 0.974362 0.266667 -0.011148
C75   C     C_R   0.009932 0.737020 0.612034 -0.025638
C76   C     C_R   0.435865 0.171816 0.970987 0.583122
C77   C     C_R   0.949467 0.271402 0.402447 -0.034227
C78   C     C_R   0.739816 0.613643 0.008731 -0.012975
C79   C     C_R   0.270149 0.400421 0.961093 -0.026569
C80   C     C_R   0.259878 0.997524 0.388576 -0.030270
C81   C     C_R   0.731777 0.031951 0.604332 -0.026431
C82   C     C_R   0.401918 0.271471 0.953283 -0.005285
C83   C     C_R   0.603655 0.731192 0.038086 -0.013007
C84   C     C_R   0.947967 0.403282 0.272334 -0.009105
C85   C     C_R   0.037627 0.599596 0.729543 -0.015636
C86   C     C_R   0.698652 0.009368 0.697866 0.196303
C87   C     C_R   0.564736 0.828604 0.028122 0.589247
C88   C     C_R   0.301652 0.991630 0.300806 0.191157
C89   C     C_R   0.043563 0.687487 0.686470 0.195278
C90   C     C_R   0.953440 0.311056 0.311221 0.191290
C91   C     C_R   0.695752 0.697244 0.027326 0.214129
C92   C     C_R   0.311701 0.311453 0.955411 0.186638
C93   C     C_R   0.594497 0.019865 0.596405 -0.083562
C94   C     C_R   0.400673 0.995562 0.400646 -0.070206
C95   C     C_R   0.992159 0.600850 0.606536 -0.089112
C96   C     C_R   0.937049 0.416422 0.417263 -0.070499
C97   C     C_R   0.601147 0.597635 0.012477 -0.080288
C98   C     C_R   0.969741 0.436170 0.172202 0.596047
C99   C     C_R   0.411956 0.409301 0.963317 -0.071086
C100  C     C_3   0.538161 0.819679 0.812182 -0.114105
C101  C     C_3   0.674215 0.879258 0.202168 -0.081140
C102  C     C_3   0.775646 0.823315 0.562790 -0.138659
C103  C     C_3   0.786918 0.259652 0.598572 -0.112444
C104  C     C_3   0.811263 0.590684 0.796258 -0.127699
C105  C     C_3   0.284482 0.633625 0.827644 -0.115007
C106  C     C_3   0.177011 0.185625 0.461986 -0.105269
C107  C     C_3   0.701461 0.217853 0.428911 -0.152314
C108  C     C_3   0.679272 0.199738 0.852730 -0.089954
Cu1   Cu    Cu3+1 0.995180 0.995180 0.424630 1.037487
Cu2   Cu    Cu3+1 0.004820 0.004820 0.575370 1.065705
Cu3   Cu    Cu3+1 0.995180 0.424630 0.995180 1.034802
Cu4   Cu    Cu3+1 0.004820 0.575370 0.004820 0.983241
Cu5   Cu    Cu3+1 0.424630 0.995180 0.995180 1.072310
Cu6   Cu    Cu3+1 0.575370 0.004820 0.004820 0.929223
H1    H     H_    0.372221 0.953186 0.714118 0.124789
H2    H     H_    0.345268 0.656903 0.101361 0.126039
H3    H     H_    0.896102 0.672400 0.330725 0.090143
H4    H     H_    0.044505 0.342636 0.680620 0.124325
H5    H     H_    0.604524 0.824308 0.805277 0.087031
H6    H     H_    0.541609 0.794271 0.758049 0.098063
H7    H     H_    0.519040 0.769921 0.875935 0.151287
H8    H     H_    0.698591 0.839962 0.153203 0.196741
H9    H     H_    0.716159 0.845705 0.248776 0.090898
H10   H     H_    0.681242 0.947834 0.164436 0.091077
H11   H     H_    0.741455 0.864951 0.609947 0.120633
H12   H     H_    0.656415 0.957459 0.313440 0.087074
H13   H     H_    0.766190 0.755619 0.602311 0.084762
H14   H     H_    0.742339 0.850403 0.509015 0.139675
H15   H     H_    0.784451 0.269529 0.530478 0.096912
H16   H     H_    0.750580 0.322223 0.620016 0.111674
H17   H     H_    0.752073 0.207922 0.644127 0.152503
H18   H     H_    0.852015 0.634027 0.786939 0.115429
H19   H     H_    0.742163 0.634178 0.799009 0.074688
H20   H     H_    0.835363 0.565038 0.736947 0.144186
H21   H     H_    0.344764 0.648589 0.824757 0.101352
H22   H     H_    0.243592 0.697200 0.795266 0.149067
H23   H     H_    0.869800 0.738863 0.424654 0.108110
H24   H     H_    0.303676 0.583868 0.789983 0.106356
H25   H     H_    0.184990 0.180360 0.395308 0.095354
H26   H     H_    0.228001 0.215106 0.458440 0.102411
H27   H     H_    0.111434 0.232419 0.482011 0.148995
H28   H     H_    0.644125 0.246801 0.400164 0.120628
H29   H     H_    0.744176 0.264207 0.396392 0.112126
H30   H     H_    0.678168 0.214670 0.500993 0.103653
H31   H     H_    0.692292 0.171771 0.919129 0.101205
H32   H     H_    0.720121 0.246264 0.806372 0.107656
H33   H     H_    0.700028 0.143233 0.823460 0.189714
H34   H     H_    0.934847 0.307465 0.665698 0.126053
H35   H     H_    0.497999 0.699238 0.216546 0.125723
H36   H     H_    0.406683 0.648629 0.253291 0.101425
H37   H     H_    0.386488 0.759130 0.260686 0.158673
H38   H     H_    0.960332 0.674060 0.169073 0.093190
H39   H     H_    0.845407 0.734425 0.212918 0.074323
H40   H     H_    0.877294 0.698462 0.116148 0.183867
H41   H     H_    0.221488 0.468150 0.685504 0.111376
H42   H     H_    0.201973 0.430393 0.607883 0.107664
H43   H     H_    0.252045 0.351231 0.691388 0.112007
H44   H     H_    0.825153 0.871457 0.694216 0.126470
H45   H     H_    0.731588 0.420763 0.879531 0.119369
H46   H     H_    0.746810 0.849638 0.802646 0.072543
H47   H     H_    0.851688 0.868674 0.787374 0.142165
H48   H     H_    0.271139 0.130801 0.174012 0.109544
H49   H     H_    0.170511 0.129897 0.266374 0.120613
H50   H     H_    0.178823 0.107857 0.166725 0.173820
H51   H     H_    0.181180 0.729778 0.590650 0.096097
H52   H     H_    0.213641 0.643973 0.685407 0.093365
H53   H     H_    0.201173 0.760531 0.670024 0.132280
H54   H     H_    0.910769 0.244657 0.180022 0.136022
H55   H     H_    0.841320 0.319789 0.247478 0.089336
H56   H     H_    0.298007 0.644230 0.003584 0.126656
H57   H     H_    0.870603 0.199504 0.296165 0.188563
H58   H     H_    0.761167 0.855516 0.939002 0.158359
H59   H     H_    0.818965 0.750180 0.910002 0.093625
H60   H     H_    0.854096 0.784826 0.976878 0.112906
H61   H     H_    0.225524 0.236304 0.865597 0.158715
H62   H     H_    0.338953 0.239733 0.831152 0.105969
H63   H     H_    0.249143 0.342184 0.830848 0.133137
H64   H     H_    0.280326 0.058114 0.625597 0.125080
H65   H     H_    0.680850 0.074897 0.338555 0.116513
H66   H     H_    0.667732 0.325590 0.905641 0.084755
O1    O     O_R   0.124540 0.978640 0.385460 -0.472187
O2    O     O_R   0.124540 0.385460 0.978640 -0.460714
O3    O     O_R   0.021360 0.875460 0.614540 -0.483679
O4    O     O_R   0.978640 0.124540 0.385460 -0.485403
O5    O     O_R   0.013780 0.867370 0.487190 -0.483582
O6    O     O_R   0.986220 0.132630 0.512810 -0.446915
O7    O     O_R   0.867370 0.487190 0.013780 -0.489714
O8    O     O_R   0.132630 0.512810 0.986220 -0.462994
O9    O     O_R   0.487190 0.013780 0.867370 -0.474628
O10   O     O_R   0.512810 0.986220 0.132630 -0.495583
O11   O     O_R   0.512810 0.132630 0.986220 -0.492635
O12   O     O_R   0.875460 0.021360 0.614540 -0.465480
O13   O     O_R   0.487190 0.867370 0.013780 -0.445937
O14   O     O_R   0.986220 0.512810 0.132630 -0.491995
O15   O     O_R   0.013780 0.487190 0.867370 -0.449066
O16   O     O_R   0.132630 0.986220 0.512810 -0.473888
O17   O     O_R   0.867370 0.013780 0.487190 -0.447255
O18   O     O_3   0.473904 0.902411 0.814612 -0.536079
O19   O     O_3   0.585015 0.879377 0.248175 -0.541666
O20   O     O_3   0.865380 0.826489 0.525849 -0.552559
O21   O     O_3   0.874996 0.229484 0.604040 -0.539900
O22   O     O_3   0.821197 0.517311 0.871879 -0.545264
O23   O     O_R   0.978640 0.385460 0.124540 -0.481605
O24   O     O_3   0.233130 0.603770 0.915145 -0.532791
O25   O     O_3   0.179271 0.102030 0.525714 -0.536331
O26   O     O_3   0.750960 0.133450 0.413141 -0.572329
O27   O     O_3   0.588370 0.241664 0.859466 -0.561769
O28   O     O_3   0.413866 0.750058 0.134275 -0.536644
O29   O     O_3   0.866641 0.598471 0.232948 -0.534733
O30   O     O_3   0.118656 0.407457 0.741683 -0.560264
O31   O     O_3   0.755267 0.980970 0.750346 -0.539858
O32   O     O_3   0.250236 0.004605 0.247153 -0.525362
O33   O     O_3   0.084694 0.724153 0.716112 -0.525984
O34   O     O_R   0.021360 0.614540 0.875460 -0.480327
O35   O     O_3   0.973698 0.256871 0.256801 -0.541816
O36   O     O_3   0.740210 0.742289 0.043958 -0.547712
O37   O     O_3   0.262245 0.261385 0.955547 -0.533717
O38   O     O_R   0.385460 0.124540 0.978640 -0.479417
O39   O     O_R   0.614540 0.875460 0.021360 -0.501367
O40   O     O_R   0.614540 0.021360 0.875460 -0.483960
O41   O     O_R   0.385460 0.978640 0.124540 -0.447806
O42   O     O_R   0.875460 0.614540 0.021360 -0.500023

loop_
_geom_bond_atom_site_label_1
_geom_bond_atom_site_label_2
_ccdc_geom_bond_type
C2    O15   A    
C10   H60   S    
C21   O4    A    
C4    H40   S    
C58   H3    S    
Cu6   O10   S    
C54   O9    A    
C49   H23   S    
C35   C53   A    
C104  H18   S    
C26   C72   A    
C23   C69   A    
C30   C45   A    
Cu1   O17   S    
Cu3   Cu4   S    
Cu6   O39   S    
C36   C59   A    
C10   O36   S    
C53   H64   S    
C106  O25   S    
C65   O41   A    
C7    O32   S    
C1    O3    A    
C24   C70   A    
C21   O6    A    
C9    O35   S    
C47   H1    S    
C66   C79   A    
C14   O18   S    
C29   C36   A    
C22   O26   S    
C11   H62   S    
C101  H9    S    
C13   O12   A    
C104  H20   S    
C19   C66   A    
C34   C40   A    
C33   C42   A    
C20   O25   S    
C13   O17   A    
C71   C84   A    
C102  H14   S    
C56   H66   S    
C28   C40   A    
C54   O40   A    
C10   H58   S    
C38   C57   A    
C13   C81   S    
C60   C73   A    
C82   C92   A    
C98   O14   A    
C2    C85   S    
C28   C94   A    
C100  H7    S    
C51   H45   S    
C19   O24   S    
C107  O26   S    
C30   C96   A    
C69   C82   A    
C20   C67   A    
C105  H24   S    
C22   C68   A    
C72   C95   A    
C9    H55   S    
C19   C52   A    
C39   C56   A    
C28   C35   A    
C76   O38   A    
C24   C57   A    
C67   C94   A    
C25   C71   A    
C87   O39   A    
C26   C59   A    
C11   O37   S    
C81   C86   A    
C16   O20   S    
C70   C97   A    
C105  H21   S    
C108  H33   S    
C60   C93   A    
C102  H11   S    
C10   H59   S    
C4    H39   S    
C34   C55   A    
C6    H46   S    
C62   C95   A    
Cu5   O13   S    
C12   O16   A    
C92   O37   S    
C84   C90   A    
C15   C48   A    
C108  O27   S    
Cu6   O40   S    
C90   O35   S    
C6    H44   S    
C18   C51   A    
C72   C85   A    
C57   H2    S    
C108  H32   S    
C27   C34   A    
C41   C47   A    
C4    H38   S    
C7    H48   S    
C77   C90   A    
C3    H35   S    
C101  H10   S    
C31   C44   A    
C1    C75   S    
C5    H43   S    
C98   O23   A    
C23   C56   A    
C86   O31   S    
C87   O13   A    
C18   O22   S    
C102  H13   S    
C104  H19   S    
C52   H56   S    
C29   C95   A    
C85   C89   A    
C61   C94   A    
C105  O24   S    
C6    O31   S    
Cu1   O5    S    
C5    H41   S    
C7    H49   S    
C63   C96   A    
C24   O28   S    
Cu3   O2    S    
C4    O29   S    
C30   C37   A    
C33   C99   A    
C104  O22   S    
C66   C99   A    
C17   C50   A    
C25   O29   S    
C103  O21   S    
C91   O36   S    
C5    O30   S    
C8    H53   S    
C102  O20   S    
C54   C73   S    
C15   O19   S    
C27   C41   A    
C106  H26   S    
C12   O1    A    
C46   C49   A    
C6    H47   S    
Cu4   O14   S    
C15   C61   A    
C36   C45   A    
C26   O30   S    
C100  H5    S    
C33   C39   A    
C16   C49   A    
C107  H28   S    
C17   O21   S    
C70   C83   A    
C103  H15   S    
C50   H34   S    
Cu5   O41   S    
C79   C92   A    
C39   C44   A    
C8    H52   S    
C105  H22   S    
C11   H63   S    
C69   C99   A    
Cu1   O4    S    
C64   C97   A    
C14   C47   A    
Cu2   O3    S    
C8    O33   S    
C59   H4    S    
Cu4   O34   S    
Cu2   O16   S    
C78   C91   A    
C62   C75   A    
C27   C93   A    
C25   C58   A    
C3    O28   S    
Cu3   O23   S    
C83   C91   A    
Cu5   O38   S    
C64   C78   A    
C44   C51   A    
C106  H27   S    
C89   O33   S    
Cu5   Cu6   S    
C63   C77   A    
Cu1   O1    S    
C14   C60   A    
C40   C48   A    
Cu2   O6    S    
C3    H36   S    
Cu6   O11   S    
C32   O7    A    
C23   O27   S    
Cu3   O7    S    
C9    H54   S    
C67   C80   A    
C68   C93   A    
Cu4   O42   S    
C20   C53   A    
C108  H31   S    
C83   C87   S    
Cu4   O8    S    
C32   O42   A    
C101  O19   S    
C2    O34   A    
C22   C55   A    
C71   C96   A    
C1    O5    A    
C61   C74   A    
C5    H42   S    
Cu5   O9    S    
C7    H50   S    
C43   O2    A    
C3    H37   S    
C101  H8    S    
C31   C38   A    
C68   C81   A    
C29   C46   A    
C84   C98   S    
C37   C58   A    
C107  H30   S    
C80   C88   A    
C76   O11   A    
Cu1   Cu2   S    
C17   C63   A    
C18   C64   A    
C106  H25   S    
Cu3   O15   S    
C103  H17   S    
C45   C50   A    
C48   H12   S    
C76   C82   S    
C12   C80   S    
Cu2   O12   S    
C11   H61   S    
C31   C97   A    
C100  H6    S    
C35   C41   A    
C107  H29   S    
C43   O8    A    
C73   C86   A    
C9    H57   S    
C8    H51   S    
C65   C74   S    
C32   C78   S    
C38   C42   A    
C55   H65   S    
C65   O10   A    
C88   O32   S    
C75   C89   A    
C21   C77   S    
C74   C88   A    
C37   C46   A    
C43   C79   S    
C16   C62   A    
C42   C52   A    
C103  H16   S    
C100  O18   S    
