data_mof_unit_67841.cif
_audit_creation_date              2013-03-05T15:41:50-0500
_audit_creation_method            fapswitch 2.2
_symmetry_space_group_name_H-M    P1
_symmetry_Int_Tables_number       1
_space_group_crystal_system       triclinic
_cell_length_a                    7.84623
_cell_length_b                    8.534046
_cell_length_c                    10.501081
_cell_angle_alpha                 92.072909
_cell_angle_beta                  85.541459
_cell_angle_gamma                 93.241683
_cell_volume                      699.547021258

loop_
_atom_site_label
_atom_site_type_symbol
_atom_site_description
_atom_site_fract_x
_atom_site_fract_y
_atom_site_fract_z
_atom_type_partial_charge
O1    O     O_R   0.389250 0.738570 0.508410 -0.636564
O2    O     O_R   0.610750 0.261430 0.491590 -0.647636
O3    O     O_R   0.678390 0.711620 0.486450 -0.644884
O4    O     O_R   0.321610 0.288380 0.513550 -0.626633
C1    C     C_R   0.545135 0.794351 0.499140 0.951089
C2    C     C_R   0.454942 0.205692 0.503160 0.954681
O5    O     O_R   0.355460 0.513510 0.697030 -0.620626
O6    O     O_R   0.644540 0.486490 0.302970 -0.647716
O7    O     O_R   0.644600 0.486560 0.675070 -0.584866
O8    O     O_R   0.355400 0.513440 0.324930 -0.572317
C3    C     C_R   0.501304 0.500336 0.742120 0.917146
C4    C     C_R   0.499171 0.501290 0.258050 0.931424
Zn1   Zn    Zn3+2 0.306940 0.517990 0.514670 1.031332
Zn2   Zn    Zn3+2 0.693060 0.482010 0.485330 1.007097
N1    N     N_2   0.950320 0.457950 0.465730 0.155450
N2    N     N_2   0.049680 0.542050 0.534270 0.177353
C5    C     C_3   0.340855 0.461391 0.965878 -0.255791
C6    C     C_3   0.660948 0.541284 0.034879 -0.246708
C7    C     C_3   0.389734 0.607821 0.050583 -0.239355
C8    C     C_3   0.612218 0.395253 0.949927 -0.239719
H1    H     H_    0.302186 0.695863 0.094586 0.198680
H2    H     H_    0.699806 0.307189 0.906031 0.198369
H3    H     H_    0.211654 0.425934 0.934940 0.193993
H4    H     H_    0.790120 0.576318 0.066092 0.191678
C9    C     C_3   0.499340 0.503475 0.123521 -0.148310
C10   C     C_3   0.502462 0.499659 0.876862 -0.152154
C11   C     C_3   0.452554 0.360986 0.040341 0.379209
C12   C     C_3   0.549799 0.642084 0.960389 0.384643
C13   C     C_2   0.568489 0.958024 0.505476 -0.319673
C14   C     C_2   0.431520 0.042054 0.501324 -0.318018
H5    H     H_    0.697297 0.008939 0.514554 0.163104
H6    H     H_    0.302756 0.990868 0.492946 0.156843
N3    N     N_R   0.402464 0.206589 0.089749 0.212356
O9    O     O_R   0.507053 0.134022 0.154382 -0.411468
O10   O     O_R   0.255990 0.138135 0.065251 -0.440326
N4    N     N_R   0.604086 0.797360 0.914472 0.209335
O11   O     O_R   0.740818 0.869862 0.954783 -0.414958
O12   O     O_R   0.506876 0.870751 0.844469 -0.434667
O13   O     O_3   0.032433 0.415084 0.353123 -0.559949
C15   C     C_3   0.951301 0.278234 0.301509 0.195905
H7    H     H_    0.976043 0.280870 0.195969 0.173496
H8    H     H_    0.811790 0.271351 0.319806 0.192058
C16   C     C_3   0.026216 0.130900 0.348207 -0.403680
H9    H     H_    0.167197 0.138522 0.327281 0.274065
H10   H     H_    0.997434 0.123323 0.453165 0.199133
C17   C     C_3   0.953394 0.982286 0.281798 -0.829500
H11   H     H_    0.811574 0.974702 0.294432 0.270848
H12   H     H_    0.002752 0.877210 0.322831 0.251516
H13   H     H_    0.992135 0.981868 0.177898 0.315656
O14   O     O_3   0.973660 0.591358 0.646678 -0.548967
C18   C     C_3   0.985327 0.757393 0.650694 0.168277
H14   H     H_    0.854812 0.798161 0.676382 0.182878
H15   H     H_    0.030600 0.810337 0.557450 0.099561
C19   C     C_3   0.100395 0.819257 0.754235 -0.325050
H16   H     H_    0.057490 0.764563 0.846584 0.250222
H17   H     H_    0.233360 0.787368 0.727413 0.269330
C20   C     C_3   0.097416 0.997757 0.770940 -0.831509
H18   H     H_    0.127172 0.055123 0.678218 0.231233
H19   H     H_    0.194663 0.040844 0.836805 0.320605
H20   H     H_    0.969556 0.032509 0.811101 0.292482

loop_
_geom_bond_atom_site_label_1
_geom_bond_atom_site_label_2
_geom_bond_distance
_ccdc_geom_bond_type
C7    H1    1.110768 S    
C14   H6    1.086472 S    
O7    Zn2   1.998581 S    
C13   C14   1.329596 D    
C6    H4    1.111003 S    
C8    C11   1.532997 S    
C9    C11   1.516225 S    
O7    C3    1.288241 A    
C10   C12   1.518919 S    
Zn2   N1    2.034250 S    
O6    C4    1.282059 A    
C4    C9    1.413386 S    
C16   H9    1.109608 S    
C18   C19   1.527504 S    
C19   C20   1.528364 S    
N4    O12   1.299590 A    
O14   C18   1.414047 S    
C6    C12   1.533632 S    
C13   H5    1.087028 S    
C5    H3    1.110943 S    
C11   N3    1.455673 S    
O5    C3    1.284121 A    
C7    C12   1.534088 S    
C16   H10   1.111199 S    
C17   H13   1.109555 S    
N1    O13   1.350601 S    
C20   H18   1.108360 S    
O2    C2    1.284856 A    
O3    Zn2   1.968925 S    
C8    C10   1.537251 S    
O1    C1    1.284944 A    
C5    C10   1.542478 S    
O8    C4    1.288918 A    
C15   H8    1.095188 S    
N4    O11   1.299835 A    
N3    O10   1.299016 A    
N2    O14   1.345057 S    
N3    O9    1.300803 A    
C1    C13   1.398303 S    
O2    Zn2   1.957000 S    
C6    C9    1.539599 S    
C19   H17   1.105750 S    
C16   C17   1.528832 S    
C20   H19   1.108021 S    
C7    C9    1.535447 S    
N1    N2    1.275740 D    
C5    C11   1.534174 S    
C17   H12   1.110373 S    
O5    Zn1   1.983387 S    
O1    Zn1   1.956999 S    
C18   H15   1.117530 S    
C12   N4    1.456149 S    
C6    C8    1.553648 S    
O4    C2    1.290150 A    
Zn1   N2    2.034250 S    
O13   C15   1.409513 S    
C17   H11   1.108842 S    
C15   H7    1.111003 S    
C20   H20   1.109546 S    
O6    Zn2   1.983385 S    
C3    C10   1.415903 S    
C5    C7    1.555087 S    
C19   H16   1.111695 S    
C2    C14   1.397829 S    
C15   C16   1.529686 S    
C18   H14   1.110421 S    
O4    Zn1   1.968925 S    
C8    H2    1.110720 S    
O3    C1    1.290127 A    
O8    Zn1   1.998581 S    
