data_mof_unit_32473.cif
_audit_creation_date              2012-12-10T17:57:51-0500
_audit_creation_method            fapswitch 2.2
_symmetry_space_group_name_H-M    P1
_symmetry_Int_Tables_number       1
_space_group_crystal_system       triclinic
_cell_length_a                    10.841432
_cell_length_b                    9.645754
_cell_length_c                    15.078171
_cell_angle_alpha                 89.760495
_cell_angle_beta                  93.520273
_cell_angle_gamma                 89.658313
_cell_volume                      1573.76194332

loop_
_atom_site_label
_atom_site_type_symbol
_atom_type_description
_atom_site_fract_x
_atom_site_fract_y
_atom_site_fract_z
_atom_type_partial_charge
C1    C     C_R   0.262622 0.500415 0.499134 0.838290
C2    C     C_R   0.737377 0.499585 0.500859 0.838304
C3    C     C_R   0.329241 0.668502 0.038163 0.137564
C4    C     C_R   0.670782 0.331514 0.961838 0.137570
C5    C     C_R   0.070885 0.408428 0.556018 0.074906
C6    C     C_R   0.929109 0.591558 0.443962 0.074911
C7    C     C_R   0.941653 0.407127 0.556149 0.056747
C8    C     C_R   0.058344 0.592868 0.443837 0.056733
C9    C     C_R   0.871464 0.499072 0.500340 -0.051065
C10   C     C_R   0.128533 0.500924 0.499647 -0.051068
C11   C     C_R   0.438687 0.074283 0.432916 0.427153
C12   C     C_R   0.561313 0.925717 0.567084 0.427158
C13   C     C_R   0.561102 0.072308 0.567140 0.409746
C14   C     C_R   0.438899 0.927692 0.432860 0.409744
C15   C     C_R   0.500033 0.500147 0.329386 0.786319
C16   C     C_R   0.499967 0.499853 0.670614 0.786339
C17   C     C_R   0.595233 0.429992 0.817537 0.388940
C18   C     C_R   0.404771 0.570007 0.182461 0.388948
C19   C     C_R   0.500216 0.500054 0.767191 -0.260861
C20   C     C_R   0.499788 0.499947 0.232809 -0.260859
C21   C     C_R   0.406419 0.571819 0.809019 0.346213
C22   C     C_R   0.593596 0.428196 0.190983 0.346210
C23   C     C_R   0.414498 0.584344 0.902166 -0.029416
C24   C     C_R   0.585522 0.415670 0.097835 -0.029412
C25   C     C_R   0.500975 0.500960 0.953155 -0.139458
C26   C     C_R   0.499042 0.499048 0.046846 -0.139458
C27   C     C_R   0.589674 0.420044 0.910501 0.022420
C28   C     C_R   0.410340 0.579962 0.089498 0.022420
C29   C     C_R   0.334293 0.674156 0.945814 0.368170
C30   C     C_R   0.665734 0.325865 0.054188 0.368168
Cu1   Cu    Cu3+1 0.500000 0.640660 0.500000 0.976876
Cu2   Cu    Cu3+1 0.500000 0.359340 0.500000 0.976881
N1    N     N_R   0.500000 0.852070 0.500000 -0.337110
N2    N     N_R   0.500000 0.147930 0.500000 -0.337110
O1    O     O_R   0.319640 0.618740 0.499990 -0.591141
O2    O     O_R   0.680360 0.381260 0.500010 -0.591137
O3    O     O_R   0.680360 0.618740 0.500010 -0.590051
O4    O     O_R   0.319640 0.381260 0.499990 -0.590043
O5    O     O_R   0.499970 0.618800 0.370260 -0.551911
O6    O     O_R   0.500030 0.381200 0.629740 -0.551903
O7    O     O_R   0.500030 0.618800 0.629740 -0.560695
O8    O     O_R   0.499970 0.381200 0.370260 -0.560693
O9    O     O_3   0.694496 0.372036 0.777380 -0.668546
H1    H     H_    0.709322 0.424366 0.722511 0.313650
O10   O     O_3   0.305501 0.627960 0.222615 -0.668544
H2    H     H_    0.290688 0.575647 0.277494 0.313656
O11   O     O_3   0.303528 0.625093 0.761095 -0.686472
H3    H     H_    0.291468 0.577460 0.703255 0.328149
O12   O     O_3   0.696494 0.374941 0.238909 -0.686480
H4    H     H_    0.708540 0.422573 0.296750 0.328146
O13   O     O_3   0.262374 0.773216 0.900736 -0.687649
H5    H     H_    0.314761 0.818767 0.857660 0.368012
O14   O     O_3   0.737662 0.226816 0.099269 -0.687648
H6    H     H_    0.685279 0.181261 0.142345 0.368009
N3    N     N_3   0.245627 0.760158 0.079833 -0.455059
H7    H     H_    0.155786 0.740022 0.054083 0.255434
H8    H     H_    0.267551 0.862404 0.064042 0.252301
N4    N     N_3   0.754407 0.239867 0.920170 -0.455066
H9    H     H_    0.844247 0.260015 0.945917 0.255425
H10   H     H_    0.732499 0.137618 0.935964 0.252301
N5    N     N_3   0.144724 0.319363 0.614904 -0.567754
H11   H     H_    0.120842 0.216338 0.601788 0.235937
H12   H     H_    0.126570 0.342596 0.680489 0.231323
N6    N     N_3   0.855262 0.680581 0.385052 -0.567788
H13   H     H_    0.873403 0.657292 0.319476 0.231332
H14   H     H_    0.879146 0.783615 0.398127 0.235942
N7    N     N_3   0.881173 0.315174 0.614288 -0.590251
H15   H     H_    0.903917 0.213070 0.598686 0.246490
H16   H     H_    0.912859 0.334982 0.679823 0.250984
N8    N     N_3   0.118828 0.684832 0.385707 -0.590258
H17   H     H_    0.087134 0.665044 0.320173 0.251001
H18   H     H_    0.096087 0.786929 0.401327 0.246489
O15   O     O_3   0.372482 0.138867 0.363677 -0.657693
H19   H     H_    0.337172 0.224708 0.386383 0.358994
O16   O     O_3   0.627519 0.861134 0.636323 -0.657694
H20   H     H_    0.662827 0.775291 0.613617 0.358995
O17   O     O_3   0.627135 0.134884 0.636356 -0.632399
H21   H     H_    0.658232 0.222751 0.614079 0.382902
O18   O     O_3   0.372866 0.865116 0.363643 -0.632404
H22   H     H_    0.341768 0.777250 0.385921 0.382896

loop_
_geom_bond_atom_site_label_1
_geom_bond_atom_site_label_2
_ccdc_geom_bond_type
N3    H7    S    
O15   H19   S    
O16   H20   S    
C14   N1    A    
O17   H21   S    
C23   C29   A    
C3    C28   A    
C19   C21   A    
C24   C26   A    
C11   C14   A    
N4    H10   S    
O13   H5    S    
C3    C29   A    
C6    N6    S    
N5    H12   S    
C3    N3    S    
O11   H3    S    
Cu1   N1    S    
N8    H17   S    
Cu2   O4    S    
C23   C25   A    
C6    C9    A    
C15   C20   S    
C30   O14   S    
C13   O17   S    
N7    H15   S    
C17   C27   A    
C18   C28   A    
C11   O15   S    
C5    C7    A    
C6    C8    A    
C25   C26   A    
O10   H2    S    
Cu1   O3    S    
N7    H16   S    
N6    H14   S    
O9    H1    S    
C17   O9    S    
Cu1   Cu2   S    
C5    N5    S    
C14   O18   S    
C15   O5    A    
C1    O4    A    
C16   O6    A    
C22   O12   S    
C20   C22   A    
N3    H8    S    
C22   C24   A    
C18   O10   S    
Cu2   O2    S    
C4    C27   A    
C1    O1    A    
C29   O13   S    
C2    O2    A    
C7    C9    A    
Cu1   O7    S    
C8    N8    S    
C11   N2    A    
C1    C10   S    
C15   O8    A    
O14   H6    S    
C25   C27   A    
C26   C28   A    
N6    H13   S    
C21   C23   A    
N4    H9    S    
C5    C10   A    
C2    O3    A    
C16   C19   S    
Cu1   O1    S    
C17   C19   A    
Cu1   O5    S    
C18   C20   A    
Cu2   O6    S    
N5    H11   S    
C24   C30   A    
C7    N7    S    
O18   H22   S    
C13   N2    A    
C12   C13   A    
C8    C10   A    
O12   H4    S    
C12   O16   S    
C4    N4    S    
Cu2   O8    S    
N8    H18   S    
C12   N1    A    
C2    C9    S    
C16   O7    A    
C4    C30   A    
Cu2   N2    S    
C21   O11   S    
