data_mof_unit_41353.cif
_audit_creation_date              2012-12-11T16:04:53-0500
_audit_creation_method            fapswitch 2.2
_symmetry_space_group_name_H-M    P1
_symmetry_Int_Tables_number       1
_space_group_crystal_system       triclinic
_cell_length_a                    10.682448
_cell_length_b                    10.638574
_cell_length_c                    16.934639
_cell_angle_alpha                 98.501228
_cell_angle_beta                  98.713916
_cell_angle_gamma                 61.65183
_cell_volume                      1667.82432978

loop_
_atom_site_label
_atom_site_type_symbol
_atom_type_description
_atom_site_fract_x
_atom_site_fract_y
_atom_site_fract_z
_atom_type_partial_charge
C1    C     C_R   0.354934 0.774804 0.398315 0.538480
C2    C     C_3   0.740233 0.326500 0.247478 -0.104107
C3    C     C_3   0.828926 0.344461 0.324213 0.039486
C4    C     C_3   0.963828 0.215684 0.297115 -0.140461
C5    C     C_3   0.995692 0.319711 0.258217 -0.166388
C6    C     C_3   0.859135 0.448771 0.286521 -0.108383
C7    C     C_3   0.771989 0.429417 0.208761 -0.128686
C8    C     C_3   0.908082 0.301045 0.180990 0.056546
C9    C     C_3   0.474197 0.786516 0.222561 -0.120840
C10   C     C_3   0.427443 0.687859 0.255104 -0.119756
C11   C     C_3   0.347898 0.810413 0.317973 0.043813
C12   C     C_R   0.371973 0.347875 0.358383 0.536649
C13   C     C_3   0.396199 0.907199 0.287457 -0.129750
C14   C     C_3   0.258165 0.961435 0.230374 -0.104019
C15   C     C_3   0.210662 0.863776 0.261935 -0.096013
C16   C     C_3   0.288660 0.742339 0.198198 -0.105608
C17   C     C_3   0.335391 0.839638 0.166849 0.055486
C18   C     C_3   0.459396 0.264959 0.776381 -0.112589
C19   C     C_3   0.394936 0.405179 0.735241 -0.108874
C20   C     C_3   0.337664 0.333774 0.663424 0.053632
C21   C     C_3   0.402146 0.194398 0.703947 -0.112525
C22   C     C_3   0.259700 0.251387 0.741036 -0.112379
C23   C     C_R   0.774995 0.378155 0.401463 0.547498
C24   C     C_3   0.195416 0.391767 0.699341 -0.123275
C25   C     C_3   0.252524 0.462049 0.772729 -0.120190
C26   C     C_3   0.317824 0.322025 0.812784 0.053366
C27   C     C_1   0.817349 0.341677 0.709595 -0.044150
C28   C     C_1   0.843711 0.315042 0.778144 -0.047372
C29   C     C_1   0.338384 0.811949 0.709808 -0.047167
C30   C     C_1   0.313141 0.839361 0.778500 -0.045296
C31   C     C_R   0.955126 0.285480 0.102627 0.556307
C32   C     C_R   0.319825 0.300179 0.119843 0.536381
C33   C     C_R   0.298299 0.884837 0.086255 0.533239
C34   C     C_R   0.356840 0.771100 0.627262 0.542547
C35   C     C_R   0.884697 0.299594 0.860941 0.550730
C36   C     C_R   0.307980 0.294363 0.891902 0.543375
C37   C     C_R   0.279804 0.885026 0.858971 0.539516
C38   C     C_R   0.367346 0.345478 0.585259 0.539326
C39   C     C_R   0.774177 0.379412 0.629590 0.542075
C40   C     C_1   0.346643 0.338578 0.274528 -0.056521
C41   C     C_1   0.334360 0.328339 0.203312 -0.052122
C42   C     C_3   0.876467 0.197435 0.218463 0.102196
Cr1   Cr    Cr6+3 0.608340 0.611040 0.520430 1.023438
Cr2   Cr    Cr6+3 0.287650 0.601120 0.489350 1.028117
Cr3   Cr    Cr6+3 0.604040 0.287870 0.490280 1.030589
Cr4   Cr    Cr6+3 0.054020 0.052700 0.970850 1.053897
Cr5   Cr    Cr6+3 0.059230 0.375120 0.993390 1.035422
Cr6   Cr    Cr6+3 0.374950 0.061200 0.992340 1.048386
H1    H     H_    0.635454 0.327267 0.245083 0.129055
H2    H     H_    0.194816 0.072514 0.214184 0.110986
H3    H     H_    0.105476 0.893554 0.282111 0.156557
H4    H     H_    0.246764 0.673534 0.160326 0.137002
H5    H     H_    0.451145 0.468591 0.730802 0.115966
H6    H     H_    0.567102 0.215201 0.809543 0.133571
H7    H     H_    0.461517 0.085051 0.674151 0.130912
H8    H     H_    0.203503 0.188051 0.745656 0.113633
H9    H     H_    0.088223 0.441506 0.665664 0.132386
H10   H     H_    0.193259 0.570964 0.803005 0.134200
H11   H     H_    0.039507 0.133626 0.337760 0.111766
H12   H     H_    0.100357 0.318549 0.261431 0.107763
H13   H     H_    0.851969 0.552343 0.315571 0.144428
H14   H     H_    0.694698 0.512459 0.169170 0.129093
H15   H     H_    0.494899 0.575590 0.269497 0.110706
H16   H     H_    0.580964 0.757014 0.204561 0.128115
H17   H     H_    0.437240 0.976286 0.325772 0.133874
O1    O     O_R   0.751220 0.499230 0.435170 -0.524233
O2    O     O_R   0.297880 0.469080 0.560050 -0.500677
O3    O     O_R   0.489720 0.254590 0.564810 -0.517118
O4    O     O_R   0.725220 0.304230 0.585080 -0.495724
O5    O     O_3   0.500010 0.500010 0.500020 -0.262436
O6    O     O_R   0.171830 0.913880 0.057510 -0.500217
O7    O     O_R   0.940690 0.186050 0.054730 -0.469675
O8    O     O_R   0.920470 0.405720 0.075010 -0.510828
O9    O     O_R   0.196690 0.370460 0.084120 -0.517004
O10   O     O_R   0.412990 0.180750 0.091610 -0.484108
O11   O     O_R   0.366620 0.943130 0.065760 -0.500649
O12   O     O_R   0.477220 0.727600 0.436870 -0.501199
O13   O     O_R   0.160510 0.906330 0.879210 -0.511080
O14   O     O_R   0.930190 0.179050 0.889450 -0.491468
O15   O     O_R   0.909140 0.398170 0.896710 -0.501355
O16   O     O_R   0.186190 0.363460 0.918830 -0.501831
O17   O     O_R   0.401670 0.173200 0.913310 -0.508048
O18   O     O_R   0.356120 0.936130 0.900470 -0.494375
O19   O     O_3   0.162740 0.163010 0.985530 -0.288333
O20   O     O_R   0.258650 0.745120 0.411470 -0.516637
O21   O     O_R   0.297070 0.467240 0.395960 -0.497615
O22   O     O_R   0.488830 0.252610 0.387790 -0.511198
O23   O     O_R   0.724400 0.302390 0.420980 -0.497709
O24   O     O_R   0.752100 0.501210 0.612190 -0.510635
O25   O     O_R   0.478040 0.729440 0.600970 -0.498364
O26   O     O_R   0.259530 0.747110 0.588490 -0.507191
I1    I     I_    0.858668 0.011843 0.161804 -0.364336

loop_
_geom_bond_atom_site_label_1
_geom_bond_atom_site_label_2
_ccdc_geom_bond_type
C18   C21   S    
C1    O12   A    
Cr6   O11   S    
C3    C23   S    
C19   C20   S    
C1    C11   S    
C3    C6    S    
C32   O10   A    
C7    C8    S    
C13   H17   S    
Cr1   O24   S    
C6    H13   S    
Cr3   O22   S    
C8    C42   S    
C32   O9    A    
C5    C6    S    
C31   O8    A    
C15   C16   S    
C9    H16   S    
C35   O15   A    
C18   C19   S    
C9    C13   S    
C34   O26   A    
C11   C15   S    
C10   H15   S    
C2    C7    S    
C28   C35   S    
C36   O17   A    
C24   H9    S    
C18   C26   S    
C32   C41   S    
Cr2   O5    S    
C15   H3    S    
C9    C10   S    
Cr4   O7    S    
C5    H12   S    
C19   H5    S    
C21   C22   S    
Cr6   O10   S    
C17   C33   S    
Cr5   O15   S    
Cr2   O21   S    
C1    O20   A    
Cr1   O25   S    
C14   H2    S    
Cr3   O4    S    
C20   C24   S    
Cr3   O23   S    
C24   C25   S    
Cr5   O8    S    
C27   C39   S    
Cr4   O13   S    
C18   H6    S    
C16   C17   S    
C22   H8    S    
C25   C26   S    
C29   C34   S    
Cr6   O19   S    
C30   C37   S    
C12   C40   S    
C34   O25   A    
C7    H14   S    
C29   C30   T    
C2    H1    S    
C20   C38   S    
C33   O11   A    
C36   O16   A    
Cr3   O3    S    
C39   O4    A    
Cr5   O19   S    
C20   C21   S    
Cr4   O6    S    
Cr2   O26   S    
Cr4   O19   S    
C9    C17   S    
C31   O7    A    
C38   O3    A    
Cr1   O5    S    
C23   O23   A    
C22   C24   S    
C25   H10   S    
C3    C4    S    
C23   O1    A    
C21   H7    S    
C26   C36   S    
C40   C41   T    
C12   O22   A    
Cr3   O5    S    
C8    C31   S    
C16   H4    S    
Cr5   O9    S    
C4    C5    S    
C5    C8    S    
C6    C7    S    
Cr1   O12   S    
C37   O13   A    
Cr6   O18   S    
C12   O21   A    
C2    C3    S    
C10   C16   S    
C11   C13   S    
Cr4   O14   S    
C4    C42   S    
C2    C42   S    
Cr1   O1    S    
C4    H11   S    
C35   O14   A    
Cr6   O17   S    
C42   I1    S    
Cr5   O16   S    
C19   C25   S    
C10   C11   S    
C33   O6    A    
C38   O2    A    
C22   C26   S    
C27   C28   T    
C14   C15   S    
C37   O18   A    
Cr2   O2    S    
C13   C14   S    
C39   O24   A    
Cr2   O20   S    
C14   C17   S    
