data_mof_unit_48440.cif
_audit_creation_date              2012-12-11T15:46:47-0500
_audit_creation_method            fapswitch 2.2
_symmetry_space_group_name_H-M    P1
_symmetry_Int_Tables_number       1
_space_group_crystal_system       triclinic
_cell_length_a                    11.539282
_cell_length_b                    11.524528
_cell_length_c                    19.577994
_cell_angle_alpha                 90.446752
_cell_angle_beta                  90.109324
_cell_angle_gamma                 60.004981
_cell_volume                      2254.80092464

loop_
_atom_site_label
_atom_site_type_symbol
_atom_type_description
_atom_site_fract_x
_atom_site_fract_y
_atom_site_fract_z
_atom_type_partial_charge
C1    C     C_R   0.640428 0.117216 0.599331 0.547867
C2    C     C_1   0.641222 0.704030 0.668069 0.005074
C3    C     C_1   0.126462 0.198965 0.859226 0.003105
C4    C     C_1   0.171657 0.170181 0.727740 -0.030187
C5    C     C_1   0.150038 0.182383 0.798927 -0.030538
C6    C     C_1   0.195558 0.160694 0.667460 0.003983
C7    C     C_1   0.678655 0.191422 0.860702 0.003746
C8    C     C_1   0.658641 0.167065 0.729043 -0.030320
C9    C     C_1   0.665769 0.180938 0.800304 -0.030387
C10   C     C_1   0.653038 0.149444 0.668701 0.004667
C11   C     C_R   0.670431 0.653072 0.195599 0.005162
C12   C     C_R   0.612443 0.746064 0.598702 0.546758
C13   C     C_R   0.556310 0.671354 0.228625 0.035696
C14   C     C_R   0.546495 0.682705 0.297786 -0.017058
C15   C     C_R   0.774062 0.638329 0.305766 -0.163265
C16   C     C_R   0.783602 0.627736 0.234644 -0.159921
C17   C     C_3   0.414151 0.778407 0.217485 -0.044857
C18   C     C_3   0.403016 0.792291 0.294220 -0.202788
C19   C     C_R   0.651308 0.675166 0.337084 0.011998
C20   C     C_R   0.117203 0.210326 0.197686 0.011665
C21   C     C_R   0.120978 0.309930 0.236160 0.026013
C22   C     C_R   0.146738 0.294032 0.304677 0.028975
C23   C     C_R   0.241158 0.145170 0.598272 0.545986
C24   C     C_R   0.137929 0.089545 0.303113 -0.174381
C25   C     C_R   0.114652 0.104585 0.232510 -0.155001
C26   C     C_3   0.200230 0.377996 0.225029 -0.281801
C27   C     C_3   0.230460 0.360081 0.300626 -0.261612
C28   C     C_R   0.168011 0.177697 0.338224 0.010234
C29   C     C_R   0.666307 0.187995 0.192473 -0.004886
C30   C     C_R   0.722656 0.058274 0.218202 0.002344
C31   C     C_R   0.718962 0.037950 0.286924 -0.002434
C32   C     C_R   0.588844 0.276360 0.307451 0.049876
C33   C     C_R   0.591532 0.297188 0.236960 -0.158535
C34   C     C_R   0.645155 0.112937 0.402734 0.570865
C35   C     C_3   0.859840 0.938185 0.210945 -0.257014
C36   C     C_3   0.856016 0.918038 0.287009 -0.265509
C37   C     C_R   0.660172 0.144776 0.333092 0.056950
C38   C     C_R   0.081612 0.231261 0.928514 0.546703
C39   C     C_R   0.683966 0.604331 0.929442 0.544968
C40   C     C_R   0.708456 0.206754 0.930062 0.545874
C41   C     C_R   0.078877 0.237951 0.126641 0.543965
C42   C     C_R   0.683995 0.610518 0.125821 0.543718
C43   C     C_R   0.707803 0.211447 0.126742 0.550644
C44   C     C_R   0.617592 0.736609 0.403491 0.545693
C45   C     C_R   0.241308 0.142445 0.402263 0.535832
C46   C     C_1   0.670407 0.646334 0.860073 0.004216
C47   C     C_1   0.654743 0.683749 0.728464 -0.030577
C48   C     C_1   0.663435 0.666601 0.799679 -0.030839
Cr1   Cr    Cr6+3 0.404720 0.198220 0.499960 1.042873
Cr2   Cr    Cr6+3 0.698290 0.897110 0.500380 1.025908
Cr3   Cr    Cr6+3 0.396970 0.904720 0.499610 1.023957
Cr4   Cr    Cr6+3 0.926290 0.152010 0.028150 1.026264
Cr5   Cr    Cr6+3 0.921440 0.451830 0.027490 1.025931
Cr6   Cr    Cr6+3 0.626370 0.446880 0.028730 1.020182
H1    H     H_    0.858473 0.626754 0.335421 0.123259
H2    H     H_    0.289887 0.318494 0.192295 0.141157
H3    H     H_    0.337910 0.289691 0.311135 0.172376
H4    H     H_    0.545956 0.398973 0.218466 0.136803
H5    H     H_    0.938403 0.962374 0.196916 0.164003
H6    H     H_    0.859329 0.857282 0.179862 0.136570
H7    H     H_    0.390617 0.889439 0.312148 0.144194
H8    H     H_    0.334063 0.762541 0.317654 0.151052
H9    H     H_    0.143950 0.003584 0.328458 0.124873
H10   H     H_    0.099534 0.031411 0.205110 0.151679
H11   H     H_    0.136297 0.484591 0.210274 0.138336
O1    O     O_R   0.267750 0.231960 0.575440 -0.504699
O2    O     O_R   0.685950 0.784660 0.430010 -0.505457
O3    O     O_R   0.502510 0.767000 0.423980 -0.522229
O4    O     O_R   0.288320 0.026340 0.429250 -0.512750
O5    O     O_3   0.499990 0.000020 0.499980 -0.259634
O6    O     O_R   0.821590 0.119350 0.952850 -0.505114
O7    O     O_R   0.037230 0.162540 0.957390 -0.493703
O8    O     O_R   0.056530 0.344750 0.951370 -0.504600
O9    O     O_R   0.798000 0.560370 0.957490 -0.494006
O10   O     O_R   0.596230 0.579400 0.952760 -0.506471
O11   O     O_R   0.639160 0.321170 0.958690 -0.493692
O12   O     O_R   0.527290 0.186640 0.570530 -0.491782
O13   O     O_R   0.821370 0.124220 0.104400 -0.521414
O14   O     O_R   0.037020 0.167050 0.097880 -0.508022
O15   O     O_R   0.056310 0.349620 0.102920 -0.515934
O16   O     O_R   0.797790 0.564880 0.097980 -0.508925
O17   O     O_R   0.596000 0.584270 0.104310 -0.522652
O18   O     O_R   0.638950 0.325690 0.099180 -0.507076
O19   O     O_3   0.824700 0.350240 0.028120 -0.253023
O20   O     O_R   0.728110 0.003450 0.576380 -0.505271
O21   O     O_R   0.682980 0.789190 0.570500 -0.494538
O22   O     O_R   0.499300 0.771880 0.575540 -0.502242
O23   O     O_R   0.285350 0.030870 0.569740 -0.493004
O24   O     O_R   0.270960 0.227070 0.423890 -0.517180
O25   O     O_R   0.530270 0.182120 0.430040 -0.473767
O26   O     O_R   0.731320 0.998570 0.424830 -0.526959
H12   H     H_    0.185427 0.456437 0.329456 0.135178
N1    N     N_3   0.522506 0.388688 0.353034 -0.613088
H13   H     H_    0.423869 0.448235 0.336501 0.220305
H14   H     H_    0.569837 0.445478 0.349059 0.238442
H15   H     H_    0.855337 0.825071 0.299853 0.147175
H16   H     H_    0.929003 0.935010 0.316316 0.139975
H17   H     H_    0.878284 0.600470 0.210517 0.137662
N2    N     N_3   0.329954 0.728049 0.189053 -0.647443
H18   H     H_    0.344526 0.718236 0.136207 0.257793
H19   H     H_    0.358945 0.632856 0.208243 0.234703
H20   H     H_    0.402582 0.868579 0.190833 0.143361

loop_
_geom_bond_atom_site_label_1
_geom_bond_atom_site_label_2
_ccdc_geom_bond_type
C21   C26   S    
N1    H13   S    
C40   O6    A    
C34   C37   S    
C43   O18   A    
C14   C18   S    
C35   C36   S    
C42   O17   A    
Cr1   O25   S    
C2    C12   S    
C41   O15   A    
Cr6   O19   S    
C20   C41   S    
Cr1   O5    S    
C43   O13   A    
C15   C19   A    
C26   C27   S    
C33   H4    S    
C30   C35   S    
Cr5   O19   S    
C23   O1    A    
C35   H5    S    
C30   C31   A    
C20   C25   A    
C15   C16   A    
C29   C33   A    
C1    O12   A    
C11   C42   S    
Cr5   O16   S    
C39   O9    A    
Cr4   O19   S    
C34   O26   A    
Cr2   O20   S    
Cr5   O9    S    
C3    C38   S    
C8    C9    S    
C7    C40   S    
C36   H16   S    
Cr3   O5    S    
C39   O10   A    
Cr4   O14   S    
C45   O24   A    
Cr2   O2    S    
C32   N1    S    
N1    H14   S    
C22   C28   A    
C21   C22   A    
C29   C43   S    
C42   O16   A    
Cr4   O13   S    
Cr6   O18   S    
C38   O7    A    
C1    O20   A    
C46   C48   T    
C28   C45   S    
Cr1   O1    S    
C45   O4    A    
Cr5   O15   S    
C24   C25   A    
C4    C6    T    
C27   H3    S    
Cr3   O22   S    
C18   H8    S    
C31   C37   A    
C35   H6    S    
C25   H10   S    
C15   H1    S    
C17   H20   S    
C34   O25   A    
C29   C30   A    
Cr4   O7    S    
C11   C16   A    
C36   H15   S    
C47   C48   S    
C17   C18   S    
C27   H12   S    
C32   C37   A    
C17   N2    S    
C39   C46   S    
Cr6   O11   S    
N2    H19   S    
C24   H9    S    
C22   C27   S    
C44   O3    A    
Cr6   O17   S    
C19   C44   S    
C7    C9    T    
C12   O22   A    
C26   H11   S    
C14   C19   A    
Cr5   O8    S    
C1    C10   S    
C24   C28   A    
Cr1   O24   S    
C4    C5    S    
C3    C5    T    
C26   H2    S    
Cr3   O23   S    
C41   O14   A    
C18   H7    S    
C12   O21   A    
C2    C47   T    
N2    H18   S    
C13   C17   S    
C23   O23   A    
C32   C33   A    
Cr2   O5    S    
Cr4   O6    S    
C11   C13   A    
C16   H17   S    
C6    C23   S    
Cr1   O12   S    
Cr3   O3    S    
Cr2   O21   S    
Cr6   O10   S    
C40   O11   A    
Cr2   O26   S    
C20   C21   A    
C8    C10   T    
C31   C36   S    
C44   O2    A    
Cr3   O4    S    
C13   C14   A    
C38   O8    A    
