data_mof_unit_44199.cif
_audit_creation_date              2012-12-10T16:38:08-0500
_audit_creation_method            fapswitch 2.2
_symmetry_space_group_name_H-M    P1
_symmetry_Int_Tables_number       1
_space_group_crystal_system       triclinic
_cell_length_a                    28.21756
_cell_length_b                    18.654782
_cell_length_c                    16.817873
_cell_angle_alpha                 89.999977
_cell_angle_beta                  60.766381
_cell_angle_gamma                 89.99997
_cell_volume                      7725.2699634

loop_
_atom_site_label
_atom_site_type_symbol
_atom_type_description
_atom_site_fract_x
_atom_site_fract_y
_atom_site_fract_z
_atom_type_partial_charge
Br1   Br    Br    0.156555 0.310736 0.364070 -0.510937
Br2   Br    Br    0.427910 0.701050 0.219215 -0.492957
Br3   Br    Br    0.427910 0.298950 0.219214 -0.492956
Br4   Br    Br    0.572090 0.701050 0.780786 -0.492956
Br5   Br    Br    0.072090 0.798950 0.780785 -0.492957
Br6   Br    Br    0.927910 0.201050 0.219215 -0.492957
Br7   Br    Br    0.927910 0.798950 0.219214 -0.492956
Br8   Br    Br    0.072090 0.201050 0.780786 -0.492956
Br9   Br    Br    0.843445 0.689264 0.635930 -0.510937
Br10  Br    Br    0.843448 0.310734 0.635927 -0.510935
Br11  Br    Br    0.156552 0.689265 0.364073 -0.510935
Br12  Br    Br    0.656555 0.810736 0.364070 -0.510937
Br13  Br    Br    0.343445 0.189264 0.635930 -0.510937
Br14  Br    Br    0.343448 0.810734 0.635927 -0.510935
Br15  Br    Br    0.656552 0.189265 0.364073 -0.510935
Br16  Br    Br    0.572090 0.298950 0.780785 -0.492957
C1    C     C_R   0.699759 0.263967 0.677721 0.943081
C2    C     C_R   0.103100 0.500000 0.486284 -0.001575
C3    C     C_R   0.185818 0.225051 0.913546 0.073582
C4    C     C_R   0.618716 0.333603 0.049572 -0.135036
C5    C     C_R   0.381284 0.666397 0.950428 -0.135037
C6    C     C_R   0.381284 0.333603 0.950428 -0.135036
C7    C     C_R   0.618716 0.666396 0.049572 -0.135036
C8    C     C_R   0.118716 0.833603 0.049572 -0.135036
C9    C     C_R   0.881284 0.166397 0.950428 -0.135037
C10   C     C_R   0.881283 0.833604 0.950428 -0.135036
C11   C     C_R   0.118716 0.166397 0.049572 -0.135036
C12   C     C_R   0.650078 0.322778 0.091591 -0.205957
C13   C     C_R   0.396899 1.000000 0.513717 -0.001574
C14   C     C_R   0.349922 0.677222 0.908409 -0.205957
C15   C     C_R   0.349921 0.322778 0.908410 -0.205957
C16   C     C_R   0.650079 0.677222 0.091590 -0.205957
C17   C     C_R   0.150078 0.822778 0.091591 -0.205957
C18   C     C_R   0.849922 0.177222 0.908409 -0.205957
C19   C     C_R   0.849921 0.822778 0.908410 -0.205957
C20   C     C_R   0.150079 0.177222 0.091590 -0.205957
C21   C     C_R   0.743021 0.194014 0.793367 -0.100400
C22   C     C_R   0.256979 0.805986 0.206633 -0.100401
C23   C     C_R   0.256979 0.194014 0.206633 -0.100400
C24   C     C_R   0.603100 0.000000 0.486284 -0.001575
C25   C     C_R   0.743021 0.805986 0.793367 -0.100401
C26   C     C_R   0.243021 0.694014 0.793367 -0.100400
C27   C     C_R   0.756979 0.305986 0.206633 -0.100401
C28   C     C_R   0.756979 0.694014 0.206633 -0.100400
C29   C     C_R   0.243021 0.305986 0.793367 -0.100401
C30   C     C_R   0.774756 0.181888 0.834531 -0.176610
C31   C     C_R   0.225244 0.818112 0.165469 -0.176609
C32   C     C_R   0.225245 0.181887 0.165469 -0.176610
C33   C     C_R   0.774755 0.818113 0.834531 -0.176609
C34   C     C_R   0.274756 0.681888 0.834531 -0.176610
C35   C     C_R   0.108258 0.371976 0.462940 0.234098
C36   C     C_R   0.725244 0.318112 0.165469 -0.176609
C37   C     C_R   0.725245 0.681887 0.165469 -0.176610
C38   C     C_R   0.274755 0.318113 0.834531 -0.176609
C39   C     C_R   0.071323 0.103703 0.937048 0.953820
C40   C     C_R   0.928677 0.896297 0.062952 0.953820
C41   C     C_R   0.928677 0.103703 0.062952 0.953819
C42   C     C_R   0.071323 0.896297 0.937048 0.953820
C43   C     C_R   0.571323 0.603703 0.937048 0.953820
C44   C     C_R   0.428677 0.396297 0.062952 0.953820
C45   C     C_R   0.428677 0.603703 0.062952 0.953819
C46   C     C_R   0.891742 0.628024 0.537061 0.234098
C47   C     C_R   0.571323 0.396297 0.937048 0.953820
C48   C     C_R   0.553996 0.129987 0.482878 0.048365
C49   C     C_R   0.446004 0.870013 0.517122 0.048365
C50   C     C_R   0.446003 0.129987 0.517127 0.048367
C51   C     C_R   0.553997 0.870013 0.482874 0.048367
C52   C     C_R   0.053996 0.629987 0.482878 0.048365
C53   C     C_R   0.946004 0.370013 0.517122 0.048365
C54   C     C_R   0.946003 0.629987 0.517127 0.048367
C55   C     C_R   0.053997 0.370013 0.482874 0.048367
C56   C     C_R   0.527185 0.195035 0.489625 -0.150991
C57   C     C_R   0.891743 0.371975 0.537057 0.234099
C58   C     C_R   0.472815 0.804965 0.510376 -0.150991
C59   C     C_R   0.472813 0.195035 0.510382 -0.150992
C60   C     C_R   0.527187 0.804965 0.489618 -0.150991
C61   C     C_R   0.027185 0.695035 0.489625 -0.150991
C62   C     C_R   0.972815 0.304965 0.510376 -0.150991
C63   C     C_R   0.972813 0.695035 0.510382 -0.150992
C64   C     C_R   0.027187 0.304965 0.489618 -0.150991
C65   C     C_R   0.473636 0.065096 0.505887 0.024316
C66   C     C_R   0.526363 0.934904 0.494114 0.024316
C67   C     C_R   0.526362 0.065096 0.494116 0.024316
C68   C     C_R   0.108256 0.628024 0.462943 0.234099
C69   C     C_R   0.473637 0.934904 0.505885 0.024316
C70   C     C_R   0.973636 0.565096 0.505887 0.024316
C71   C     C_R   0.026363 0.434904 0.494114 0.024316
C72   C     C_R   0.026362 0.565096 0.494116 0.024316
C73   C     C_R   0.973637 0.434904 0.505885 0.024316
C74   C     C_R   0.947579 0.500000 0.510526 -0.043449
C75   C     C_R   0.052421 0.500000 0.489475 -0.043449
C76   C     C_R   0.447579 1.000000 0.510526 -0.043449
C77   C     C_R   0.552421 0.000000 0.489475 -0.043449
C78   C     C_R   0.871240 0.434793 0.516537 0.013333
C79   C     C_R   0.608258 0.871976 0.462940 0.234098
C80   C     C_R   0.128759 0.565207 0.483463 0.013333
C81   C     C_R   0.128760 0.434793 0.483462 0.013333
C82   C     C_R   0.871240 0.565207 0.516539 0.013333
C83   C     C_R   0.371240 0.934793 0.516537 0.013333
C84   C     C_R   0.628759 0.065207 0.483463 0.013333
C85   C     C_R   0.628760 0.934793 0.483462 0.013333
C86   C     C_R   0.371240 0.065207 0.516539 0.013333
C87   C     C_R   0.827158 0.435895 0.497397 -0.081838
C88   C     C_R   0.172842 0.564105 0.502603 -0.081838
C89   C     C_R   0.172842 0.435895 0.502602 -0.081838
C90   C     C_R   0.391742 0.128024 0.537061 0.234098
C91   C     C_R   0.827157 0.564105 0.497398 -0.081838
C92   C     C_R   0.327158 0.935895 0.497397 -0.081838
C93   C     C_R   0.672842 0.064105 0.502603 -0.081838
C94   C     C_R   0.672842 0.935895 0.502602 -0.081838
C95   C     C_R   0.327158 0.064105 0.497398 -0.081838
C96   C     C_R   0.806830 0.500000 0.486595 -0.302156
C97   C     C_R   0.193170 0.500000 0.513405 -0.302156
C98   C     C_R   0.306830 1.000000 0.486595 -0.302156
C99   C     C_R   0.693170 0.000000 0.513405 -0.302156
C100  C     C_R   0.391743 0.871975 0.537057 0.234099
C101  C     C_R   0.300241 0.736033 0.322279 0.943080
C102  C     C_R   0.608256 0.128025 0.462943 0.234099
C103  C     C_R   0.717504 0.261318 0.957676 0.036852
C104  C     C_R   0.282496 0.738682 0.042324 0.036852
C105  C     C_R   0.282496 0.261318 0.042324 0.036852
C106  C     C_R   0.717504 0.738682 0.957676 0.036853
C107  C     C_R   0.217504 0.761318 0.957676 0.036852
C108  C     C_R   0.782496 0.238682 0.042324 0.036852
C109  C     C_R   0.782496 0.761318 0.042324 0.036852
C110  C     C_R   0.217504 0.238682 0.957676 0.036853
C111  C     C_R   0.764820 0.218490 0.914353 0.052697
C112  C     C_R   0.300241 0.263967 0.322279 0.943082
C113  C     C_R   0.235180 0.781510 0.085647 0.052697
C114  C     C_R   0.235180 0.218490 0.085647 0.052698
C115  C     C_R   0.764820 0.781510 0.914353 0.052697
C116  C     C_R   0.264820 0.718490 0.914353 0.052697
C117  C     C_R   0.735180 0.281510 0.085647 0.052697
C118  C     C_R   0.735180 0.718490 0.085647 0.052698
C119  C     C_R   0.264820 0.281510 0.914353 0.052697
C120  C     C_R   0.798564 0.209760 0.954961 0.047965
C121  C     C_R   0.201436 0.790240 0.045039 0.047965
C122  C     C_R   0.201437 0.209760 0.045039 0.047965
C123  C     C_R   0.699759 0.736033 0.677721 0.943082
C124  C     C_R   0.798563 0.790240 0.954961 0.047965
C125  C     C_R   0.298564 0.709760 0.954961 0.047965
C126  C     C_R   0.701436 0.290240 0.045039 0.047965
C127  C     C_R   0.701437 0.709760 0.045039 0.047965
C128  C     C_R   0.298563 0.290240 0.954961 0.047965
C129  C     C_R   0.638257 0.316813 0.956695 0.027222
C130  C     C_R   0.361743 0.683187 0.043305 0.027223
C131  C     C_R   0.361743 0.316813 0.043305 0.027223
C132  C     C_R   0.638257 0.683186 0.956695 0.027223
C133  C     C_R   0.138257 0.816813 0.956695 0.027222
C134  C     C_R   0.199759 0.763967 0.677721 0.943081
C135  C     C_R   0.861743 0.183187 0.043305 0.027223
C136  C     C_R   0.861743 0.816813 0.043305 0.027223
C137  C     C_R   0.138257 0.183187 0.956695 0.027223
C138  C     C_R   0.610360 0.336428 0.907431 -0.195847
C139  C     C_R   0.389640 0.663572 0.092569 -0.195847
C140  C     C_R   0.389640 0.336428 0.092569 -0.195847
C141  C     C_R   0.610360 0.663572 0.907431 -0.195847
C142  C     C_R   0.110360 0.836428 0.907431 -0.195847
C143  C     C_R   0.889640 0.163572 0.092569 -0.195847
C144  C     C_R   0.889640 0.836428 0.092569 -0.195847
C145  C     C_R   0.800241 0.236033 0.322279 0.943080
C146  C     C_R   0.110360 0.163572 0.907431 -0.195847
C147  C     C_R   0.624324 0.303915 0.824428 0.181681
C148  C     C_R   0.375676 0.696085 0.175572 0.181681
C149  C     C_R   0.375676 0.303915 0.175572 0.181680
C150  C     C_R   0.624324 0.696085 0.824428 0.181680
C151  C     C_R   0.124324 0.803915 0.824428 0.181681
C152  C     C_R   0.875676 0.196085 0.175572 0.181681
C153  C     C_R   0.875676 0.803915 0.175572 0.181680
C154  C     C_R   0.124324 0.196085 0.824428 0.181681
C155  C     C_R   0.673703 0.268130 0.778178 -0.192330
C156  C     C_R   0.800241 0.763967 0.322279 0.943082
C157  C     C_R   0.326297 0.731870 0.221822 -0.192330
C158  C     C_R   0.326297 0.268130 0.221822 -0.192329
C159  C     C_R   0.673703 0.731870 0.778178 -0.192329
C160  C     C_R   0.173703 0.768130 0.778178 -0.192330
C161  C     C_R   0.826297 0.231870 0.221822 -0.192330
C162  C     C_R   0.826297 0.768130 0.221822 -0.192329
C163  C     C_R   0.173703 0.231870 0.778178 -0.192329
C164  C     C_R   0.701680 0.246455 0.826462 0.044109
C165  C     C_R   0.298320 0.753545 0.173538 0.044109
C166  C     C_R   0.298320 0.246455 0.173538 0.044110
C167  C     C_R   0.199759 0.236033 0.677721 0.943082
C168  C     C_R   0.701680 0.753545 0.826462 0.044110
C169  C     C_R   0.201680 0.746455 0.826462 0.044109
C170  C     C_R   0.798320 0.253545 0.173538 0.044109
C171  C     C_R   0.798320 0.746455 0.173538 0.044110
C172  C     C_R   0.201680 0.253545 0.826462 0.044110
C173  C     C_R   0.696739 0.128385 0.516366 0.920249
C174  C     C_R   0.303261 0.871615 0.483633 0.920249
C175  C     C_R   0.303261 0.128385 0.483634 0.920250
C176  C     C_R   0.696739 0.871615 0.516366 0.920250
C177  C     C_R   0.196739 0.628385 0.516366 0.920249
C178  C     C_R   0.896899 0.500000 0.513717 -0.001574
C179  C     C_R   0.803261 0.371615 0.483633 0.920249
C180  C     C_R   0.803261 0.628385 0.483634 0.920250
C181  C     C_R   0.196739 0.371615 0.516366 0.920250
C182  C     C_R   0.685818 0.274949 0.913546 0.073581
C183  C     C_R   0.314182 0.725051 0.086454 0.073581
C184  C     C_R   0.314182 0.274949 0.086454 0.073581
C185  C     C_R   0.685818 0.725051 0.913546 0.073582
C186  C     C_R   0.185818 0.774949 0.913546 0.073581
C187  C     C_R   0.814182 0.225051 0.086454 0.073581
C188  C     C_R   0.814182 0.774949 0.086454 0.073581
H1    H     H_    0.047509 0.254176 0.482388 0.175069
H2    H     H_    0.225650 0.500000 0.530351 0.194342
H3    H     H_    0.274350 1.000000 0.469649 0.194342
H4    H     H_    0.725650 1.000000 0.530351 0.194342
H5    H     H_    0.577826 0.351759 0.093834 0.193402
H6    H     H_    0.422174 0.648241 0.906166 0.193402
H7    H     H_    0.422174 0.351759 0.906166 0.193402
H8    H     H_    0.577826 0.648241 0.093834 0.193402
H9    H     H_    0.077826 0.851759 0.093834 0.193402
H10   H     H_    0.922174 0.148241 0.906166 0.193402
H11   H     H_    0.922174 0.851759 0.906166 0.193402
H12   H     H_    0.952491 0.745824 0.517613 0.175069
H13   H     H_    0.077826 0.148241 0.093834 0.193402
H14   H     H_    0.631902 0.337310 0.162646 0.152591
H15   H     H_    0.368098 0.662690 0.837354 0.152591
H16   H     H_    0.368097 0.337311 0.837354 0.152590
H17   H     H_    0.631903 0.662689 0.162646 0.152590
H18   H     H_    0.131902 0.837310 0.162646 0.152591
H19   H     H_    0.868098 0.162690 0.837354 0.152591
H20   H     H_    0.868097 0.837311 0.837354 0.152590
H21   H     H_    0.131903 0.162689 0.162646 0.152590
H22   H     H_    0.750371 0.159045 0.737377 0.166767
H23   H     H_    0.952493 0.254176 0.517605 0.175069
H24   H     H_    0.249629 0.840955 0.262622 0.166767
H25   H     H_    0.249629 0.159045 0.262622 0.166766
H26   H     H_    0.750371 0.840955 0.737378 0.166767
H27   H     H_    0.250371 0.659045 0.737377 0.166767
H28   H     H_    0.749629 0.340955 0.262622 0.166767
H29   H     H_    0.749629 0.659045 0.262622 0.166766
H30   H     H_    0.250371 0.340955 0.737378 0.166767
H31   H     H_    0.805678 0.141090 0.804367 0.136718
H32   H     H_    0.194322 0.858910 0.195633 0.136718
H33   H     H_    0.194323 0.141089 0.195632 0.136717
H34   H     H_    0.047507 0.745824 0.482396 0.175069
H35   H     H_    0.805677 0.858911 0.804368 0.136717
H36   H     H_    0.305678 0.641090 0.804367 0.136718
H37   H     H_    0.694322 0.358910 0.195633 0.136718
H38   H     H_    0.694323 0.641089 0.195632 0.136717
H39   H     H_    0.305677 0.358911 0.804368 0.136717
H40   H     H_    0.547509 0.754176 0.482388 0.175069
H41   H     H_    0.452491 0.245824 0.517613 0.175069
H42   H     H_    0.452493 0.754176 0.517605 0.175069
H43   H     H_    0.547507 0.245824 0.482396 0.175069
H44   H     H_    0.774350 0.500000 0.469649 0.194342
O1    O     O_R   0.746490 0.236330 0.638080 -0.619487
O2    O     O_R   0.325830 0.813840 0.483730 -0.593330
O3    O     O_R   0.325830 0.186160 0.483730 -0.593331
O4    O     O_R   0.674170 0.813840 0.516270 -0.593331
O5    O     O_R   0.174170 0.686160 0.516270 -0.593330
O6    O     O_R   0.825830 0.313840 0.483730 -0.593330
O7    O     O_R   0.825830 0.686160 0.483730 -0.593331
O8    O     O_R   0.174170 0.313840 0.516270 -0.593331
O9    O     O_R   0.739960 0.127620 0.525000 -0.647429
O10   O     O_R   0.260040 0.872380 0.475000 -0.647428
O11   O     O_R   0.260040 0.127620 0.475000 -0.647428
O12   O     O_R   0.253510 0.763670 0.361920 -0.619487
O13   O     O_R   0.739960 0.872380 0.525000 -0.647429
O14   O     O_R   0.239960 0.627620 0.525000 -0.647429
O15   O     O_R   0.760040 0.372380 0.475000 -0.647428
O16   O     O_R   0.760040 0.627620 0.475000 -0.647428
O17   O     O_R   0.239960 0.372380 0.525000 -0.647429
O18   O     O_R   0.680700 0.294870 0.629350 -0.569924
O19   O     O_R   0.319300 0.705130 0.370650 -0.569924
O20   O     O_R   0.319300 0.294870 0.370650 -0.569924
O21   O     O_R   0.680700 0.705130 0.629350 -0.569924
O22   O     O_R   0.180700 0.794870 0.629350 -0.569924
O23   O     O_R   0.253510 0.236330 0.361920 -0.619487
O24   O     O_R   0.819300 0.205130 0.370650 -0.569924
O25   O     O_R   0.819300 0.794870 0.370650 -0.569924
O26   O     O_R   0.180700 0.205130 0.629350 -0.569924
O27   O     O_R   0.062020 0.072840 0.007170 -0.643468
O28   O     O_R   0.937980 0.927160 0.992830 -0.643468
O29   O     O_R   0.937980 0.072840 0.992830 -0.643468
O30   O     O_R   0.062020 0.927160 0.007170 -0.643468
O31   O     O_R   0.562020 0.572840 0.007170 -0.643468
O32   O     O_R   0.437980 0.427160 0.992830 -0.643468
O33   O     O_R   0.437980 0.572840 0.992830 -0.643468
O34   O     O_R   0.746490 0.763670 0.638080 -0.619487
O35   O     O_R   0.562020 0.427160 0.007170 -0.643468
O36   O     O_R   0.947860 0.073950 0.109290 -0.569849
O37   O     O_R   0.052140 0.926050 0.890710 -0.569849
O38   O     O_R   0.052140 0.073950 0.890710 -0.569850
O39   O     O_R   0.947860 0.926050 0.109290 -0.569850
O40   O     O_R   0.447860 0.573950 0.109290 -0.569849
O41   O     O_R   0.552140 0.426050 0.890710 -0.569849
O42   O     O_R   0.552140 0.573950 0.890710 -0.569850
O43   O     O_R   0.447860 0.426050 0.109290 -0.569850
O44   O     O_R   0.246490 0.736330 0.638080 -0.619487
O45   O     O_R   0.753510 0.263670 0.361920 -0.619487
O46   O     O_R   0.753510 0.736330 0.361920 -0.619487
O47   O     O_R   0.246490 0.263670 0.638080 -0.619487
O48   O     O_R   0.674170 0.186160 0.516270 -0.593330
Zn1   Zn    Zn3+2 0.792340 0.208750 0.507670 1.029761
Zn2   Zn    Zn3+2 0.494040 0.500000 0.919480 1.014257
Zn3   Zn    Zn3+2 0.005960 1.000000 0.080520 1.014258
Zn4   Zn    Zn3+2 0.994040 0.000000 0.919480 1.014257
Zn5   Zn    Zn3+2 0.207660 0.791250 0.492330 1.029761
Zn6   Zn    Zn3+2 0.207660 0.208750 0.492330 1.029761
Zn7   Zn    Zn3+2 0.792340 0.791250 0.507670 1.029761
Zn8   Zn    Zn3+2 0.292340 0.708750 0.507670 1.029761
Zn9   Zn    Zn3+2 0.707660 0.291250 0.492330 1.029761
Zn10  Zn    Zn3+2 0.707660 0.708750 0.492330 1.029761
Zn11  Zn    Zn3+2 0.292340 0.291250 0.507670 1.029761
Zn12  Zn    Zn3+2 0.505960 0.500000 0.080520 1.014258

loop_
_geom_bond_atom_site_label_1
_geom_bond_atom_site_label_2
_ccdc_geom_bond_type
C35   C81   A    
C95   C175  S    
C71   C75   A    
O32   Zn2   S    
C91   C96   A    
O17   Zn11  S    
C24   C77   A    
O5    Zn5   S    
C32   H33   S    
C33   C115  A    
C22   C165  A    
O14   Zn8   S    
C108  C117  A    
C2    C75   A    
C23   H25   S    
C70   C72   A    
C67   C77   A    
C174  O2    A    
C48   C102  A    
C46   C54   A    
C115  C124  A    
C118  C127  A    
C28   C37   A    
C17   C121  A    
C88   C177  S    
O8    Zn6   S    
C9    C18   A    
C81   C89   A    
C26   H27   S    
C89   C181  S    
C41   C143  S    
C84   C93   A    
C109  C124  A    
C86   C95   A    
C35   C55   A    
O26   Zn6   S    
C25   C33   A    
O27   Zn3   S    
C142  C151  A    
C156  O25   A    
C61   C63   A    
C13   C83   A    
C180  O16   A    
C111  C120  A    
O15   Zn9   S    
C70   C74   A    
Br2   C148  S    
C83   C100  A    
C27   H28   S    
C163  C172  A    
C4    C12   A    
C85   C94   A    
C171  C188  A    
C39   O38   A    
C161  C170  A    
C87   C96   A    
C45   O33   A    
C169  C186  A    
C3    C172  A    
C123  O21   A    
C18   C120  A    
C148  C157  A    
Br1   C35   S    
C21   H22   S    
C80   C88   A    
C61   H34   S    
C3    C137  A    
C145  C161  S    
C114  C122  A    
C15   H16   S    
C101  C157  S    
C52   C61   A    
C21   C164  A    
O11   Zn6   S    
C54   C63   A    
C78   C178  A    
C39   O27   A    
Br13  C90   S    
O33   Zn2   S    
C24   C84   A    
O46   Zn10  S    
Br11  C68   S    
C66   C69   A    
C7    C132  A    
O36   Zn3   S    
Br15  C102  S    
C5    C130  A    
O6    Zn1   S    
C36   H37   S    
C7    C16   A    
O2    Zn8   S    
C13   C86   A    
O7    Zn7   S    
C164  C182  A    
C10   H11   S    
C10   C19   A    
C44   O43   A    
C113  C121  A    
O3    Zn11  S    
C179  O6    A    
O43   Zn12  S    
O48   Zn9   S    
C109  C188  A    
C20   H21   S    
C107  C116  A    
C103  C182  A    
C134  O44   A    
C174  O10   A    
C105  C114  A    
C33   H35   S    
C158  C166  A    
C83   C92   A    
C180  O7    A    
C117  C126  A    
C14   C125  A    
C58   C60   A    
C31   C113  A    
C106  C185  A    
C89   C97   A    
C62   C64   A    
C27   C36   A    
C7    H8    S    
C104  C183  A    
C5    H6    S    
O40   Zn12  S    
C24   C85   A    
C65   C76   A    
C40   O28   A    
C175  O3    A    
C25   C168  A    
C133  C142  A    
C99   H4    S    
C51   C79   A    
C105  C128  A    
C92   C174  S    
C106  C127  A    
C56   C59   A    
C53   C73   A    
C91   C180  S    
C65   C67   A    
C69   C76   A    
O22   Zn5   S    
C145  O24   A    
Br6   C152  S    
C108  C187  A    
C104  C113  A    
C30   C111  A    
C149  C158  A    
C176  O4    A    
C49   C58   A    
C135  C143  A    
C1    O18   A    
C72   C75   A    
C26   C34   A    
C129  C138  A    
C26   C169  A    
C63   H12   S    
O37   Zn4   S    
C165  C183  A    
C106  C115  A    
O20   Zn11  S    
C18   H19   S    
Br3   C149  S    
C156  C162  S    
C62   H23   S    
Br16  C147  S    
C119  C128  A    
C168  C185  A    
C104  C125  A    
C107  C121  A    
C112  C158  S    
C177  O14   A    
C154  C163  A    
C9    C135  A    
C38   H39   S    
C10   C136  A    
C73   C74   A    
C129  C182  A    
C19   H20   S    
C17   H18   S    
C38   C119  A    
C1    O1    A    
C112  O23   A    
C170  C187  A    
C132  C141  A    
C181  O17   A    
C23   C166  A    
C28   C171  A    
C88   C97   A    
C25   H26   S    
C159  C168  A    
C133  C186  A    
C79   C85   A    
C14   H15   S    
C103  C111  A    
C109  C118  A    
O47   Zn11  S    
C43   O31   A    
O1    Zn1   S    
O42   Zn2   S    
C167  O47   A    
C16   H17   S    
C131  C184  A    
C160  C169  A    
C156  O46   A    
O35   Zn12  S    
C150  C159  A    
O39   Zn3   S    
C58   H42   S    
Br10  C57   S    
C152  C161  A    
C45   C139  S    
C116  C125  A    
C82   C178  A    
C45   O40   A    
C92   C98   A    
C176  O13   A    
C130  C139  A    
C181  O8    A    
C144  C153  A    
C53   C57   A    
C2    C81   A    
C175  O11   A    
C147  C155  A    
C157  C165  A    
C66   C77   A    
C32   C114  A    
O19   Zn8   S    
C87   C179  S    
C57   C78   A    
O28   Zn4   S    
Br8   C154  S    
O12   Zn5   S    
C108  C120  A    
C52   C68   A    
C166  C184  A    
C101  O12   A    
C167  O26   A    
C82   C91   A    
C44   C140  S    
C48   C67   A    
C19   C124  A    
O29   Zn4   S    
O30   Zn3   S    
C146  C154  A    
C6    H7    S    
C112  O20   A    
C4    H5    S    
C29   H30   S    
C131  C140  A    
C101  O19   A    
C34   C116  A    
O34   Zn7   S    
C55   C71   A    
C162  C171  A    
O9    Zn1   S    
C110  C119  A    
C11   H13   S    
Br7   C153  S    
C84   C102  A    
O16   Zn10  S    
C31   H32   S    
C123  O34   A    
C145  O45   A    
C37   C118  A    
C47   C138  S    
C11   C20   A    
O13   Zn7   S    
C5    C14   A    
C3    C110  A    
O4    Zn10  S    
C8    C17   A    
C137  C146  A    
C30   H31   S    
C34   H36   S    
C50   C65   A    
C43   C141  S    
O31   Zn12  S    
C140  C149  A    
C50   C59   A    
C95   C98   A    
O21   Zn10  S    
C6    C131  A    
C44   O32   A    
C103  C126  A    
C4    C129  A    
C136  C188  A    
O23   Zn6   S    
C21   C30   A    
C28   H29   S    
O18   Zn9   S    
C20   C122  A    
C94   C99   A    
C13   C76   A    
C177  O5    A    
C23   C32   A    
C41   O29   A    
C11   C137  A    
C134  C160  S    
C136  C144  A    
C2    C80   A    
C123  C159  S    
C47   O35   A    
C105  C184  A    
C43   O42   A    
C98   H3    S    
O41   Zn2   S    
C56   H43   S    
C9    H10   S    
C60   H40   S    
C41   O36   A    
C15   C128  A    
C143  C152  A    
C68   C80   A    
C130  C183  A    
C16   C127  A    
C46   C82   A    
C42   O30   A    
C93   C173  S    
C74   C178  A    
C86   C90   A    
C59   H41   S    
C173  O48   A    
Br5   C151  S    
C64   H1    S    
C36   C117  A    
O38   Zn4   S    
C53   C62   A    
C50   C90   A    
C55   C64   A    
C132  C185  A    
C163  C167  S    
O10   Zn5   S    
C6    C15   A    
Br9   C46   S    
C138  C147  A    
C37   H38   S    
C42   C142  S    
C27   C170  A    
C179  O15   A    
O45   Zn9   S    
C8    H9    S    
Br12  C79   S    
C22   C31   A    
C134  O22   A    
C29   C38   A    
C52   C72   A    
C49   C100  A    
C155  C164  A    
C12   C126  A    
C54   C70   A    
C153  C162  A    
C22   H24   S    
C96   H44   S    
C110  C122  A    
C12   H14   S    
C107  C186  A    
O25   Zn7   S    
C39   C146  S    
C135  C187  A    
C141  C150  A    
C78   C87   A    
C1    C155  S    
C29   C172  A    
C49   C69   A    
C139  C148  A    
C173  O9    A    
C97   H2    S    
C71   C73   A    
C40   C144  S    
Br14  C100  S    
C94   C176  S    
Br4   C150  S    
O44   Zn8   S    
C40   O39   A    
C48   C56   A    
C8    C133  A    
C93   C99   A    
C51   C66   A    
C47   O41   A    
C51   C60   A    
O24   Zn1   S    
C151  C160  A    
C42   O37   A    
