data_mof_unit_44626.cif
_audit_creation_date              2013-03-05T15:40:03-0500
_audit_creation_method            fapswitch 2.2
_symmetry_space_group_name_H-M    P1
_symmetry_Int_Tables_number       1
_space_group_crystal_system       triclinic
_cell_length_a                    24.762469
_cell_length_b                    17.481202
_cell_length_c                    15.688663
_cell_angle_alpha                 89.52119
_cell_angle_beta                  129.942367
_cell_angle_gamma                 89.781122
_cell_volume                      5206.24962186

loop_
_atom_site_label
_atom_site_type_symbol
_atom_site_description
_atom_site_fract_x
_atom_site_fract_y
_atom_site_fract_z
_atom_type_partial_charge
C1    C     C_R   0.355664 0.357480 0.256196 -0.016199
C2    C     C_R   0.649305 0.360011 0.754700 -0.067886
C3    C     C_R   0.834662 0.890071 0.202827 0.000063
C4    C     C_R   0.149956 0.860707 0.756426 -0.076573
H1    H     H_    0.310299 0.342212 0.247679 0.149020
H2    H     H_    0.696064 0.345471 0.766462 0.163008
H3    H     H_    0.781422 0.893069 0.172395 0.159464
H4    H     H_    0.197003 0.846503 0.768824 0.165333
N1    N     N_R   0.389060 0.424180 0.294540 -0.052121
N2    N     N_R   0.610940 0.424180 0.705460 -0.057236
N3    N     N_R   0.889060 0.924180 0.294540 -0.060996
N4    N     N_R   0.110940 0.924180 0.705460 -0.059604
C5    C     C_R   0.616874 0.401997 0.412145 0.279144
C6    C     C_R   0.383371 0.401100 0.588122 0.284289
C7    C     C_R   0.116388 0.898036 0.413054 0.328703
C8    C     C_R   0.883984 0.899645 0.588425 0.296463
N5    N     N_R   0.579670 0.423790 0.443360 -0.119798
N6    N     N_R   0.420330 0.423790 0.556640 -0.117380
N7    N     N_R   0.079670 0.923790 0.443360 -0.112147
N8    N     N_R   0.920330 0.923790 0.556640 -0.113928
C9    C     C_R   0.690276 0.406977 0.595818 0.184422
C10   C     C_R   0.309954 0.407559 0.404389 0.179189
C11   C     C_R   0.190048 0.905772 0.596345 0.189546
C12   C     C_R   0.810118 0.907233 0.404706 0.213626
N9    N     N_R   0.625470 0.423490 0.556600 -0.109127
N10   N     N_R   0.374530 0.423490 0.443400 -0.112499
N11   N     N_R   0.125470 0.923490 0.556600 -0.106648
N12   N     N_R   0.874530 0.923490 0.443400 -0.102950
C13   C     C_R   0.559288 0.357158 0.754531 -0.007911
C14   C     C_R   0.446306 0.354749 0.257827 0.002735
C15   C     C_R   0.060169 0.858304 0.757185 -0.020665
C16   C     C_R   0.924102 0.888703 0.202104 -0.052903
H5    H     H_    0.522203 0.337340 0.763875 0.167537
H6    H     H_    0.484939 0.335045 0.251608 0.159829
H7    H     H_    0.023793 0.839818 0.768788 0.168510
H8    H     H_    0.951918 0.888533 0.170640 0.187733
N13   N     N_R   0.555250 0.423100 0.705420 -0.045508
N14   N     N_R   0.444750 0.423100 0.294580 -0.042801
N15   N     N_R   0.055250 0.923100 0.705420 -0.049502
N16   N     N_R   0.944750 0.923100 0.294580 -0.056393
C17   C     C_R   0.391242 0.312420 0.233706 0.036475
C18   C     C_R   0.617709 0.316422 0.785781 0.048841
C19   C     C_R   0.855244 0.868074 0.142777 0.043875
C20   C     C_R   0.118803 0.817648 0.788836 0.065131
C21   C     C_R   0.686631 0.389912 0.507127 -0.014343
C22   C     C_R   0.313788 0.389521 0.493314 -0.017173
C23   C     C_R   0.185763 0.885567 0.508211 -0.021391
C24   C     C_R   0.814789 0.887051 0.493657 -0.032064
C25   C     C_R   0.323071 0.627190 0.403061 -0.089038
C26   C     C_R   0.677896 0.624017 0.594117 -0.043681
C27   C     C_R   0.828354 0.133740 0.403593 -0.081806
C28   C     C_R   0.169869 0.134253 0.595633 -0.051924
H9    H     H_    0.279532 0.638351 0.316263 0.167528
H10   H     H_    0.725045 0.629739 0.679272 0.184296
H11   H     H_    0.785331 0.145898 0.316915 0.167615
H12   H     H_    0.212022 0.145914 0.682369 0.191306
N17   N     N_R   0.375210 0.577180 0.443400 -0.073600
N18   N     N_R   0.624790 0.577180 0.556600 -0.079227
N19   N     N_R   0.875210 0.077180 0.443400 -0.074275
N20   N     N_R   0.124790 0.077180 0.556600 -0.077439
C29   C     C_R   0.422134 0.612111 0.199421 -0.011029
C30   C     C_R   0.557288 0.642400 0.752418 -0.042033
C31   C     C_R   0.921195 0.109199 0.197276 -0.047322
C32   C     C_R   0.080001 0.104937 0.804761 -0.034716
H13   H     H_    0.447484 0.609602 0.164169 0.173511
H14   H     H_    0.520256 0.661068 0.761637 0.149069
H15   H     H_    0.945894 0.103851 0.161142 0.174735
H16   H     H_    0.055006 0.098481 0.840329 0.177631
N21   N     N_R   0.445430 0.577570 0.294580 -0.061505
N22   N     N_R   0.554570 0.577570 0.705420 -0.048095
N23   N     N_R   0.945430 0.077570 0.294580 -0.062786
N24   N     N_R   0.054570 0.077570 0.705420 -0.060687
C33   C     C_R   0.650857 0.637631 0.761043 -0.058250
C34   C     C_R   0.333149 0.611971 0.202057 -0.069949
C35   C     C_R   0.168406 0.102744 0.801601 -0.065757
C36   C     C_R   0.832504 0.109857 0.200194 -0.082841
H17   H     H_    0.702210 0.647377 0.787037 0.149867
H18   H     H_    0.280302 0.612543 0.174038 0.138156
H19   H     H_    0.221062 0.093251 0.831080 0.159850
H20   H     H_    0.779644 0.109838 0.172113 0.144131
N25   N     N_R   0.611620 0.576500 0.705460 -0.057301
N26   N     N_R   0.388380 0.576500 0.294540 -0.057938
N27   N     N_R   0.111620 0.076500 0.705460 -0.063967
N28   N     N_R   0.888380 0.076500 0.294540 -0.059502
C37   C     C_R   0.392276 0.620986 0.588054 0.151061
C38   C     C_R   0.604879 0.623360 0.409092 0.164758
C39   C     C_R   0.899005 0.130384 0.589257 0.194224
C40   C     C_R   0.099747 0.132249 0.410117 0.201991
N29   N     N_R   0.421010 0.576890 0.556640 -0.079176
N30   N     N_R   0.578990 0.576890 0.443360 -0.077932
N31   N     N_R   0.921010 0.076890 0.556640 -0.076047
N32   N     N_R   0.078990 0.076890 0.443360 -0.076942
Ni1   Ni    Ni4+2 0.383200 0.500680 0.370150 0.262104
Ni2   Ni    Ni4+2 0.616800 0.500680 0.629850 0.250553
Ni3   Ni    Ni4+2 0.883200 0.000680 0.370150 0.254038
Ni4   Ni    Ni4+2 0.116800 0.000680 0.629850 0.247301
Ni5   Ni    Ni4+2 0.512440 0.500680 0.370150 0.305496
Ni6   Ni    Ni4+2 0.487560 0.500680 0.629850 0.309638
Ni7   Ni    Ni4+2 0.012440 0.000680 0.370150 0.291854
Ni8   Ni    Ni4+2 0.987560 0.000680 0.629850 0.299590
C41   C     C_R   0.334277 0.657206 0.493134 -0.066504
C42   C     C_R   0.664182 0.656841 0.502974 -0.075679
C43   C     C_R   0.843672 0.169756 0.493810 -0.084377
C44   C     C_R   0.153986 0.171436 0.504976 -0.099702
C45   C     C_R   0.352870 0.634771 0.140953 0.062909
C46   C     C_R   0.615475 0.682375 0.784877 0.036746
C47   C     C_R   0.851687 0.131051 0.137852 0.076818
C48   C     C_R   0.150241 0.123358 0.864941 0.055747
C49   C     C_2   0.668996 0.773061 0.429753 -0.372127
C50   C     C_2   0.330788 0.772457 0.566732 -0.422253
C51   C     C_2   0.162073 0.287235 0.431762 -0.398734
C52   C     C_2   0.837154 0.285223 0.566724 -0.411024
C53   C     C_2   0.704847 0.715689 0.504167 0.376803
C54   C     C_2   0.293957 0.717121 0.491377 0.351598
C55   C     C_2   0.195334 0.232162 0.510513 0.360211
C56   C     C_2   0.802826 0.231295 0.488610 0.353432
H21   H     H_    0.611776 0.776059 0.373881 0.181855
H22   H     H_    0.388035 0.773147 0.621758 0.180031
H23   H     H_    0.104901 0.289274 0.370364 0.185679
H24   H     H_    0.894390 0.285429 0.626771 0.187409
C57   C     C_2   0.201162 0.328053 0.406805 0.437389
C58   C     C_2   0.799590 0.327178 0.593468 0.449084
C59   C     C_2   0.704342 0.820467 0.404422 0.422127
C60   C     C_2   0.297209 0.819886 0.595228 0.463229
C61   C     C_2   0.253502 0.373250 0.486291 -0.220524
C62   C     C_2   0.747002 0.373893 0.514134 -0.224535
C63   C     C_2   0.755462 0.865522 0.486244 -0.217620
C64   C     C_2   0.245036 0.866119 0.514390 -0.231810
H25   H     H_    0.256271 0.388398 0.555976 0.198115
H26   H     H_    0.743669 0.389630 0.443784 0.194426
H27   H     H_    0.758876 0.875112 0.557871 0.204827
H28   H     H_    0.239615 0.876751 0.440829 0.187919
H29   H     H_    0.705205 0.215369 0.802504 0.182874
H30   H     H_    0.283205 0.226464 0.172319 0.183113
H31   H     H_    0.205389 0.716392 0.803764 0.187163
H32   H     H_    0.737703 0.801888 0.041295 0.161552
C65   C     C_2   0.644220 0.243861 0.848351 -0.114298
C66   C     C_2   0.369064 0.239518 0.176882 -0.086766
C67   C     C_2   0.145825 0.745426 0.852144 -0.124376
C68   C     C_2   0.807839 0.848133 0.025917 -0.020538
C69   C     C_2   0.691196 0.201032 0.853553 -0.149756
C70   C     C_2   0.306789 0.211008 0.135768 -0.185981
C71   C     C_2   0.192195 0.702427 0.855985 -0.137199
C72   C     C_2   0.746993 0.816054 0.984241 -0.195547
C73   C     C_2   0.307250 0.669360 0.029110 0.040774
C74   C     C_2   0.638293 0.754975 0.844179 0.043714
C75   C     C_2   0.806120 0.165156 0.025479 0.037363
C76   C     C_2   0.200636 0.144668 0.982627 0.041975
C77   C     C_2   0.239007 0.649398 0.949960 0.265109
C78   C     C_2   0.694983 0.790326 0.869475 0.312908
C79   C     C_2   0.737165 0.147366 0.947266 0.272644
C80   C     C_2   0.259776 0.182857 0.021477 0.281677
H33   H     H_    0.630758 0.229844 0.900288 0.185746
H34   H     H_    0.395335 0.220775 0.145822 0.201668
H35   H     H_    0.133189 0.731626 0.905220 0.181118
H36   H     H_    0.822924 0.860863 0.976078 0.200602
N33   N     N_R   0.780456 0.708548 0.578070 0.246304
O1    O     O_R   0.816260 0.703212 0.684853 -0.297876
O2    O     O_R   0.812333 0.696135 0.538349 -0.322419
N34   N     N_R   0.218416 0.711016 0.419686 0.255843
O3    O     O_R   0.182475 0.696411 0.314851 -0.328837
O4    O     O_R   0.187577 0.704781 0.462153 -0.320265
N35   N     N_R   0.270894 0.225742 0.590820 0.247581
O5    O     O_R   0.302871 0.230213 0.696289 -0.289753
O6    O     O_R   0.305947 0.202047 0.560191 -0.316751
N36   N     N_R   0.727225 0.226842 0.410304 0.250410
O7    O     O_R   0.694117 0.230594 0.304232 -0.330222
O8    O     O_R   0.693314 0.204842 0.443737 -0.321008
N37   N     N_R   0.196790 0.298345 0.317355 0.254351
O9    O     O_R   0.247967 0.256438 0.338991 -0.351750
O10   O     O_R   0.135926 0.297556 0.217623 -0.300856
N38   N     N_R   0.805426 0.297116 0.684707 0.256144
O11   O     O_R   0.755040 0.255944 0.665564 -0.354813
O12   O     O_R   0.867011 0.294648 0.783451 -0.296221
N39   N     N_R   0.698210 0.797656 0.310629 0.254829
O13   O     O_R   0.749408 0.759969 0.326217 -0.332917
O14   O     O_R   0.635948 0.796006 0.213006 -0.297972
N40   N     N_R   0.306079 0.795996 0.691534 0.257268
O15   O     O_R   0.256517 0.758162 0.679708 -0.357410
O16   O     O_R   0.369331 0.793331 0.787504 -0.294607
N41   N     N_R   0.210550 0.580300 0.957674 0.246627
O17   O     O_R   0.143134 0.575107 0.902757 -0.319391
O18   O     O_R   0.249149 0.518358 0.001621 -0.343233
N42   N     N_R   0.709454 0.790246 0.793745 0.228143
O19   O     O_R   0.658229 0.801319 0.687822 -0.378139
O20   O     O_R   0.771653 0.772024 0.827976 -0.365146
N43   N     N_R   0.707306 0.079954 0.955728 0.244444
O21   O     O_R   0.639927 0.077054 0.902322 -0.325435
O22   O     O_R   0.744301 0.016954 0.998497 -0.406153
N44   N     N_R   0.269266 0.212801 0.945953 0.228363
O23   O     O_R   0.228188 0.267477 0.876088 -0.325026
O24   O     O_R   0.320310 0.187594 0.949762 -0.356368
I1    I     I_    0.352191 0.763522 0.007038 -0.199908
I2    I     I_    0.592174 0.789513 0.916542 -0.144692
I3    I     I_    0.852785 0.256411 0.001864 -0.194828
I4    I     I_    0.177865 0.110237 0.087768 -0.152482
N45   N     N_R   0.591847 0.411093 0.300860 0.241159
O25   O     O_R   0.623867 0.377433 0.270465 -0.303100
O26   O     O_R   0.533234 0.447945 0.226310 -0.377216
N46   N     N_R   0.408157 0.407846 0.699291 0.239089
O27   O     O_R   0.376852 0.372343 0.729757 -0.290248
O28   O     O_R   0.465585 0.444815 0.773520 -0.376630
N47   N     N_R   0.093066 0.904673 0.302981 0.232461
O29   O     O_R   0.114261 0.855685 0.267776 -0.312676
O30   O     O_R   0.052108 0.961038 0.238251 -0.400616
N48   N     N_R   0.908027 0.907683 0.698896 0.236827
O31   O     O_R   0.880343 0.867671 0.732224 -0.301549
O32   O     O_R   0.961596 0.950712 0.769799 -0.392312
I5    I     I_    0.778854 0.455682 0.747673 -0.242543
I6    I     I_    0.221303 0.458257 0.251557 -0.207360
I7    I     I_    0.278431 0.958096 0.744385 -0.231379
I8    I     I_    0.720894 0.964419 0.259679 -0.230684
I9    I     I_    0.406606 0.610133 0.736975 -0.107816
I10   I     I_    0.586068 0.618925 0.256753 -0.135989
I11   I     I_    0.915842 0.128261 0.739985 -0.136217
I12   I     I_    0.082835 0.135659 0.259220 -0.128757

loop_
_geom_bond_atom_site_label_1
_geom_bond_atom_site_label_2
_geom_bond_distance
_ccdc_geom_bond_type
C57   N37   1.438172 S    
N47   O29   1.300212 A    
N44   O23   1.301199 A    
C39   N31   1.339931 A    
C13   C18   1.384161 A    
C51   C57   1.444522 S    
N37   O9    1.301632 A    
C6    N6    1.348629 A    
C22   C61   1.454013 S    
N35   O5    1.300506 A    
N6    N10   1.362189 A    
N5    Ni5   1.843709 S    
C7    C23   1.387804 A    
C4    H4    1.078315 S    
C32   N24   1.344986 A    
C50   H22   1.088062 S    
N16   Ni7   1.883342 S    
N40   O15   1.301512 A    
C12   I8    2.132606 S    
C49   H21   1.087482 S    
C23   C64   1.446455 S    
N39   O14   1.301008 A    
C6    N46   1.435950 S    
N41   O17   1.301158 A    
C7    N7    1.345740 A    
N47   O30   1.297672 A    
C3    C19   1.384295 A    
C26   H10   1.076221 S    
N17   N29   1.362043 A    
N12   Ni3   1.865649 S    
C1    H1    1.077578 S    
C32   H16   1.072450 S    
N35   O6    1.300789 A    
C37   N29   1.340081 A    
C3    H3    1.076834 S    
C25   C41   1.363543 A    
N42   O20   1.301307 A    
N48   O32   1.299881 A    
C76   C80   1.352747 D    
C48   C76   1.470229 S    
N2    Ni2   1.847311 S    
C27   C43   1.367820 A    
C13   H5    1.076685 S    
C35   C48   1.377804 A    
C25   N17   1.328404 A    
N42   O19   1.301580 A    
C14   N14   1.342137 A    
C51   H23   1.086914 S    
C70   C80   1.466745 S    
N45   O26   1.300025 A    
N22   N25   1.412348 A    
C33   H17   1.072044 S    
C80   N44   1.442665 S    
N21   N26   1.412493 A    
C28   N20   1.325694 A    
C50   C60   1.434201 S    
C74   C78   1.343647 D    
C67   C71   1.338228 D    
C76   I4    2.140438 S    
N33   O1    1.300340 A    
C40   N32   1.346207 A    
N44   O24   1.301397 A    
N46   O27   1.299640 A    
C72   C78   1.463993 S    
C14   C17   1.378321 A    
C75   I3    2.138047 S    
C11   N11   1.324603 A    
N31   Ni8   1.826764 S    
C4    N4    1.337523 A    
C29   C45   1.381542 A    
C50   C54   1.344093 D    
N30   Ni5   1.849799 S    
C73   I1    2.137107 S    
C49   C53   1.341554 D    
C60   C64   1.342292 D    
C66   H34   1.084474 S    
N10   Ni1   1.865649 S    
N41   O18   1.301867 A    
N9    Ni2   1.878310 S    
N33   O2    1.300435 A    
N26   Ni1   1.830497 S    
N17   Ni1   1.861133 S    
C18   C65   1.465918 S    
N36   O8    1.301085 A    
C41   C54   1.432082 S    
N37   O10   1.300920 A    
C30   N22   1.335449 A    
C56   N36   1.438595 S    
N11   Ni4   1.878310 S    
C2    H2    1.077932 S    
N19   Ni3   1.861133 S    
C34   N26   1.338155 A    
N14   Ni5   1.883342 S    
C64   H28   1.087085 S    
C33   N25   1.334942 A    
N13   Ni6   1.859702 S    
C40   C44   1.394807 A    
N38   O12   1.300874 A    
C32   C48   1.386032 A    
C9    C21   1.370825 A    
N20   N32   1.362187 A    
C31   H15   1.072295 S    
C36   N28   1.339795 A    
C11   C23   1.366724 A    
C15   C20   1.385710 A    
C14   H6    1.077610 S    
C28   H12   1.079458 S    
C12   C24   1.367314 A    
C36   H20   1.080269 S    
C1    N1    1.336270 A    
C6    C22   1.392521 A    
C38   N30   1.341317 A    
C52   H24   1.087148 S    
C30   H14   1.066354 S    
N48   O31   1.300146 A    
C49   C59   1.434377 S    
C78   N42   1.444526 S    
N8    N12   1.362189 A    
C79   N43   1.443297 S    
N1    Ni1   1.860813 S    
N23   Ni7   1.842812 S    
C77   N41   1.443548 S    
N28   Ni3   1.830497 S    
N34   O4    1.300630 A    
C58   C62   1.343695 D    
C75   C79   1.355762 D    
C38   I10   2.123426 S    
C57   C61   1.344663 D    
C37   I9    2.132611 S    
H30   C70   1.083661 S    
C44   C55   1.441675 S    
C47   C75   1.469597 S    
C59   C63   1.344830 D    
N39   O13   1.301524 A    
N8    Ni8   1.866833 S    
C67   H35   1.086876 S    
C21   C62   1.452772 S    
C8    N8    1.346310 A    
C45   C73   1.467129 S    
N7    Ni7   1.843709 S    
C65   C69   1.338188 D    
C26   N18   1.329871 A    
C65   H33   1.086820 S    
C19   C68   1.452985 S    
C59   N39   1.439000 S    
N19   N31   1.362043 A    
N18   N30   1.362187 A    
C54   N34   1.441368 S    
C17   C66   1.454714 S    
C5    N45   1.436251 S    
C68   H36   1.083134 S    
C39   C43   1.390836 A    
N20   Ni4   1.848375 S    
C1    C17   1.385478 A    
C10   C22   1.370077 A    
C31   N23   1.342875 A    
C26   C42   1.360325 A    
C20   C67   1.465403 S    
C58   N38   1.437785 S    
N2    N13   1.378821 A    
C61   H25   1.085712 S    
C66   C70   1.332843 D    
N36   O7    1.300655 A    
C15   H7    1.077364 S    
C74   I2    2.151425 S    
C31   C47   1.380643 A    
C38   C42   1.382811 A    
C16   H8    1.074565 S    
C52   C56   1.342017 D    
C37   C41   1.382842 A    
N38   O11   1.301631 A    
C69   C79   1.468781 S    
C12   N12   1.325283 A    
N23   N28   1.412493 A    
N24   Ni8   1.866360 S    
N3    Ni3   1.860813 S    
C9    N9    1.327706 A    
C28   C44   1.365440 A    
C5    C21   1.391320 A    
C39   I11   2.121220 S    
C40   I12   2.123170 S    
H29   C69   1.085652 S    
C68   C72   1.326555 D    
N40   O16   1.300979 A    
C30   C46   1.376667 A    
N45   O25   1.299584 A    
C36   C47   1.382522 A    
C4    C20   1.386338 A    
C52   C58   1.442316 S    
C8    N48   1.434472 S    
C46   C74   1.464848 S    
C5    N5    1.346647 A    
N29   Ni6   1.826764 S    
C29   N21   1.342611 A    
N34   O3    1.300613 A    
N4    N15   1.378821 A    
C43   C56   1.439180 S    
N18   Ni2   1.848375 S    
N5    N9    1.362042 A    
N43   O21   1.301812 A    
H32   C72   1.084708 S    
C42   C53   1.434092 S    
C34   C45   1.382943 A    
C8    C24   1.390006 A    
N25   Ni2   1.844093 S    
C35   N27   1.325115 A    
C33   C46   1.392683 A    
C11   I7    2.131831 S    
C60   N40   1.438113 S    
C2    C18   1.385198 A    
C25   H9    1.078704 S    
N27   Ni4   1.844093 S    
C10   I6    2.131800 S    
H31   C71   1.085596 S    
N1    N14   1.378675 A    
C16   C19   1.369761 A    
C9    I5    2.133111 S    
C27   H11   1.078239 S    
C16   N16   1.338775 A    
C55   N35   1.438720 S    
N3    N16   1.378675 A    
C63   H27   1.085944 S    
N43   O22   1.301141 A    
N24   N27   1.412348 A    
C3    N3    1.331205 A    
C10   N10   1.326185 A    
C29   H13   1.071372 S    
C71   C77   1.466718 S    
C27   N19   1.328291 A    
N15   Ni8   1.859702 S    
N46   O28   1.299713 A    
C34   H18   1.080286 S    
C13   N13   1.348271 A    
C15   N15   1.346838 A    
C62   H26   1.085558 S    
N4    Ni4   1.847311 S    
C51   C55   1.341314 D    
C7    N47   1.429932 S    
N6    Ni6   1.866833 S    
C53   N33   1.440035 S    
C35   H19   1.079056 S    
C73   C77   1.355250 D    
N22   Ni6   1.866360 S    
N32   Ni7   1.849799 S    
N21   Ni5   1.842812 S    
N7    N11   1.362042 A    
C24   C63   1.448777 S    
C2    N2    1.338894 A    
