data_mof_unit_60690.cif
_audit_creation_date              2012-10-26T19:31:27-0400
_audit_creation_method            fapswitch 2.2
_symmetry_space_group_name_H-M    P1
_symmetry_Int_Tables_number       1
_space_group_crystal_system       triclinic
_cell_length_a                    14.632373
_cell_length_b                    15.869515
_cell_length_c                    17.37658
_cell_angle_alpha                 89.984516
_cell_angle_beta                  86.016445
_cell_angle_gamma                 90.089655
_cell_volume                      4025.23876957

loop_
_atom_site_label
_atom_site_type_symbol
_atom_type_description
_atom_site_fract_x
_atom_site_fract_y
_atom_site_fract_z
_atom_type_partial_charge
Br1   Br    Br    0.601320 0.354995 0.725541 -0.481058
Br2   Br    Br    0.397584 0.643618 0.273493 -0.485775
Br3   Br    Br    0.060585 0.564249 0.667369 -0.449108
Br4   Br    Br    0.939251 0.435778 0.332301 -0.471527
Br5   Br    Br    0.632956 0.347408 0.283232 -0.426800
Br6   Br    Br    0.365765 0.651525 0.718275 -0.414477
C1    C     C_R   0.500067 0.660581 0.499997 0.571797
C2    C     C_3   0.586562 0.028219 0.500551 -0.092698
C3    C     C_3   0.500077 0.917456 0.500021 0.042364
C4    C     C_3   0.499933 0.082545 0.499987 0.042550
C5    C     C_1   0.500136 0.825818 0.500030 -0.021117
C6    C     C_1   0.499870 0.174183 0.499976 -0.020304
C7    C     C_3   0.031794 0.421384 0.486334 -0.113906
C8    C     C_3   0.968211 0.578565 0.513343 -0.115265
C9    C     C_3   0.964523 0.447871 0.555395 -0.109624
C10   C     C_3   0.035486 0.552080 0.444284 -0.109327
C11   C     C_3   0.974893 0.473871 0.431776 0.185427
C12   C     C_R   0.499933 0.339419 0.500006 0.573006
C13   C     C_3   0.025097 0.526080 0.567898 0.183863
C14   C     C_3   0.908479 0.500083 0.500131 -0.009282
C15   C     C_3   0.091530 0.499870 0.499561 -0.009952
C16   C     C_R   0.488238 0.500353 0.649869 0.597907
C17   C     C_R   0.511804 0.499513 0.350137 0.598381
C18   C     C_1   0.805806 0.500041 0.500101 0.204269
C19   C     C_1   0.194201 0.499937 0.499758 0.204790
C20   C     C_R   0.482696 0.503873 0.733579 -0.005056
C21   C     C_R   0.517949 0.495915 0.266430 -0.007139
C22   C     C_R   0.534654 0.447036 0.774559 0.118334
C23   C     C_3   0.462481 0.027947 0.436395 -0.093918
C24   C     C_R   0.466778 0.552836 0.224910 0.117087
C25   C     C_R   0.539013 0.456576 0.853468 -0.123887
C26   C     C_R   0.464952 0.544168 0.145720 -0.124321
C27   C     C_R   0.490014 0.520967 0.892983 -0.020132
C28   C     C_R   0.516348 0.481089 0.106456 -0.026277
C29   C     C_R   0.434681 0.575844 0.852907 0.290749
C30   C     C_R   0.572025 0.426784 0.147116 0.304212
C31   C     C_R   0.432456 0.568459 0.772764 0.138178
C32   C     C_R   0.570001 0.432219 0.227611 0.142181
C33   C     C_2   0.498488 0.533439 0.975774 -0.136601
C34   C     C_3   0.537529 0.972055 0.563613 -0.093806
C35   C     C_2   0.508546 0.468535 0.023595 -0.142311
C36   C     C_3   0.301269 0.609721 0.920008 0.002150
C37   C     C_3   0.249574 0.679668 0.963997 -0.333514
C38   C     C_3   0.701408 0.397532 0.069071 -0.016638
C39   C     C_3   0.783125 0.395442 0.118912 -0.321651
C40   C     C_3   0.549110 0.972082 0.436958 -0.094219
C41   C     C_3   0.450900 0.027920 0.563050 -0.094117
C42   C     C_1   0.500149 0.750278 0.500021 0.029101
C43   C     C_1   0.499853 0.249723 0.499984 0.030466
C44   C     C_3   0.413448 0.971783 0.499458 -0.093077
Cu1   Cu    Cu3+1 0.409780 0.500000 0.499990 1.102849
Cu2   Cu    Cu3+1 0.590220 0.500000 0.500010 1.100441
H1    H     H_    0.057464 0.356542 0.474615 0.147198
H2    H     H_    0.568326 0.947738 0.615828 0.136512
H3    H     H_    0.657608 0.052765 0.500996 0.137283
H4    H     H_    0.342402 0.947238 0.499012 0.137076
H5    H     H_    0.935805 0.405289 0.601689 0.156391
H6    H     H_    0.064205 0.594664 0.397992 0.156045
H7    H     H_    0.308699 0.555990 0.960390 0.129870
H8    H     H_    0.259884 0.589040 0.871946 0.182761
H9    H     H_    0.239773 0.733963 0.925087 0.193477
H10   H     H_    0.181424 0.656232 0.986762 0.118978
H11   H     H_    0.288675 0.700769 0.013073 0.169134
H12   H     H_    0.942540 0.643407 0.525064 0.146740
H13   H     H_    0.692163 0.462893 0.047324 0.124353
H14   H     H_    0.717878 0.357691 0.017453 0.166284
H15   H     H_    0.793343 0.330573 0.140678 0.212161
H16   H     H_    0.845954 0.415483 0.084156 0.118694
H17   H     H_    0.771707 0.439180 0.168483 0.194420
H18   H     H_    0.512536 0.404467 0.001752 0.171833
H19   H     H_    0.494541 0.597449 0.997794 0.174699
H20   H     H_    0.420952 0.585584 0.115427 0.156865
H21   H     H_    0.583052 0.414744 0.883259 0.155732
H22   H     H_    0.589416 0.947792 0.385205 0.135056
H23   H     H_    0.410594 0.052210 0.614803 0.135334
H24   H     H_    0.431685 0.052263 0.384180 0.136376
N1    N     N_1   0.725810 0.500000 0.500030 -0.169609
N2    N     N_1   0.274190 0.500000 0.499970 -0.169166
O1    O     O_R   0.423830 0.620920 0.499990 -0.460854
O2    O     O_3   0.622391 0.363286 0.109496 -0.522420
O3    O     O_R   0.576170 0.379080 0.500010 -0.460112
O4    O     O_R   0.576200 0.620920 0.500000 -0.511634
O5    O     O_R   0.423800 0.379080 0.500000 -0.511459
O6    O     O_R   0.414980 0.500010 0.613590 -0.469069
O7    O     O_R   0.585020 0.499990 0.386410 -0.471234
O8    O     O_R   0.567350 0.500010 0.613600 -0.472520
O9    O     O_R   0.432650 0.499990 0.386400 -0.471002
O10   O     O_3   0.387581 0.640564 0.891267 -0.527416

loop_
_geom_bond_atom_site_label_1
_geom_bond_atom_site_label_2
_ccdc_geom_bond_type
C34   C41   S    
C10   C15   S    
C38   H14   S    
C12   O3    A    
C6    C43   T    
C38   H13   S    
C37   H11   S    
C33   C35   D    
C23   H24   S    
C9    C13   S    
C27   C33   S    
Cu2   O7    S    
C29   C31   A    
C25   H21   S    
C21   C32   A    
C11   C14   S    
C14   C18   S    
C10   C11   S    
C39   H15   S    
Br1   C22   S    
C25   C27   A    
Br3   C13   S    
C17   C21   S    
C3    C40   S    
C17   O9    A    
Br5   C32   S    
C21   C24   A    
C9    H5    S    
C5    C42   T    
C28   C35   S    
C2    H3    S    
C41   C44   S    
C7    H1    S    
C23   C44   S    
C9    C14   S    
C39   H17   S    
C19   N2    T    
C8    C14   S    
C38   O2    S    
C26   H20   S    
C30   O2    S    
Cu1   O9    S    
C3    C34   S    
C44   H4    S    
Cu1   Cu2   S    
C16   O6    A    
C29   O10   S    
C8    H12   S    
C39   H16   S    
C12   O5    A    
Br6   C31   S    
C7    C15   S    
C10   H6    S    
Cu2   O4    S    
C3    C5    S    
C4    C6    S    
Br4   C11   S    
C34   H2    S    
C7    C9    S    
C17   O7    A    
C8    C10   S    
C36   O10   S    
C36   C37   S    
C36   H8    S    
Cu2   N1    S    
Cu1   O5    S    
C40   H22   S    
C38   C39   S    
C37   H9    S    
C1    O1    A    
C15   C19   S    
C13   C15   S    
C8    C13   S    
C22   C25   A    
C3    C44   S    
C36   H7    S    
C20   C31   A    
C20   C22   A    
C7    C11   S    
C23   C40   S    
Br2   C24   S    
C1    C42   S    
C30   C32   A    
Cu1   N2    S    
C41   H23   S    
C24   C26   A    
C4    C23   S    
Cu2   O8    S    
C27   C29   A    
C28   C30   A    
C16   O8    A    
Cu2   O3    S    
Cu1   O1    S    
C18   N1    T    
C1    O4    A    
C12   C43   S    
C2    C4    S    
C16   C20   S    
C4    C41   S    
C33   H19   S    
C2    C34   S    
C2    C40   S    
Cu1   O6    S    
C37   H10   S    
C26   C28   A    
C35   H18   S    
