data_mof_unit_14328.cif
_audit_creation_date              2012-12-11T16:57:14-0500
_audit_creation_method            fapswitch 2.2
_symmetry_space_group_name_H-M    P1
_symmetry_Int_Tables_number       1
_space_group_crystal_system       triclinic
_cell_length_a                    14.550364
_cell_length_b                    16.136423
_cell_length_c                    6.955871
_cell_angle_alpha                 89.869465
_cell_angle_beta                  98.753524
_cell_angle_gamma                 89.965112
_cell_volume                      1614.14679954

loop_
_atom_site_label
_atom_site_type_symbol
_atom_type_description
_atom_site_fract_x
_atom_site_fract_y
_atom_site_fract_z
_atom_type_partial_charge
O1    O     O_R   0.584990 0.413650 0.534420 -0.550062
O2    O     O_R   0.584990 0.586350 0.534420 -0.532617
O3    O     O_R   0.596190 0.585230 0.208380 -0.537457
O4    O     O_R   0.596190 0.414770 0.208380 -0.520315
O5    O     O_R   0.415010 0.586420 0.976930 -0.537500
O6    O     O_R   0.415010 0.413580 0.976930 -0.529650
C1    C     C_R   0.618196 0.614799 0.383812 0.689867
C2    C     C_R   0.618300 0.385367 0.384084 0.712188
O7    O     O_3   0.440560 0.500000 0.319140 -0.381504
V1    V     V_3+5 0.511030 0.500000 0.068070 1.478965
O8    O     O_R   0.403810 0.414840 0.643540 -0.551342
O9    O     O_R   0.403810 0.585160 0.643540 -0.543263
C3    C     C_R   0.381442 0.386194 0.805944 0.790616
C4    C     C_R   0.380720 0.613309 0.805658 0.818976
V2    V     V_3+5 0.488970 0.500000 0.560620 1.438522
O10   O     O_3   0.559440 0.500000 0.859420 -0.368383
H1    H     H_    0.188079 0.806015 0.806367 0.153695
H2    H     H_    0.189351 0.193382 0.806244 0.154208
H3    H     H_    0.318615 0.693025 0.101341 0.153361
H4    H     H_    0.319370 0.305986 0.101644 0.160227
C5    C     C_2   0.311660 0.681333 0.796190 -0.324977
C6    C     C_2   0.312707 0.318070 0.796617 -0.338838
C7    C     C_2   0.287533 0.715444 0.958700 -0.116129
C8    C     C_2   0.288484 0.283749 0.958985 -0.109301
H5    H     H_    0.225577 0.795342 0.253757 0.126839
H6    H     H_    0.225488 0.204190 0.253451 0.128761
C9    C     C_2   0.194634 0.818030 0.111282 -0.338589
C10   C     C_2   0.194892 0.181537 0.110990 -0.334925
C11   C     C_2   0.219072 0.783750 0.949210 -0.126559
C12   C     C_2   0.219958 0.215607 0.949102 -0.135159
H7    H     H_    0.280665 0.704349 0.654050 0.117508
H8    H     H_    0.281913 0.295203 0.654489 0.120855
C13   C     C_R   0.742132 0.695582 0.598361 0.036364
C14   C     C_R   0.680716 0.254528 0.558419 0.093820
C15   C     C_R   0.689569 0.681874 0.415683 -0.103663
C16   C     C_R   0.684311 0.314153 0.412542 -0.113360
C17   C     C_R   0.704068 0.736981 0.266912 -0.148790
C18   C     C_R   0.749694 0.300285 0.285213 -0.139981
H9    H     H_    0.659818 0.733173 0.130066 0.158195
H10   H     H_    0.753952 0.342826 0.166554 0.120220
C19   C     C_R   0.769043 0.802313 0.299506 -0.165188
C20   C     C_R   0.814582 0.234424 0.317350 -0.187944
H11   H     H_    0.774065 0.846014 0.183705 0.131892
H12   H     H_    0.866503 0.228419 0.222199 0.120176
C21   C     C_R   0.821930 0.815022 0.483898 -0.076889
C22   C     C_R   0.816571 0.180685 0.478570 -0.110430
C23   C     C_R   0.809152 0.758552 0.631016 0.090630
C24   C     C_R   0.745489 0.190517 0.591333 0.120490
C25   C     C_3   0.783926 0.778005 0.825443 -0.464807
C26   C     C_3   0.748000 0.193361 0.806070 -0.453652
C27   C     C_3   0.707303 0.713560 0.784549 -0.182063
C28   C     C_3   0.675951 0.262850 0.770651 -0.200577
H13   H     H_    0.759486 0.842967 0.835788 0.197095
H14   H     H_    0.722400 0.134789 0.863798 0.192090
H15   H     H_    0.840380 0.759239 0.943642 0.158624
H16   H     H_    0.816545 0.214757 0.881920 0.158239
H17   H     H_    0.716295 0.659317 0.884637 0.116861
H18   H     H_    0.702021 0.323737 0.830383 0.112844
O11   O     O_R   0.921430 0.915960 0.371040 -0.539184
O12   O     O_R   0.921430 0.084040 0.371040 -0.535892
O13   O     O_R   0.910450 0.087500 0.697310 -0.543024
O14   O     O_R   0.910450 0.912500 0.697310 -0.541474
O15   O     O_R   0.091710 0.087460 0.928430 -0.541298
O16   O     O_R   0.091710 0.912540 0.928430 -0.540674
C29   C     C_R   0.888033 0.114281 0.519169 0.702777
C30   C     C_R   0.888278 0.885562 0.519830 0.695178
O17   O     O_3   0.065970 1.000000 0.586140 -0.371135
V3    V     V_3+5 0.995640 1.000000 0.837400 1.413726
O18   O     O_R   0.103020 0.915700 0.261710 -0.541953
O19   O     O_R   0.103020 0.084300 0.261710 -0.542489
C31   C     C_R   0.125316 0.885947 0.100290 0.757936
C32   C     C_R   0.125392 0.113920 0.100094 0.754004
V4    V     V_3+5 0.017940 0.000000 0.344880 1.400801
O20   O     O_3   0.947330 0.000000 0.046180 -0.372244
C33   C     C_2   0.610688 0.751170 0.752820 0.780398
O21   O     O_2   0.548849 0.718933 0.827292 -0.575894
O22   O     O_R   0.591827 0.821810 0.636379 -0.654506
H19   H     H_    0.524604 0.840224 0.625476 0.294230
C34   C     C_2   0.582711 0.238296 0.821330 0.800418
O23   O     O_2   0.552971 0.273214 0.954754 -0.561709
O24   O     O_R   0.531069 0.175039 0.718684 -0.659700
H20   H     H_    0.469779 0.164661 0.767107 0.293494

loop_
_geom_bond_atom_site_label_1
_geom_bond_atom_site_label_2
_ccdc_geom_bond_type
C9    C11   D    
O1    C2    A    
H1    C11   S    
V4    O20   S    
O2    C1    A    
O4    C2    A    
O24   H20   S    
C23   C25   S    
O22   H19   S    
C5    H7    S    
C26   H14   S    
C6    H8    S    
C7    C11   S    
C4    C5    S    
C15   C17   A    
C27   C33   S    
C18   C20   A    
O3    C1    A    
O11   C30   A    
C20   C22   A    
V3    O20   S    
V2    O10   S    
O12   V4    S    
C2    C16   S    
O16   C31   A    
O18   C31   A    
O8    V2    S    
H4    C8    S    
C25   C27   S    
C26   C28   S    
O18   V4    S    
O1    V2    S    
C28   C34   S    
O7    V1    S    
O11   V4    S    
C24   C26   S    
C19   H11   S    
C10   C32   S    
C20   H12   S    
H6    C10   S    
C21   C23   A    
C22   C24   A    
O14   C30   A    
O17   V3    S    
C22   C29   S    
C34   O24   S    
C25   H15   S    
C26   H16   S    
H3    C7    S    
C33   O21   D    
O9    V2    S    
O19   V4    S    
O2    V2    S    
C33   O22   S    
O5    C4    A    
C28   H18   S    
C27   H17   S    
O17   V4    S    
O9    C4    A    
O12   C29   A    
C5    C7    D    
H2    C12   S    
C13   C23   A    
C6    C8    D    
C14   C24   A    
O4    V1    S    
O16   V3    S    
C9    C31   S    
O15   V3    S    
C1    C15   S    
O6    V1    S    
C13   C27   S    
C14   C28   S    
O14   V3    S    
C16   C18   A    
O7    V2    S    
O5    V1    S    
C17   H9    S    
O3    V1    S    
V1    O10   S    
O6    C3    A    
C18   H10   S    
O8    C3    A    
O13   V3    S    
C25   H13   S    
C10   C12   D    
C13   C15   A    
C3    C6    S    
C14   C16   A    
C17   C19   A    
C8    C12   S    
C34   O23   D    
O13   C29   A    
O15   C32   A    
C21   C30   S    
C19   C21   A    
O19   C32   A    
H5    C9    S    
