data_mof_unit_49000.cif
_audit_creation_date              2013-03-05T15:55:17-0500
_audit_creation_method            fapswitch 2.2
_symmetry_space_group_name_H-M    P1
_symmetry_Int_Tables_number       1
_space_group_crystal_system       triclinic
_cell_length_a                    27.603049
_cell_length_b                    10.625226
_cell_length_c                    9.970961
_cell_angle_alpha                 89.213447
_cell_angle_beta                  90.808688
_cell_angle_gamma                 93.397581
_cell_volume                      2918.69524037

loop_
_atom_site_label
_atom_site_type_symbol
_atom_site_description
_atom_site_fract_x
_atom_site_fract_y
_atom_site_fract_z
_atom_type_partial_charge
O1    O     O_R   0.500000 0.316780 0.614690 -0.569976
O2    O     O_R   0.500000 0.316750 0.385360 -0.618304
C1    C     C_R   0.500001 0.260851 0.500669 0.971137
O3    O     O_R   0.428760 0.500030 0.614650 -0.598446
O4    O     O_R   0.428750 0.500010 0.385320 -0.645665
C2    C     C_R   0.406042 0.500130 0.498960 1.041330
Zn1   Zn    Zn3+2 0.500000 0.500020 0.653130 1.077594
Zn2   Zn    Zn3+2 0.500000 0.499980 0.346870 1.022908
O5    O     O_R   0.500000 0.683250 0.614640 -0.577922
O6    O     O_R   0.500000 0.683220 0.385310 -0.605081
O7    O     O_R   0.571250 0.499990 0.614680 -0.564199
O8    O     O_R   0.571240 0.499970 0.385350 -0.566384
C3    C     C_R   0.500752 0.739050 0.499156 0.934568
C4    C     C_R   0.593929 0.497470 0.500635 0.929160
C5    C     C_R   0.176240 0.352400 0.503879 0.688334
O9    O     O_2   0.201926 0.250765 0.531380 -0.393389
N1    N     N_R   0.200072 0.467064 0.481975 -0.333614
C6    C     C_R   0.175916 0.572589 0.452656 0.675413
C7    C     C_R   0.276223 0.477963 0.610980 0.672329
C8    C     C_R   0.326688 0.487904 0.615332 -0.232520
C9    C     C_R   0.328100 0.497099 0.371883 -0.177100
C10   C     C_R   0.277746 0.486971 0.367569 0.698219
C11   C     C_R   0.251786 0.476762 0.487015 -0.022290
C12   C     C_R   0.099666 0.448693 0.467068 -0.133373
C13   C     C_R   0.125322 0.340645 0.497463 -0.185278
C14   C     C_R   0.099479 0.224352 0.518179 0.697792
C15   C     C_R   0.125297 0.565318 0.443656 -0.116754
C16   C     C_R   0.352975 0.496109 0.495689 -0.197326
H1    H     H_    0.347485 0.505032 0.278272 0.211494
C17   C     C_R   0.645929 0.475198 0.499737 -0.377498
C18   C     C_R   0.971427 0.323244 0.508168 -0.150799
C19   C     C_R   0.972402 0.532893 0.398966 0.117652
C20   C     C_R   0.946463 0.424895 0.452592 0.022402
C21   C     C_R   0.944244 0.225448 0.576754 0.523065
C22   C     C_R   0.893811 0.223859 0.580703 0.654063
C23   C     C_R   0.868749 0.320239 0.518273 -0.293606
C24   C     C_R   0.895169 0.420139 0.452614 -0.134349
C25   C     C_R   0.870325 0.517037 0.388984 0.016448
C26   C     C_R   0.819869 0.515115 0.396369 0.612872
N2    N     N_R   0.795174 0.421195 0.466345 -0.333567
C27   C     C_R   0.817979 0.323281 0.524325 0.677918
C28   C     C_R   0.711985 0.377864 0.390765 -0.216864
C29   C     C_R   0.663075 0.399281 0.397755 0.585038
C30   C     C_R   0.678668 0.525081 0.598363 0.281751
C31   C     C_R   0.728066 0.502648 0.590345 0.399023
C32   C     C_R   0.744455 0.430704 0.485070 0.025089
O10   O     O_2   0.791528 0.231070 0.589032 -0.424897
C33   C     C_R   0.022627 0.325721 0.496406 0.035204
C34   C     C_R   0.048366 0.440437 0.460601 0.024704
C35   C     C_R   0.023207 0.547144 0.419100 -0.077041
C36   C     C_R   0.049044 0.217295 0.516833 -0.173011
H2    H     H_    0.724999 0.322268 0.309996 0.214663
H3    H     H_    0.031420 0.124354 0.526331 0.254686
O11   O     O_2   0.200977 0.684119 0.432450 -0.468281
C37   C     C_R   0.100005 0.672563 0.414588 -0.126057
H4    H     H_    0.345025 0.488419 0.711969 0.204841
H5    H     H_    0.119006 0.764060 0.401852 0.242514
C38   C     C_R   0.946594 0.622011 0.325398 -0.099913
C39   C     C_R   0.896308 0.614487 0.321124 -0.103220
O12   O     O_2   0.795549 0.607819 0.336853 -0.487823
C40   C     C_R   0.049773 0.664658 0.403214 0.608928
H6    H     H_    0.964601 0.696432 0.266715 0.220945
H7    H     H_    0.877901 0.686756 0.266244 0.212620
C41   C     C_R   0.587801 0.144012 0.571269 -0.186583
H8    H     H_    0.588797 0.245410 0.576556 0.157778
C42   C     C_R   0.630688 0.085504 0.599742 -0.200664
H9    H     H_    0.663410 0.141830 0.625446 0.196388
C43   C     C_R   0.631481 0.954951 0.594207 0.767450
C44   C     C_R   0.589224 0.882583 0.561337 -0.187732
H10   H     H_    0.591303 0.781358 0.557354 0.173790
C45   C     C_R   0.545370 0.940911 0.532230 -0.057148
C46   C     C_R   0.544773 0.072279 0.536034 0.049133
C47   C     C_R   0.501200 0.128360 0.501992 -0.206525
C48   C     C_R   0.458752 0.058158 0.464284 0.345912
C49   C     C_R   0.459136 0.928496 0.462669 0.322813
C50   C     C_R   0.502067 0.871634 0.497276 -0.211842
H11   H     H_    0.561748 0.623872 0.124955 0.185547
C51   C     C_R   0.427907 0.362748 0.145945 -0.215751
H12   H     H_    0.432366 0.338516 0.248771 0.248914
C52   C     C_R   0.384561 0.322336 0.086195 0.636409
C53   C     C_R   0.379910 0.329499 0.949089 -0.250258
H13   H     H_    0.347149 0.286283 0.903786 0.246822
C54   C     C_R   0.420297 0.364680 0.871028 0.333906
C55   C     C_R   0.462573 0.431573 0.929357 -0.028529
C56   C     C_R   0.463941 0.431826 0.073845 0.009570
N3    N     N_R   0.499540 0.498800 0.142780 -0.126549
C57   C     C_R   0.534002 0.567664 0.071491 -0.121167
C58   C     C_R   0.533844 0.568287 0.928984 0.700699
N4    N     N_R   0.499520 0.498720 0.857170 -0.160623
F1    F     F_    0.251029 0.469703 0.726949 -0.587296
Cl1   Cl    Cl    0.659565 0.620936 0.727924 -0.344276
Cl2   Cl    Cl    0.770253 0.567757 0.708884 -0.400330
F2    F     F_    0.027845 0.775118 0.389160 -0.637230
Cl3   Cl    Cl    0.404592 0.131880 0.421767 -0.418568
F3    F     F_    0.254080 0.486268 0.247326 -0.576863
F4    F     F_    0.673465 0.898470 0.620093 -0.565716
Cl4   Cl    Cl    0.405407 0.837011 0.420006 -0.476453
F5    F     F_    0.348430 0.265893 0.160441 -0.563677
Cl5   Cl    Cl    0.417364 0.266411 0.732252 -0.521717
F6    F     F_    0.567253 0.643063 0.863324 -0.592557
F7    F     F_    0.122551 0.116345 0.539803 -0.557806
F8    F     F_    0.632455 0.344406 0.304935 -0.614122
F9    F     F_    0.869900 0.128575 0.649518 -0.522059
F10   F     F_    0.965767 0.137055 0.652577 -0.593253

loop_
_geom_bond_atom_site_label_1
_geom_bond_atom_site_label_2
_geom_bond_distance
_ccdc_geom_bond_type
C38   H6    1.078708 S    
C42   C43   1.390488 A    
C57   C58   1.420802 A    
C47   C48   1.400828 A    
C48   Cl3   1.772018 S    
C7    C8    1.390839 A    
C12   C15   1.408324 A    
C19   C38   1.410070 A    
C8    H4    1.081996 S    
C53   H13   1.085170 S    
C31   C32   1.402589 A    
Zn1   O7    2.009060 S    
N1    C11   1.425289 S    
C23   C24   1.410606 A    
C22   F9    1.358645 S    
C14   F7    1.358314 S    
O4    C2    1.302688 A    
O7    C4    1.307137 A    
C51   C52   1.377272 A    
C5    C13   1.404267 A    
C5    O9    1.349517 S    
Zn1   N4    2.034556 S    
C49   Cl4   1.774264 S    
Zn1   O5    1.979152 S    
C21   C22   1.392312 A    
C28   C32   1.390595 A    
C44   C45   1.416931 A    
C31   Cl2   1.766290 S    
O5    C3    1.287770 A    
O1    Zn1   1.989491 S    
C33   C36   1.410445 A    
C2    C16   1.462808 S    
C22   C23   1.403237 A    
C43   C44   1.396084 A    
C18   C20   1.417556 A    
C42   H9    1.083171 S    
C54   Cl5   1.742969 S    
C9    C10   1.387817 A    
C17   C30   1.413186 A    
C23   C27   1.405855 A    
C4    C17   1.468682 S    
O3    Zn1   1.998210 S    
C53   C54   1.398373 A    
C48   C49   1.378672 A    
C12   C13   1.411427 A    
O3    C2    1.305183 A    
C26   N2    1.364190 A    
N3    C57   1.366697 A    
C52   C53   1.372788 A    
C8    C16   1.404038 A    
C38   C39   1.385704 A    
C56   N3    1.362326 A    
C9    H1    1.082235 S    
C21   F10   1.356686 S    
O1    C1    1.290051 A    
C41   C42   1.393334 A    
C7    C11   1.399598 A    
C49   C50   1.398562 A    
C24   C25   1.409358 A    
C54   C55   1.448811 A    
C3    C50   1.406916 S    
Zn2   O8    1.998206 S    
N1    C6    1.364309 A    
C27   O10   1.349250 S    
C18   C21   1.418790 A    
C43   F4    1.356279 S    
C55   C56   1.440677 A    
C19   C35   1.413364 A    
C58   F6    1.351384 S    
C30   Cl1   1.761592 S    
C51   C56   1.401430 A    
N2    C27   1.365164 A    
C9    C16   1.404304 A    
O8    C4    1.301957 A    
C18   C33   1.418432 A    
C37   H5    1.083688 S    
C17   C29   1.410679 A    
C28   C29   1.385217 A    
N2    C32   1.424680 S    
C45   C50   1.408207 A    
C30   C31   1.401633 A    
C12   C34   1.414139 A    
C5    N1    1.366214 A    
C33   C34   1.417931 A    
C52   F5    1.356506 S    
C51   H12   1.060931 S    
O2    Zn2   1.979150 S    
C6    C15   1.396493 A    
C46   C47   1.408814 A    
O6    C3    1.287347 A    
O4    Zn2   2.009062 S    
C15   C37   1.396200 A    
C39   H7    1.083554 S    
C41   H8    1.078086 S    
O2    C1    1.286828 A    
C13   C14   1.403918 A    
C29   F8    1.358396 S    
C45   C46   1.397927 A    
C7    F1    1.356865 S    
C14   C36   1.389640 A    
C19   C20   1.418397 A    
C25   C26   1.394649 A    
C26   O12   1.350594 S    
C37   C40   1.387256 A    
Zn2   N3    2.035040 S    
C41   C46   1.415366 A    
C44   H10   1.081768 S    
C1    C47   1.409970 S    
C20   C24   1.413774 A    
C6    O11   1.350420 S    
C25   C39   1.396703 A    
C10   F3    1.357131 S    
C58   N4    1.367161 A    
H11   C57   1.081862 S    
Zn2   O6    1.989490 S    
C34   C35   1.418225 A    
C55   N4    1.409816 A    
C35   C40   1.418165 A    
C10   C11   1.398222 A    
C36   H3    1.078231 S    
C40   F2    1.356765 S    
C28   H2    1.083029 S    
