data_mof_unit_54199.cif
_audit_creation_date              2012-12-11T16:35:23-0500
_audit_creation_method            fapswitch 2.2
_symmetry_space_group_name_H-M    P1
_symmetry_Int_Tables_number       1
_space_group_crystal_system       triclinic
_cell_length_a                    6.928273
_cell_length_b                    17.765577
_cell_length_c                    19.420524
_cell_angle_alpha                 109.045547
_cell_angle_beta                  90.507402
_cell_angle_gamma                 90.455779
_cell_volume                      2259.28320645

loop_
_atom_site_label
_atom_site_type_symbol
_atom_type_description
_atom_site_fract_x
_atom_site_fract_y
_atom_site_fract_z
_atom_type_partial_charge
O1    O     O_R   0.505700 0.440210 0.561730 -0.541103
O2    O     O_R   0.169350 0.406300 0.412660 -0.537021
O3    O     O_R   0.005650 0.559790 0.438270 -0.541107
C1    C     C_R   0.337919 0.383518 0.384675 0.694291
O4    O     O_R   0.175560 0.430650 0.559600 -0.545878
O5    O     O_R   0.011900 0.584320 0.586250 -0.535627
C2    C     C_R   0.345042 0.415876 0.581398 0.683803
O6    O     O_R   0.499450 0.415680 0.413750 -0.534422
O7    O     O_3   0.341370 0.550390 0.508570 -0.367148
V1    V     V_3+5 0.063940 0.490650 0.498410 1.417099
O8    O     O_R   0.682570 0.593700 0.587340 -0.538877
C3    C     C_R   0.852711 0.616194 0.615242 0.699019
O9    O     O_R   0.676370 0.569350 0.440400 -0.546115
C4    C     C_R   0.845192 0.584219 0.418601 0.699078
V2    V     V_3+5 0.564750 0.509350 0.501590 1.417738
O10   O     O_3   0.837190 0.449610 0.491430 -0.368124
C5    C     C_R   0.038048 0.672515 0.277913 0.301847
C6    C     C_R   0.024636 0.629814 0.327311 -0.217882
H1    H     H_    0.144421 0.592913 0.332027 0.116679
C7    C     C_R   0.857291 0.632034 0.368410 -0.078266
C8    C     C_R   0.702820 0.679162 0.360192 -0.180582
H2    H     H_    0.572057 0.682367 0.391129 0.125964
C9    C     C_R   0.716597 0.724053 0.312997 -0.206106
H3    H     H_    0.596670 0.761475 0.309594 0.134642
C10   C     C_R   0.883587 0.722032 0.271578 0.057227
C11   C     C_R   0.736912 0.775785 0.177963 -0.145119
H4    H     H_    0.606016 0.741979 0.177801 0.128304
C12   C     C_R   0.747613 0.821950 0.131741 -0.066701
H5    H     H_    0.623932 0.823152 0.097621 0.150955
C13   C     C_R   0.916756 0.865163 0.128876 -0.034723
C14   C     C_R   0.073866 0.861732 0.173919 -0.157275
H6    H     H_    0.205218 0.894775 0.173510 0.182584
C15   C     C_R   0.061726 0.817066 0.221306 -0.100588
H7    H     H_    0.183745 0.817612 0.256689 0.139621
C16   C     C_R   0.894368 0.772309 0.223057 0.093629
C17   C     C_R   0.741017 0.900176 0.754158 -0.148128
C18   C     C_R   0.660537 0.910877 0.692099 -0.086562
C19   C     C_R   0.652753 0.848009 0.626386 0.334944
C20   C     C_R   0.721367 0.773368 0.624092 -0.212124
C21   C     C_R   0.799980 0.760422 0.686855 0.029182
C22   C     C_R   0.813975 0.825541 0.752941 0.062854
C23   C     C_R   0.867531 0.684368 0.684094 -0.143078
C24   C     C_R   0.950742 0.673559 0.747267 0.077185
C25   C     C_R   0.968684 0.739111 0.813001 0.003130
C26   C     C_R   0.902303 0.815373 0.815705 -0.141055
C27   C     C_R   0.012675 0.597598 0.746916 -0.220109
C28   C     C_R   0.092238 0.586777 0.809083 -0.155300
C29   C     C_R   0.109342 0.650716 0.873350 0.452208
C30   C     C_R   0.047161 0.725933 0.875668 -0.192293
H8    H     H_    0.745195 0.951578 0.802845 0.171551
H9    H     H_    0.604089 0.968622 0.695442 0.144520
H10   H     H_    0.714980 0.726233 0.572140 0.109952
H11   H     H_    0.998320 0.545341 0.699082 0.127427
H12   H     H_    0.138741 0.528124 0.807328 0.155599
H13   H     H_    0.058776 0.773172 0.927428 0.132453
H14   H     H_    0.154742 0.458908 0.172402 0.125185
C31   C     C_R   0.455668 0.230947 0.389622 -0.129132
C32   C     C_R   0.515868 0.159303 0.395868 -0.197350
C33   C     C_R   0.536797 0.093659 0.334163 -0.120670
C34   C     C_R   0.501341 0.098558 0.264833 0.346600
C35   C     C_R   0.448109 0.172795 0.255823 -0.001695
C36   C     C_R   0.419693 0.239477 0.320718 0.035232
C37   C     C_R   0.419605 0.183166 0.186141 -0.183183
C38   C     C_R   0.352724 0.257615 0.182975 0.055773
C39   C     C_R   0.315724 0.321701 0.248082 0.073553
C40   C     C_R   0.351903 0.313185 0.316865 -0.162323
C41   C     C_R   0.320620 0.269703 0.115133 -0.133583
C42   C     C_R   0.250072 0.341629 0.111677 -0.108937
C43   C     C_R   0.211135 0.403402 0.175274 -0.120762
C44   C     C_R   0.244845 0.394114 0.242780 -0.146128
H15   H     H_    0.435755 0.279412 0.439910 0.108881
H16   H     H_    0.542458 0.154201 0.449190 0.136694
H17   H     H_    0.578410 0.037611 0.340532 0.152261
H18   H     H_    0.349604 0.223898 0.063899 0.082493
H19   H     H_    0.225247 0.349388 0.059298 0.124366
H20   H     H_    0.213540 0.444178 0.290661 0.098446
C45   C     C_R   0.549667 0.294174 0.693342 -0.136292
H21   H     H_    0.689356 0.272062 0.702597 0.103719
C46   C     C_R   0.536644 0.339125 0.646231 -0.163046
H22   H     H_    0.667436 0.351155 0.621331 0.122229
C47   C     C_R   0.357373 0.367370 0.630890 -0.051251
C48   C     C_R   0.191663 0.350000 0.664413 -0.169234
H23   H     H_    0.051729 0.371566 0.654637 0.116045
C49   C     C_R   0.204852 0.305314 0.711789 -0.134493
H24   H     H_    0.074592 0.294036 0.737411 0.104126
C50   C     C_R   0.383911 0.276427 0.726626 0.116976
C51   C     C_R   0.251144 0.170275 0.772914 -0.178978
H25   H     H_    0.131714 0.161678 0.734644 0.145339
C52   C     C_R   0.259553 0.122882 0.817974 0.379910
C53   C     C_R   0.415749 0.131164 0.867617 -0.131853
C54   C     C_R   0.563286 0.186522 0.868818 -0.191707
H26   H     H_    0.685317 0.194340 0.905842 0.154945
C55   C     C_R   0.553703 0.233677 0.823411 -0.127762
H27   H     H_    0.668105 0.276691 0.826926 0.124038
C56   C     C_R   0.396489 0.226551 0.775259 0.017463
O11   O     O_R   0.273230 0.084330 0.086440 -0.535879
O12   O     O_R   0.596660 0.069390 0.940470 -0.548654
O13   O     O_R   0.760270 0.915710 0.913690 -0.548714
C57   C     C_R   0.427225 0.083102 0.917753 0.716561
O14   O     O_R   0.603330 0.093680 0.087390 -0.526941
O15   O     O_R   0.766990 0.940160 0.061660 -0.512985
C58   C     C_R   0.434788 0.115533 0.116309 0.798754
O16   O     O_R   0.266510 0.059870 0.938470 -0.510776
O17   O     O_3   0.431050 0.949630 0.991510 -0.361965
V3    V     V_3+5 0.708490 0.009340 0.001580 1.521485
O18   O     O_R   0.096270 0.930570 0.059390 -0.539381
C59   C     C_R   0.927493 0.914962 0.080528 0.725214
O19   O     O_R   0.089600 0.906290 0.912460 -0.532146
C60   C     C_R   0.919092 0.883826 0.884495 0.719620
V4    V     V_3+5 0.207670 0.990600 0.998190 1.543395
O20   O     O_3   0.935250 0.050360 0.008480 -0.365566
N1    N     N_2   0.207755 0.664895 0.235184 -0.570448
H28   H     H_    0.329611 0.646800 0.256087 0.253672
C61   C     C_3   0.184378 0.628144 0.157011 -0.468527
H29   H     H_    0.242103 0.669095 0.129380 0.242264
H30   H     H_    0.030595 0.614284 0.140476 0.207597
H31   H     H_    0.266895 0.571910 0.138141 0.186405
N2    N     N_2   0.570335 0.858919 0.562879 -0.519376
H32   H     H_    0.532989 0.806765 0.522169 0.249627
C62   C     C_3   0.673797 0.914060 0.535437 -0.525063
H33   H     H_    0.596588 0.919380 0.486902 0.195223
H34   H     H_    0.821848 0.892053 0.519242 0.200064
H35   H     H_    0.682233 0.974136 0.577155 0.206227
Cl1   Cl    Cl    0.516606 0.006402 0.194869 -0.733027
Cl2   Cl    Cl    0.074913 0.051135 0.806462 -0.716041
Cl3   Cl    Cl    0.206058 0.636473 0.951983 -0.688687

loop_
_geom_bond_atom_site_label_1
_geom_bond_atom_site_label_2
_ccdc_geom_bond_type
C25   C30   A    
O15   C59   A    
C57   O16   A    
C51   H25   S    
C55   H27   S    
O11   C58   A    
C13   C59   S    
C1    O6    A    
N1    C61   S    
C61   H29   S    
C53   C54   A    
C31   C36   A    
C52   Cl2   S    
C45   H21   S    
C62   H33   S    
C42   H19   S    
H14   C43   S    
O14   V3    S    
O13   V3    S    
O16   V4    S    
C17   C18   A    
C49   C50   A    
O5    C3    A    
C19   C20   A    
C18   H9    S    
C26   C60   S    
O18   C59   A    
V2    O10   S    
O19   C60   A    
C35   C37   A    
C6    H1    S    
C34   Cl1   S    
V4    O20   S    
O17   V3    S    
C3    C23   S    
N2    H32   S    
O8    V2    S    
C14   H6    S    
C42   C43   A    
C51   C56   A    
C9    H3    S    
C14   C15   A    
O1    V2    S    
O7    V1    S    
C33   H17   S    
C62   H35   S    
O12   V3    S    
C21   C23   A    
C20   H10   S    
V3    O20   S    
C33   C34   A    
C55   C56   A    
O13   C60   A    
O9    C4    A    
C17   C22   A    
C35   C36   A    
C37   C58   S    
N1    H28   S    
O12   C57   A    
C62   H34   S    
C15   H7    S    
C45   C46   A    
O15   V3    S    
C36   C40   A    
C41   C42   A    
C38   C41   A    
C4    C7    S    
C49   H24   S    
C20   C21   A    
O4    C2    A    
C32   C33   A    
C30   H13   S    
O11   V4    S    
C47   C48   A    
C46   H22   S    
C34   C35   A    
O2    C1    A    
C24   C25   A    
C18   C19   A    
C54   C55   A    
C28   C29   A    
O14   C58   A    
C5    C6    A    
C11   H4    S    
C41   H18   S    
C31   H15   S    
O3    C4    A    
C10   C16   S    
C28   H12   S    
C21   C22   A    
C2    C47   S    
C45   C50   A    
C39   C40   A    
O6    V2    S    
C48   C49   A    
O9    V2    S    
C44   H20   S    
C23   C24   A    
O2    V1    S    
C5    N1    S    
C53   C57   S    
C54   H26   S    
C17   H8    S    
C25   C26   A    
C46   C47   A    
O18   V4    S    
C27   C28   A    
C12   H5    S    
O1    C2    A    
O5    V1    S    
C61   H30   S    
O8    C3    A    
C11   C12   A    
C5    C10   A    
C38   C39   A    
C8    C9    A    
O7    V2    S    
O4    V1    S    
O3    V1    S    
V1    O10   S    
O17   V4    S    
C32   H16   S    
C31   C32   A    
C13   C14   A    
C29   C30   A    
C27   H11   S    
C12   C13   A    
C15   C16   A    
O19   V4    S    
C6    C7    A    
C9    C10   A    
C43   C44   A    
C24   C27   A    
N2    C62   S    
C61   H31   S    
C50   C56   S    
C29   Cl3   S    
C37   C38   A    
C19   N2    S    
C11   C16   A    
C7    C8    A    
C1    C40   S    
C48   H23   S    
C51   C52   A    
C22   C26   A    
C52   C53   A    
C8    H2    S    
C39   C44   A    
