data_mof_unit_9637.cif
_audit_creation_date              2013-03-05T16:15:21-0500
_audit_creation_method            fapswitch 2.2
_symmetry_space_group_name_H-M    P1
_symmetry_Int_Tables_number       1
_space_group_crystal_system       triclinic
_cell_length_a                    27.713912
_cell_length_b                    10.722547
_cell_length_c                    9.551893
_cell_angle_alpha                 88.362268
_cell_angle_beta                  90.671149
_cell_angle_gamma                 87.999744
_cell_volume                      2835.3581982

loop_
_atom_site_label
_atom_site_type_symbol
_atom_site_description
_atom_site_fract_x
_atom_site_fract_y
_atom_site_fract_z
_atom_type_partial_charge
O1    O     O_R   0.500020 0.316850 0.620870 -0.578623
O2    O     O_R   0.499980 0.683150 0.379130 -0.542075
O3    O     O_R   0.500000 0.316860 0.379090 -0.566291
O4    O     O_R   0.500000 0.683140 0.620910 -0.543837
C1    C     C_R   0.501715 0.259560 0.501182 0.790409
C2    C     C_R   0.498425 0.740242 0.498118 0.829578
O5    O     O_R   0.430270 0.500020 0.620880 -0.542533
O6    O     O_R   0.569730 0.499980 0.379120 -0.513571
O7    O     O_R   0.430250 0.500030 0.379090 -0.537261
O8    O     O_R   0.569750 0.499970 0.620910 -0.584615
C3    C     C_R   0.407851 0.497597 0.499747 0.858567
C4    C     C_R   0.592189 0.501462 0.501179 0.813379
Cu1   Cu    Cu3+1 0.500010 0.499990 0.643150 1.020142
Cu2   Cu    Cu3+1 0.499990 0.500010 0.356850 1.045872
C5    C     C_R   0.178400 0.348952 0.530493 0.543977
C6    C     C_R   0.823750 0.611221 0.525883 0.545974
O9    O     O_2   0.201746 0.240854 0.499759 -0.552812
O10   O     O_2   0.800431 0.718333 0.482840 -0.549316
N1    N     N_R   0.203569 0.456217 0.542146 -0.446806
N2    N     N_R   0.798361 0.505571 0.552368 -0.447355
C7    C     C_R   0.180087 0.566768 0.573465 0.534019
C8    C     C_R   0.822124 0.395314 0.592298 0.536582
C9    C     C_R   0.274122 0.548189 0.430343 -0.225888
C10   C     C_R   0.724302 0.415058 0.458729 -0.183476
C11   C     C_R   0.323800 0.569992 0.432623 0.391008
C12   C     C_R   0.674064 0.408970 0.452680 0.409004
C13   C     C_R   0.336673 0.383584 0.580322 -0.299444
C14   C     C_R   0.666984 0.602394 0.576679 -0.296578
C15   C     C_R   0.286794 0.372385 0.592314 -0.114156
C16   C     C_R   0.717116 0.602055 0.593739 -0.110005
C17   C     C_R   0.254985 0.455534 0.517958 0.290059
C18   C     C_R   0.746419 0.508645 0.533812 0.269043
C19   C     C_R   0.103207 0.466349 0.566873 -0.047717
C20   C     C_R   0.899164 0.493850 0.570091 -0.046896
C21   C     C_R   0.127981 0.351371 0.547753 -0.021513
C22   C     C_R   0.874309 0.608353 0.540326 -0.021403
C23   C     C_R   0.101786 0.242297 0.542605 -0.146530
C24   C     C_R   0.900468 0.716755 0.522053 -0.144730
C25   C     C_R   0.129595 0.575090 0.579030 -0.013601
C26   C     C_R   0.872780 0.386044 0.594635 -0.016842
C27   C     C_R   0.355462 0.482512 0.500950 -0.081502
C28   C     C_R   0.645053 0.505798 0.506400 -0.105688
H1    H     H_    0.360695 0.317792 0.637380 0.174792
H2    H     H_    0.645298 0.677182 0.620229 0.195214
H3    H     H_    0.273083 0.301077 0.662188 0.172660
H4    H     H_    0.732968 0.674206 0.654470 0.177562
H5    H     H_    0.119845 0.152564 0.527321 0.182894
H6    H     H_    0.882304 0.806059 0.498119 0.185112
C29   C     C_R   0.975003 0.368865 0.587923 0.042191
C30   C     C_R   0.027491 0.591120 0.575987 0.043103
C31   C     C_R   0.976456 0.598126 0.562884 0.043197
C32   C     C_R   0.025972 0.361473 0.573910 0.043184
C33   C     C_R   0.950376 0.486972 0.574135 0.070466
C34   C     C_R   0.052063 0.472896 0.572810 0.069920
C35   C     C_R   0.947599 0.262331 0.614864 -0.208993
C36   C     C_R   0.054975 0.698380 0.591900 -0.209890
C37   C     C_R   0.897435 0.271348 0.620472 -0.144188
C38   C     C_R   0.105133 0.690005 0.595560 -0.147035
O11   O     O_2   0.796897 0.294598 0.630149 -0.559754
O12   O     O_2   0.205526 0.668926 0.599272 -0.579034
C39   C     C_R   0.051806 0.246781 0.557669 -0.206271
C40   C     C_R   0.950551 0.712290 0.535346 -0.207700
H7    H     H_    0.746016 0.342169 0.411216 0.178638
H8    H     H_    0.249884 0.612743 0.372491 0.159642
H9    H     H_    0.877989 0.187098 0.641704 0.186030
H10   H     H_    0.124664 0.774897 0.607651 0.184840
H11   H     H_    0.964159 0.171082 0.635936 0.138257
H12   H     H_    0.038533 0.789835 0.605580 0.137271
H13   H     H_    0.034013 0.159315 0.550013 0.136165
H14   H     H_    0.968286 0.799153 0.517308 0.137775
C41   C     C_3   0.529592 0.029364 0.599232 0.504394
C42   C     C_3   0.470951 0.969451 0.394651 0.524740
C43   C     C_3   0.544741 0.949759 0.474491 -0.286229
C44   C     C_3   0.455367 0.049150 0.519493 -0.302279
H15   H     H_    0.580603 0.904449 0.456030 0.156713
H16   H     H_    0.418980 0.092075 0.536913 0.158641
C45   C     C_3   0.498239 0.877305 0.494649 -0.087266
C46   C     C_3   0.502039 0.122121 0.500901 -0.079559
C47   C     C_3   0.483355 0.956036 0.621231 -0.259995
C48   C     C_3   0.516997 0.043418 0.373776 -0.256074
H17   H     H_    0.469546 0.919185 0.722388 0.171848
H18   H     H_    0.530755 0.078265 0.272127 0.137462
C49   C     C_3   0.500870 0.612542 0.045180 -0.099792
C50   C     C_3   0.499483 0.387317 0.953152 -0.133201
C51   C     C_3   0.462934 0.561084 0.945868 0.433861
C52   C     C_3   0.536910 0.438562 0.054159 0.427287
N3    N     N_3   0.500040 0.499970 0.858290 -0.219721
N4    N     N_3   0.499960 0.500030 0.141710 -0.212424
C53   C     C_3   0.537683 0.550054 0.950552 0.016772
C54   C     C_3   0.461773 0.448462 0.048712 -0.043130
O13   O     O_3   0.561792 0.064385 0.704938 -0.636789
C55   C     C_3   0.580141 0.955483 0.775511 0.095933
H19   H     H_    0.601325 0.896203 0.703012 0.176104
H20   H     H_    0.550310 0.902683 0.823181 0.202621
C56   C     C_3   0.613617 0.989254 0.893459 -0.793875
H21   H     H_    0.592136 0.037066 0.974218 0.240386
H22   H     H_    0.630865 0.903150 0.941759 0.245008
H23   H     H_    0.642174 0.050168 0.852817 0.242251
O14   O     O_3   0.441003 0.931329 0.284386 -0.605067
C57   C     C_3   0.423097 0.038152 0.208116 0.082869
H24   H     H_    0.453059 0.092383 0.163553 0.202775
H25   H     H_    0.400596 0.098417 0.276362 0.182107
C58   C     C_3   0.391541 0.999993 0.086522 -0.766730
H26   H     H_    0.363245 0.936968 0.124245 0.245720
H27   H     H_    0.373804 0.084345 0.035741 0.234899
H28   H     H_    0.413948 0.952340 0.007368 0.239835
O15   O     O_3   0.424635 0.628297 0.875849 -0.559868
C59   C     C_3   0.389198 0.668257 0.970842 0.029801
H29   H     H_    0.404762 0.724190 0.055078 0.159662
H30   H     H_    0.370814 0.588120 0.019175 0.146106
C60   C     C_3   0.350942 0.747687 0.890902 -0.753355
H31   H     H_    0.333162 0.690573 0.811409 0.252310
H32   H     H_    0.323180 0.782828 0.964278 0.214013
H33   H     H_    0.367680 0.828216 0.837044 0.241509
O16   O     O_3   0.582218 0.401450 0.113188 -0.581502
C61   C     C_3   0.587279 0.272426 0.140829 0.140470
H34   H     H_    0.560468 0.215590 0.088302 0.060484
H35   H     H_    0.583487 0.254495 0.254749 0.212261
C62   C     C_3   0.637681 0.230313 0.096030 -0.751835
H36   H     H_    0.665351 0.289779 0.142107 0.293127
H37   H     H_    0.645582 0.132013 0.130487 0.211374
H38   H     H_    0.640247 0.239471 0.980355 0.221720
C63   C     C_2   0.507109 0.743571 0.090539 0.452082
H39   H     H_    0.478526 0.813379 0.073116 0.083087
O17   O     O_2   0.545124 0.773260 0.143754 -0.539480
C64   C     C_2   0.497941 0.258335 0.898985 0.393543
H40   H     H_    0.530740 0.215568 0.860579 0.139130
O18   O     O_2   0.460496 0.201864 0.897135 -0.578931
C65   C     C_2   0.583409 0.600796 0.895259 0.458888
H41   H     H_    0.618136 0.562363 0.932067 0.091424
O19   O     O_2   0.581870 0.686140 0.808943 -0.613599
C66   C     C_2   0.418298 0.381083 0.097907 0.426267
H42   H     H_    0.386696 0.378332 0.030273 0.059932
O20   O     O_2   0.419256 0.320894 0.207771 -0.564163
O21   O     O_3   0.653914 0.303582 0.401883 -0.610949
C67   C     C_3   0.650578 0.213439 0.512174 0.036035
H43   H     H_    0.613827 0.220586 0.556914 0.178664
H44   H     H_    0.677453 0.223320 0.599042 0.165049
C68   C     C_3   0.658861 0.084148 0.454041 -0.745037
H45   H     H_    0.695351 0.076194 0.407619 0.259784
H46   H     H_    0.656261 0.012352 0.539372 0.211659
H47   H     H_    0.631405 0.067402 0.372004 0.232956
O22   O     O_3   0.340762 0.684146 0.386953 -0.592884
C69   C     C_3   0.316961 0.780708 0.461772 0.080601
H48   H     H_    0.306251 0.750393 0.569596 0.167525
H49   H     H_    0.284061 0.815045 0.402847 0.173794
C70   C     C_3   0.350027 0.888582 0.479448 -0.761622
H50   H     H_    0.354553 0.936466 0.376944 0.266406
H51   H     H_    0.333773 0.956664 0.552310 0.200880
H52   H     H_    0.385453 0.853642 0.522843 0.259987

loop_
_geom_bond_atom_site_label_1
_geom_bond_atom_site_label_2
_geom_bond_distance
_ccdc_geom_bond_type
C43   C48   1.548791 S    
C64   H40   1.076782 S    
C13   C15   1.397465 A    
C56   H21   1.106499 S    
C50   N3    1.489774 S    
N1    C17   1.446011 S    
C41   C47   1.539994 S    
C56   H23   1.110175 S    
O21   C67   1.415254 S    
C11   O22   1.387066 S    
C61   H34   1.102545 S    
C5    N1    1.372326 A    
C19   C25   1.404668 A    
C44   H16   1.110130 S    
O1    C1    1.313759 A    
C70   H51   1.110699 S    
C10   C12   1.396715 A    
C32   C39   1.414599 A    
C67   C68   1.519118 S    
C68   H47   1.108553 S    
C52   N4    1.478793 S    
C63   O17   1.220553 D    
O16   C61   1.402874 S    
C52   C53   1.530913 S    
C53   C65   1.492738 S    
C59   H29   1.109355 S    
C40   H14   1.078677 S    
C14   C28   1.402481 A    
O4    Cu1   1.969236 S    
C55   H19   1.112161 S    
C4    C28   1.467745 S    
C12   O21   1.375961 S    
N1    C7    1.374459 A    
C38   H10   1.083437 S    
C70   H50   1.103017 S    
C61   H35   1.106440 S    
C66   H42   1.083937 S    
O6    Cu2   1.941948 S    
O15   C59   1.408962 S    
C24   C40   1.391322 A    
C23   H5    1.083371 S    
C24   H6    1.083398 S    
O6    C4    1.315951 A    
C54   C66   1.499696 S    
C51   N3    1.480258 S    
C49   N4    1.498447 S    
Cu1   Cu2   2.734693 S    
C43   H15   1.109153 S    
O2    C2    1.306703 A    
C31   C40   1.413840 A    
C50   C54   1.537530 S    
C69   C70   1.512521 S    
C5    C21   1.408366 A    
C32   C34   1.417789 A    
C62   H37   1.108881 S    
C50   C64   1.492242 S    
C49   C53   1.521602 S    
C51   C54   1.536224 S    
C63   H39   1.078837 S    
C70   H52   1.109951 S    
C7    O12   1.350172 S    
C69   H49   1.111947 S    
C11   C27   1.403530 A    
C8    O11   1.349842 S    
C47   H17   1.110678 S    
C67   H43   1.110179 S    
C2    C45   1.468919 S    
C29   C35   1.412879 A    
C25   C38   1.399330 A    
C14   H2    1.081038 S    
C57   C58   1.519718 S    
C30   C36   1.412250 A    
C42   C48   1.537806 S    
C15   H3    1.082366 S    
C52   O16   1.410196 S    
C31   C33   1.417438 A    
C9    C17   1.402991 A    
C58   H28   1.108727 S    
O5    C3    1.308225 A    
O7    Cu2   1.946873 S    
C10   C18   1.403856 A    
C35   C37   1.392001 A    
C42   C45   1.528869 S    
C13   C27   1.404638 A    
C35   H11   1.078740 S    
O14   C57   1.411787 S    
C7    C25   1.400803 A    
C6    N2    1.373251 A    
C29   C32   1.420116 A    
C8    C26   1.403799 A    
Cu1   N3    2.054979 S    
C57   H25   1.112134 S    
C30   C31   1.417616 A    
C45   C47   1.546114 S    
C60   H32   1.110258 S    
C59   C60   1.520949 S    
C30   C34   1.419164 A    
C62   H36   1.109318 S    
O7    C3    1.315467 A    
O3    Cu2   1.969234 S    
O8    C4    1.308151 A    
C42   C44   1.543827 S    
C9    H8    1.082912 S    
C49   C51   1.535169 S    
N4    C54   1.503921 S    
C10   H7    1.082944 S    
C44   C47   1.554247 S    
N3    C53   1.482566 S    
C58   H27   1.110536 S    
C20   C26   1.404764 A    
O4    C2    1.307040 A    
O1    Cu1   1.981255 S    
O13   C55   1.407860 S    
C12   C28   1.403385 A    
C67   H44   1.118259 S    
C41   C43   1.539274 S    
C65   H41   1.084362 S    
N2    C18   1.447452 S    
C62   H38   1.109804 S    
C39   H13   1.078621 S    
C19   C34   1.418570 A    
C5    O9    1.349008 S    
C64   O18   1.219801 D    
C26   C37   1.400109 A    
C60   H31   1.110551 S    
C21   C23   1.399639 A    
C16   H4    1.082339 S    
C6    O10   1.349338 S    
N2    C8    1.375084 A    
C69   H48   1.117713 S    
O3    C1    1.302118 A    
O8    Cu1   1.946873 S    
C23   C39   1.393590 A    
C68   H45   1.110519 S    
C56   H22   1.110593 S    
C61   C62   1.522891 S    
C22   C24   1.399028 A    
Cu2   N4    2.054980 S    
C15   C17   1.403832 A    
C36   H12   1.078839 S    
C6    C22   1.405559 A    
C16   C18   1.406141 A    
C68   H46   1.109752 S    
C55   H20   1.112702 S    
C59   H30   1.106550 S    
C29   C33   1.419506 A    
C37   H9    1.083373 S    
C14   C16   1.396833 A    
C57   H24   1.112069 S    
C19   C21   1.407619 A    
C48   H18   1.107061 S    
C36   C38   1.389803 A    
C3    C27   1.466639 S    
C60   H33   1.110661 S    
C46   C48   1.550640 S    
C55   C56   1.511084 S    
O2    Cu2   1.981254 S    
C13   H1    1.083815 S    
O5    Cu1   1.941948 S    
C9    C11   1.404525 A    
C41   O13   1.407410 S    
C20   C22   1.406807 A    
C20   C33   1.418645 A    
C66   O20   1.215692 D    
C44   C46   1.544305 S    
C58   H26   1.109578 S    
C43   C45   1.539036 S    
C50   C52   1.534689 S    
C49   C63   1.497171 S    
C1    C46   1.473481 S    
C51   O15   1.412701 S    
C41   C46   1.526855 S    
O22   C69   1.422506 S    
C65   O19   1.213396 D    
C42   O14   1.411772 S    
