data_mof_unit_46387.cif
_audit_creation_date              2012-10-26T19:57:25-0400
_audit_creation_method            fapswitch 2.2
_symmetry_space_group_name_H-M    P1
_symmetry_Int_Tables_number       1
_space_group_crystal_system       triclinic
_cell_length_a                    13.039944
_cell_length_b                    10.932289
_cell_length_c                    9.809652
_cell_angle_alpha                 89.30657
_cell_angle_beta                  96.36133
_cell_angle_gamma                 92.668518
_cell_volume                      1388.27772976

loop_
_atom_site_label
_atom_site_type_symbol
_atom_type_description
_atom_site_fract_x
_atom_site_fract_y
_atom_site_fract_z
_atom_type_partial_charge
C1    C     C_R   0.501590 0.265905 0.500987 0.538975
C2    C     C_2   0.500462 0.133750 0.503606 -0.169689
C3    C     C_2   0.463931 0.407131 0.917065 0.453284
C4    C     C_R   0.300781 0.503165 0.474784 0.515175
C5    C     C_2   0.452196 0.412751 0.071338 0.362383
C6    C     C_R   0.502574 0.734595 0.499309 0.549704
C7    C     C_R   0.698862 0.499629 0.525730 0.537577
C8    C     C_R   0.811115 0.497662 0.540288 0.006632
C9    C     C_R   0.187658 0.508731 0.463128 -0.004994
C10   C     C_R   0.024444 0.523988 0.320571 -0.158123
C11   C     C_R   0.131590 0.522150 0.333662 -0.193688
C12   C     C_R   0.026508 0.497038 0.567772 0.054798
C13   C     C_R   0.134649 0.502553 0.581950 0.246784
C14   C     C_3   0.337756 0.258580 0.845286 0.021428
C15   C     C_3   0.295784 0.204421 0.706965 -0.353660
C16   C     C_3   0.590553 0.680292 0.879731 0.023981
C17   C     C_3   0.658338 0.719160 0.010228 -0.443074
C18   C     C_3   0.309771 0.323644 0.170028 0.012922
C19   C     C_3   0.228778 0.222977 0.122801 -0.451669
C20   C     C_3   0.194622 0.615310 0.771052 -0.000436
C21   C     C_3   0.213446 0.602605 0.926164 -0.384475
C22   C     C_3   0.409429 0.924503 0.173999 -0.016831
C23   C     C_R   0.971525 0.510457 0.436644 0.005348
C24   C     C_3   0.395516 0.855933 0.039098 -0.358022
C25   C     C_R   0.864208 0.511145 0.423788 -0.124407
C26   C     C_R   0.865663 0.480887 0.669646 -0.159024
C27   C     C_R   0.972472 0.479638 0.683245 -0.134677
C28   C     C_2   0.505650 0.936783 0.384364 0.232947
C29   C     C_2   0.512097 0.867510 0.499695 -0.086383
C30   C     C_2   0.518894 0.071255 0.393260 -0.157900
Cu1   Cu    Cu3+1 0.500020 0.500020 0.638640 1.007389
Cu2   Cu    Cu3+1 0.499980 0.499980 0.361360 0.961217
H1    H     H_    0.822334 0.523109 0.323027 0.124895
H2    H     H_    0.287243 0.334102 0.866273 0.161121
H3    H     H_    0.332220 0.182868 0.920114 0.162273
H4    H     H_    0.334157 0.118561 0.689884 0.118624
H5    H     H_    0.211811 0.181765 0.706287 0.093429
H6    H     H_    0.306072 0.270157 0.622495 0.186466
H7    H     H_    0.565471 0.766611 0.828589 0.156301
H8    H     H_    0.640460 0.633979 0.814690 0.183557
H9    H     H_    0.702244 0.640893 0.054943 0.118762
H10   H     H_    0.715384 0.792339 0.985218 0.108849
H11   H     H_    0.610959 0.755555 0.086423 0.211121
H12   H     H_    0.480703 0.089057 0.596481 0.105248
H13   H     H_    0.278078 0.413718 0.139246 0.122027
H14   H     H_    0.317769 0.310382 0.282254 0.199385
H15   H     H_    0.263416 0.132143 0.126131 0.141175
H16   H     H_    0.167067 0.219311 0.192563 0.113894
H17   H     H_    0.190009 0.242363 0.019136 0.117965
H18   H     H_    0.122854 0.666782 0.746886 0.108167
H19   H     H_    0.260121 0.670215 0.734079 0.169624
H20   H     H_    0.291098 0.567368 0.955938 0.164019
H21   H     H_    0.208551 0.692957 0.974674 0.092521
H22   H     H_    0.154261 0.538422 0.964060 0.131058
H23   H     H_    0.559005 0.547704 0.118965 0.230023
H24   H     H_    0.419530 0.023421 0.148957 0.152903
H25   H     H_    0.338199 0.908124 0.226053 0.123985
H26   H     H_    0.391223 0.755826 0.059194 0.199519
H27   H     H_    0.323407 0.882885 0.977368 0.077637
H28   H     H_    0.461603 0.879059 0.979892 0.160074
H29   H     H_    0.825923 0.468457 0.760464 0.128733
H30   H     H_    0.982929 0.535103 0.219508 0.110787
H31   H     H_    0.012257 0.465518 0.784611 0.144797
H32   H     H_    0.170396 0.533046 0.242240 0.122569
H33   H     H_    0.527266 0.907967 0.600474 0.038132
H34   H     H_    0.539446 0.120222 0.302432 0.183532
N1    N     N_2   0.498860 0.498660 0.846770 -0.061417
N2    N     N_2   0.498840 0.498630 0.152900 -0.343414
O1    O     O_R   0.500020 0.321960 0.617050 -0.447393
O2    O     O_3   0.500957 0.609562 0.908012 -0.557257
O3    O     O_3   0.408138 0.306177 0.126024 -0.561872
O4    O     O_3   0.187664 0.497157 0.712152 -0.570758
O5    O     O_3   0.496723 0.882048 0.256156 -0.537496
O6    O     O_R   0.499980 0.321920 0.382890 -0.471258
O7    O     O_R   0.349010 0.500000 0.598060 -0.446356
O8    O     O_R   0.348980 0.499950 0.363910 -0.544315
O9    O     O_R   0.500020 0.678080 0.617110 -0.530415
O10   O     O_R   0.499980 0.678040 0.382950 -0.435583
O11   O     O_R   0.651020 0.500050 0.636090 -0.537358
O12   O     O_R   0.650990 0.500000 0.401940 -0.513849
O13   O     O_3   0.443203 0.296248 0.849237 -0.537925

loop_
_geom_bond_atom_site_label_1
_geom_bond_atom_site_label_2
_ccdc_geom_bond_type
C8    C26   A    
C22   H25   S    
H23   N2    S    
C7    C8    S    
Cu1   N1    S    
C12   C23   A    
C26   C27   A    
C1    O6    A    
C28   C29   D    
C26   H29   S    
C18   C19   S    
C20   H19   S    
Cu2   O6    S    
C21   H22   S    
C19   H15   S    
C6    O10   A    
C1    C2    S    
C9    C13   A    
C17   H10   S    
C15   H5    S    
C4    O7    A    
C20   H18   S    
C2    H12   S    
C16   C17   S    
C3    O13   S    
Cu2   N2    S    
C8    C25   A    
C10   H30   S    
C5    N2    D    
C28   O5    S    
C18   H14   S    
Cu1   O9    S    
C12   C27   A    
C16   O2    S    
C11   H32   S    
C14   H3    S    
C19   H16   S    
C6    O9    A    
C22   H24   S    
C1    O1    A    
C17   H11   S    
C15   H6    S    
Cu2   O8    S    
Cu2   O12   S    
C19   H17   S    
Cu1   O7    S    
Cu1   Cu2   S    
C24   H28   S    
C20   C21   S    
C9    C11   A    
C30   H34   S    
C27   H31   S    
C16   H8    S    
C29   H33   S    
C22   C24   S    
C18   H13   S    
C15   H4    S    
C7    O11   A    
C18   O3    S    
C3    N1    D    
C3    C5    S    
C14   H2    S    
Cu1   O11   S    
C13   O4    S    
C10   C23   A    
C22   O5    S    
C2    C30   D    
N1    O2    S    
C28   C30   S    
C5    O3    S    
C21   H21   S    
C24   H27   S    
C23   C25   A    
C17   H9    S    
C4    O8    A    
C10   C11   A    
C16   H7    S    
Cu2   O10   S    
Cu1   O1    S    
C6    C29   S    
C12   C13   A    
C24   H26   S    
C14   C15   S    
C20   O4    S    
C14   O13   S    
C4    C9    S    
C21   H20   S    
C25   H1    S    
C7    O12   A    
