data_mof_unit_22618.cif
_audit_creation_date              2012-12-10T20:32:45-0500
_audit_creation_method            fapswitch 2.2
_symmetry_space_group_name_H-M    P1
_symmetry_Int_Tables_number       1
_space_group_crystal_system       triclinic
_cell_length_a                    11.586929
_cell_length_b                    10.569373
_cell_length_c                    9.956177
_cell_angle_alpha                 92.865212
_cell_angle_beta                  89.456194
_cell_angle_gamma                 92.073281
_cell_volume                      1216.94139602

loop_
_atom_site_label
_atom_site_type_symbol
_atom_type_description
_atom_site_fract_x
_atom_site_fract_y
_atom_site_fract_z
_atom_type_partial_charge
C1    C     C_R   0.493639 0.258703 0.496912 0.933707
C2    C     C_R   0.573023 0.576744 0.078699 -0.159124
C3    C     C_R   0.572361 0.581233 0.936408 0.033290
C4    C     C_R   0.282048 0.499385 0.500248 0.881799
C5    C     C_R   0.434780 0.412566 0.925647 0.066009
C6    C     C_3   0.305391 0.393432 0.928136 -0.354228
C7    C     C_3   0.313796 0.375570 0.079146 0.214091
C8    C     C_R   0.482162 0.737873 0.501205 0.896217
C9    C     C_R   0.717925 0.500051 0.499334 0.899423
C10   C     C_1   0.161485 0.498864 0.499622 -0.166084
C11   C     C_1   0.059371 0.498550 0.497595 -0.003734
C12   C     C_R   0.461547 0.125452 0.491057 -0.227767
C13   C     C_1   0.940615 0.498733 0.496726 -0.021511
C14   C     C_1   0.838504 0.499304 0.497604 -0.203600
C15   C     C_R   0.432061 0.068530 0.610620 -0.031485
C16   C     C_R   0.644420 0.689087 0.887556 0.144557
C17   C     C_R   0.745360 0.669701 0.812225 -0.092501
C18   C     C_R   0.815139 0.772793 0.773899 -0.190481
C19   C     C_R   0.796675 0.893978 0.830130 -0.149546
C20   C     C_R   0.707598 0.911939 0.923411 -0.164695
C21   C     C_R   0.630916 0.810852 0.950378 -0.152325
C22   C     C_R   0.236701 0.509275 0.902925 0.168620
C23   C     C_R   0.447697 0.053949 0.368053 0.435076
C24   C     C_R   0.131981 0.492739 0.834023 -0.108607
C25   C     C_R   0.059382 0.594193 0.824074 -0.140888
C26   C     C_R   0.089906 0.713092 0.883512 -0.140040
C27   C     C_R   0.193123 0.730566 0.953460 -0.097559
C28   C     C_R   0.266803 0.630003 0.962354 -0.098805
C29   C     C_R   0.425441 0.922447 0.372266 0.324105
C30   C     C_R   0.438201 0.864917 0.497232 -0.316242
C31   C     C_R   0.419763 0.938954 0.613551 0.008867
C32   C     C_3   0.476679 0.938867 0.746005 0.305571
C33   C     C_3   0.489324 0.081843 0.744649 -0.503753
C34   C     C_R   0.439810 0.407563 0.067124 0.155707
H1    H     H_    0.276312 0.306175 0.868877 0.163211
H2    H     H_    0.329414 0.940876 0.844827 0.338574
H3    H     H_    0.774427 0.575139 0.790649 0.143883
H4    H     H_    0.887223 0.758113 0.705864 0.136676
H5    H     H_    0.853436 0.972901 0.804610 0.138340
H6    H     H_    0.694968 0.004871 0.970809 0.155698
H7    H     H_    0.560555 0.827714 0.020698 0.203571
H8    H     H_    0.105153 0.400575 0.790319 0.122889
H9    H     H_    0.978799 0.579106 0.771738 0.131550
H10   H     H_    0.033461 0.791645 0.877532 0.142172
H11   H     H_    0.215101 0.821577 0.003014 0.168932
H12   H     H_    0.266444 0.444138 0.145354 0.159812
H13   H     H_    0.344616 0.645845 0.020385 0.147083
H14   H     H_    0.558709 0.889907 0.735511 0.165508
H15   H     H_    0.435888 0.133305 0.821263 0.200839
H16   H     H_    0.580948 0.116415 0.738596 0.182586
H17   H     H_    0.628860 0.640528 0.139466 0.170505
H18   H     H_    0.461026 0.047891 0.171584 0.369710
H19   H     H_    0.332505 0.191925 0.050689 0.344389
H20   H     H_    0.347936 0.780771 0.277100 0.347535
N1    N     N_R   0.499240 0.499140 0.142800 -0.135975
N2    N     N_R   0.499240 0.499180 0.857150 -0.104547
O1    O     O_R   0.500010 0.316790 0.614690 -0.624279
O2    O     O_3   0.290928 0.249794 0.114536 -0.702698
O3    O     O_3   0.399841 0.853378 0.254271 -0.782333
O4    O     O_3   0.402639 0.895013 0.847690 -0.758530
O5    O     O_R   0.500000 0.316760 0.385350 -0.533873
O6    O     O_R   0.334450 0.500030 0.614670 -0.600965
O7    O     O_R   0.334440 0.500000 0.385330 -0.631536
O8    O     O_R   0.500000 0.683240 0.614650 -0.595446
O9    O     O_R   0.499990 0.683210 0.385310 -0.601814
O10   O     O_R   0.665560 0.500000 0.614670 -0.634428
O11   O     O_R   0.665550 0.499970 0.385330 -0.603677
O12   O     O_3   0.461962 0.112185 0.247418 -0.723927
Zn1   Zn    Zn3+2 0.500010 0.500020 0.653130 0.969651
Zn2   Zn    Zn3+2 0.499990 0.499980 0.346870 0.986854

loop_
_geom_bond_atom_site_label_1
_geom_bond_atom_site_label_2
_ccdc_geom_bond_type
C23   O12   S    
O5    Zn2   S    
H19   O2    S    
C12   C15   A    
C28   H13   S    
C15   C31   A    
C16   C21   A    
C1    O1    A    
C11   C13   S    
C3    N2    A    
C7    O2    S    
C31   C32   S    
H18   O12   S    
O7    Zn2   S    
C30   C31   A    
C9    C14   S    
O11   Zn2   S    
C8    C30   S    
C32   C33   S    
C25   H9    S    
C9    O11   A    
C2    C3    A    
C18   H4    S    
C26   H10   S    
C34   N1    A    
C22   C28   A    
C13   C14   T    
C5    C34   A    
C32   H14   S    
C12   C23   A    
C27   H11   S    
C26   C27   A    
C29   C30   A    
C1    C12   S    
C19   H5    S    
C8    O8    A    
C33   H16   S    
C21   H7    S    
C23   C29   A    
C4    O7    A    
C2    N1    A    
C17   C18   A    
C6    C7    S    
H20   O3    S    
C5    C6    S    
C20   H6    S    
C7    C34   S    
C22   C24   A    
O10   Zn1   S    
C10   C11   T    
C32   O4    S    
C4    C10   S    
O9    Zn2   S    
N1    Zn2   S    
C7    H12   S    
C4    O6    A    
C8    O9    A    
C24   H8    S    
C24   C25   A    
C20   C21   A    
N2    Zn1   S    
C2    H17   S    
C27   C28   A    
C29   O3    S    
C9    O10   A    
C18   C19   A    
C17   H3    S    
C5    N2    A    
O1    Zn1   S    
C25   C26   A    
O8    Zn1   S    
C33   H15   S    
C15   C33   S    
C6    H1    S    
C3    C16   S    
C19   C20   A    
O6    Zn1   S    
C1    O5    A    
C16   C17   A    
H2    O4    S    
C6    C22   S    
