data_mof_unit_32705.cif
_audit_creation_date              2012-10-26T20:07:09-0400
_audit_creation_method            fapswitch 2.2
_symmetry_space_group_name_H-M    P1
_symmetry_Int_Tables_number       1
_space_group_crystal_system       triclinic
_cell_length_a                    10.818044
_cell_length_b                    9.504499
_cell_length_c                    27.765128
_cell_angle_alpha                 89.955046
_cell_angle_beta                  90.193085
_cell_angle_gamma                 89.94597
_cell_volume                      2854.79454909

loop_
_atom_site_label
_atom_site_type_symbol
_atom_type_description
_atom_site_fract_x
_atom_site_fract_y
_atom_site_fract_z
_atom_type_partial_charge
C1    C     C_R   0.262034 0.500034 0.500258 0.544480
C2    C     C_R   0.387203 0.548236 0.874038 0.042338
C3    C     C_R   0.500430 0.502954 0.354403 -0.008165
C4    C     C_R   0.501544 0.502872 0.645825 -0.010376
C5    C     C_R   0.393562 0.579778 0.975840 -0.005747
C6    C     C_R   0.620550 0.549413 0.024689 -0.004996
C7    C     C_R   0.620292 0.571289 0.974022 0.042607
C8    C     C_R   0.398390 0.601633 0.026450 0.042463
C9    C     C_R   0.505009 0.571681 0.949539 -0.014954
C10   C     C_R   0.510505 0.571368 0.050972 -0.014889
C11   C     C_R   0.281131 0.560055 0.951087 -0.119789
C12   C     C_R   0.737969 0.499955 0.499914 0.542297
C13   C     C_R   0.725706 0.500211 0.049507 -0.118141
C14   C     C_R   0.276313 0.547615 0.900971 0.127510
C15   C     C_R   0.727910 0.487312 0.099646 0.125956
C16   C     C_R   0.498212 0.500124 0.407422 0.546801
C17   C     C_R   0.502270 0.499999 0.592653 0.547029
C18   C     C_R   0.296138 0.651557 0.053691 0.120036
C19   C     C_R   0.729910 0.591993 0.946693 0.118212
C20   C     C_R   0.064015 0.372615 0.504152 -0.150276
C21   C     C_R   0.935981 0.627438 0.496680 -0.141111
C22   C     C_R   0.936230 0.372492 0.503697 -0.151026
C23   C     C_R   0.512167 0.561828 0.101923 -0.073246
C24   C     C_R   0.063770 0.627480 0.496782 -0.141528
C25   C     C_R   0.871778 0.499923 0.500060 0.017538
C26   C     C_R   0.128224 0.500055 0.500454 0.019355
C27   C     C_R   0.414554 0.074562 0.473804 0.009403
C28   C     C_R   0.585260 0.925406 0.526305 0.009671
C29   C     C_R   0.585435 0.074279 0.526160 0.006401
C30   C     C_R   0.414741 0.925675 0.473684 0.011539
C31   C     C_R   0.406383 0.583511 0.178448 0.374709
C32   C     C_R   0.608021 0.558960 0.821943 0.374076
C33   C     C_R   0.615492 0.503534 0.177240 0.435303
C34   C     C_R   0.501286 0.562856 0.898602 -0.074283
C35   C     C_R   0.388961 0.530775 0.823454 0.435578
C36   C     C_R   0.580884 0.616776 0.282217 0.181809
C37   C     C_R   0.436165 0.628302 0.718195 0.182828
C38   C     C_R   0.577026 0.603071 0.332311 -0.149846
C39   C     C_R   0.437045 0.613412 0.668125 -0.150548
C40   C     C_R   0.426246 0.413289 0.325450 -0.039018
C41   C     C_R   0.565909 0.403414 0.674799 -0.038704
C42   C     C_R   0.433178 0.425521 0.275166 -0.082562
C43   C     C_R   0.559686 0.415816 0.725100 -0.082677
C44   C     C_R   0.508843 0.526603 0.253476 0.251485
C45   C     C_R   0.404818 0.594761 0.128151 -0.002448
C46   C     C_R   0.496855 0.527579 0.746932 0.248139
C47   C     C_3   0.333203 0.311066 0.346279 -0.250646
C48   C     C_3   0.219850 0.389259 0.365866 -0.282962
C49   C     C_3   0.121166 0.286855 0.383347 -0.445559
C50   C     C_3   0.650230 0.291014 0.654296 -0.248769
C51   C     C_3   0.769794 0.356473 0.634782 -0.281299
C52   C     C_3   0.865807 0.244291 0.622674 -0.448328
C53   C     C_3   0.454213 0.858251 0.754250 -0.299830
C54   C     C_3   0.593932 0.847596 0.246492 -0.294993
C55   C     C_3   0.107114 0.673308 0.864664 -0.265541
C56   C     C_R   0.612146 0.567788 0.872277 -0.002290
C57   C     C_3   0.921444 0.559800 0.134341 -0.256852
C58   C     C_3   0.224514 0.861627 0.013197 -0.307977
C59   C     C_3   0.845102 0.777282 0.985538 -0.309684
C60   C     C_R   0.299371 0.643057 0.103937 -0.106579
C61   C     C_R   0.724627 0.586271 0.896444 -0.102930
C62   C     C_R   0.620394 0.518278 0.126578 0.043166
Cu1   Cu    Cu3+1 0.500000 0.640660 0.500000 0.925824
Cu2   Cu    Cu3+1 0.500000 0.359340 0.500000 0.925977
H1    H     H_    0.345981 0.130743 0.452960 0.095944
H2    H     H_    0.633443 0.672392 0.354225 0.121500
H3    H     H_    0.195004 0.549847 0.970308 0.154130
H4    H     H_    0.807071 0.466279 0.030326 0.154505
H5    H     H_    0.112234 0.273051 0.507192 0.126037
H6    H     H_    0.887755 0.727039 0.493768 0.125475
H7    H     H_    0.888205 0.272869 0.506429 0.126184
H8    H     H_    0.111792 0.727068 0.493847 0.123243
H9    H     H_    0.090109 0.218013 0.353366 0.157002
H10   H     H_    0.157951 0.220664 0.413062 0.142183
H11   H     H_    0.040193 0.346741 0.396814 0.161297
H12   H     H_    0.653455 0.869182 0.547441 0.107357
H13   H     H_    0.247069 0.458647 0.396213 0.170233
H14   H     H_    0.179363 0.456144 0.336954 0.179476
H15   H     H_    0.301510 0.236621 0.317914 0.133492
H16   H     H_    0.376524 0.244824 0.374499 0.164158
H17   H     H_    0.890651 0.183087 0.655404 0.160035
H18   H     H_    0.829862 0.171540 0.594762 0.133537
H19   H     H_    0.950672 0.295578 0.608756 0.157611
H20   H     H_    0.749620 0.419071 0.601934 0.172188
H21   H     H_    0.810104 0.428212 0.662281 0.183690
H22   H     H_    0.675270 0.214028 0.682929 0.131563
H23   H     H_    0.653933 0.130364 0.546913 0.098247
H24   H     H_    0.602167 0.228733 0.626252 0.164004
H25   H     H_    0.299242 0.780197 0.719695 0.249050
H26   H     H_    0.398699 0.941372 0.772128 0.142645
H27   H     H_    0.500903 0.904645 0.722368 0.133249
H28   H     H_    0.524871 0.820459 0.780289 0.179444
H29   H     H_    0.736714 0.742202 0.280582 0.248781
H30   H     H_    0.659838 0.920107 0.228598 0.147377
H31   H     H_    0.554609 0.901155 0.278563 0.137229
H32   H     H_    0.518615 0.823411 0.220584 0.182004
H33   H     H_    0.095717 0.477743 0.896952 0.234474
H34   H     H_    0.346573 0.869646 0.452550 0.105731
H35   H     H_    0.020041 0.657060 0.844170 0.163192
H36   H     H_    0.172563 0.731992 0.841332 0.187475
H37   H     H_    0.086710 0.736821 0.897304 0.113810
H38   H     H_    0.885733 0.365626 0.103978 0.238078
H39   H     H_    0.003688 0.518952 0.153904 0.165324
H40   H     H_    0.873503 0.636739 0.157932 0.187470
H41   H     H_    0.952742 0.613807 0.101047 0.108060
H42   H     H_    0.114835 0.723152 0.051640 0.238166
H43   H     H_    0.142586 0.906340 0.994482 0.130365
H44   H     H_    0.301404 0.856031 0.986871 0.166493
H45   H     H_    0.377168 0.358370 0.252354 0.128441
H46   H     H_    0.250957 0.932672 0.043284 0.146608
H47   H     H_    0.921376 0.607647 0.949355 0.242627
H48   H     H_    0.933249 0.797955 0.004692 0.139739
H49   H     H_    0.768180 0.796827 0.011078 0.164876
H50   H     H_    0.837278 0.850861 0.954542 0.142141
H51   H     H_    0.607561 0.340662 0.747868 0.131656
H52   H     H_    0.219476 0.678186 0.124090 0.148237
H53   H     H_    0.809345 0.599609 0.876285 0.150223
H54   H     H_    0.388500 0.690654 0.646392 0.125302
N1    N     N_R   0.510433 0.538283 0.201848 -0.391107
N2    N     N_2   0.843347 0.633258 0.968738 -0.541960
N3    N     N_R   0.497802 0.539616 0.798622 -0.393245
N4    N     N_R   0.500000 0.852070 0.500000 -0.222481
N5    N     N_R   0.500000 0.147930 0.500000 -0.220653
N6    N     N_2   0.373835 0.744517 0.739495 -0.486063
N7    N     N_2   0.658001 0.720604 0.260854 -0.489731
N8    N     N_2   0.158480 0.538282 0.878235 -0.457904
N9    N     N_2   0.839976 0.444310 0.122304 -0.459285
N10   N     N_2   0.194918 0.723222 0.031613 -0.542372
O1    O     O_R   0.319640 0.618740 0.500000 -0.511035
O2    O     O_2   0.713468 0.570275 0.796360 -0.520784
O3    O     O_2   0.283736 0.502566 0.799140 -0.447553
O4    O     O_2   0.713539 0.452932 0.201904 -0.454384
O5    O     O_R   0.680360 0.381260 0.500000 -0.509386
O6    O     O_R   0.680360 0.618740 0.500000 -0.511006
O7    O     O_R   0.319640 0.381260 0.500000 -0.509240
O8    O     O_R   0.500020 0.618770 0.430260 -0.501982
O9    O     O_R   0.499980 0.381230 0.569740 -0.499536
O10   O     O_R   0.499980 0.618770 0.569740 -0.502150
O11   O     O_R   0.500020 0.381230 0.430260 -0.497813
O12   O     O_2   0.304811 0.618317 0.203944 -0.525641

loop_
_geom_bond_atom_site_label_1
_geom_bond_atom_site_label_2
_ccdc_geom_bond_type
C2    C35   A    
C40   C47   S    
C57   H41   S    
C45   C60   A    
C34   C56   A    
C59   N2    S    
C23   C45   A    
C41   C50   S    
C36   N7    S    
C47   H15   S    
C51   H21   S    
C32   O2    S    
C58   N10   S    
C28   C29   A    
C42   H45   S    
C24   C26   A    
C5    C11   A    
C1    O1    A    
C11   C14   A    
C28   N4    A    
C4    C41   A    
H42   N10   S    
C58   H43   S    
C48   H14   S    
C43   H51   S    
C23   C62   A    
C30   N4    A    
C3    C38   A    
C33   C62   A    
C22   C25   A    
C55   H36   S    
C53   H27   S    
C49   H11   S    
C46   N3    S    
C17   O10   A    
C54   H32   S    
C50   H24   S    
C18   N10   S    
C2    C34   A    
C40   C42   A    
Cu2   O7    S    
C15   N9    S    
C27   C30   A    
C41   C43   A    
C42   C44   A    
C47   H16   S    
C11   H3    S    
C59   H48   S    
Cu2   O9    S    
C57   H39   S    
C54   N7    S    
C54   H30   S    
C21   H6    S    
C61   H53   S    
C51   C52   S    
Cu1   O6    S    
C38   H2    S    
C35   N3    A    
H38   N9    S    
C27   N5    A    
C44   N1    S    
C8    C18   A    
Cu2   O11   S    
H47   N2    S    
C48   H13   S    
C52   H19   S    
C5    C9    A    
C27   H1    S    
C37   N6    S    
C47   C48   S    
C55   N8    S    
C59   H49   S    
C53   H28   S    
C50   C51   S    
C56   C61   A    
C52   H18   S    
C31   N1    A    
C54   H31   S    
C4    C17   S    
C33   O4    S    
C18   C60   A    
C48   C49   S    
C20   C22   A    
C19   N2    S    
C33   N1    A    
C7    C19   A    
C12   O5    A    
C13   C15   A    
C1    C26   S    
Cu1   O10   S    
C49   H9    S    
C20   H5    S    
C36   C44   A    
C16   O11   A    
C16   O8    A    
C35   O3    S    
C22   H7    S    
Cu1   N4    S    
C24   H8    S    
C30   H34   S    
C7    C9    A    
C57   H40   S    
C21   C25   A    
Cu2   O5    S    
C3    C40   A    
C58   H46   S    
C32   N3    A    
H33   N8    S    
C53   N6    S    
C57   N9    S    
C5    C8    A    
C17   O9    A    
C6    C7    A    
H25   N6    S    
C10   C23   A    
C39   H54   S    
C55   H37   S    
C4    C39   A    
C14   N8    S    
C12   C25   S    
Cu1   O8    S    
C36   C38   A    
C37   C46   A    
C37   C39   A    
C6    C13   A    
C9    C34   A    
C20   C26   A    
C19   C61   A    
C59   H50   S    
C29   N5    A    
C15   C62   A    
C58   H44   S    
Cu1   O1    S    
C52   H17   S    
C2    C14   A    
C43   C46   A    
H29   N7    S    
C29   H23   S    
C60   H52   S    
C6    C10   A    
C50   H22   S    
Cu1   Cu2   S    
Cu2   N5    S    
C8    C10   A    
C31   C45   A    
C21   C24   A    
C55   H35   S    
C53   H26   S    
C49   H10   S    
C12   O6    A    
C31   O12   S    
C1    O7    A    
C51   H20   S    
C32   C56   A    
C3    C16   S    
C13   H4    S    
C28   H12   S    
