data_mof_unit_15655.cif
_audit_creation_date              2013-03-05T15:42:29-0500
_audit_creation_method            fapswitch 2.2
_symmetry_space_group_name_H-M    P1
_symmetry_Int_Tables_number       1
_space_group_crystal_system       triclinic
_cell_length_a                    7.789867
_cell_length_b                    8.65986
_cell_length_c                    23.516651
_cell_angle_alpha                 91.57901
_cell_angle_beta                  86.02491
_cell_angle_gamma                 93.841986
_cell_volume                      1578.621988

loop_
_atom_site_label
_atom_site_type_symbol
_atom_site_description
_atom_site_fract_x
_atom_site_fract_y
_atom_site_fract_z
_atom_type_partial_charge
O1    O     O_R   0.389250 0.738570 0.503790 -0.590373
O2    O     O_R   0.610750 0.261430 0.496210 -0.590376
O3    O     O_R   0.678390 0.711620 0.493890 -0.616597
O4    O     O_R   0.321610 0.288380 0.506110 -0.616604
C1    C     C_R   0.545388 0.793975 0.497646 0.878527
C2    C     C_R   0.454612 0.206026 0.502356 0.878514
O5    O     O_R   0.355400 0.513520 0.588790 -0.560480
O6    O     O_R   0.644600 0.486480 0.411210 -0.560472
O7    O     O_R   0.644550 0.486570 0.578900 -0.594467
O8    O     O_R   0.355450 0.513430 0.421100 -0.594467
C3    C     C_R   0.501584 0.496797 0.610521 0.900474
C4    C     C_R   0.498415 0.503204 0.389479 0.900472
Zn1   Zn    Zn3+2 0.306930 0.518000 0.506610 1.118229
Zn2   Zn    Zn3+2 0.693070 0.482000 0.493390 1.118232
C5    C     C_R   0.404294 0.378038 0.119008 0.570415
C6    C     C_R   0.595699 0.622029 0.880991 0.570291
N1    N     N_R   0.472529 0.503893 0.147928 -0.344475
N2    N     N_R   0.527432 0.496177 0.852075 -0.344491
C7    C     C_R   0.541417 0.632824 0.120164 0.593391
C8    C     C_R   0.458488 0.367271 0.879844 0.593153
C9    C     C_R   0.560538 0.633090 0.060306 -0.137594
C10   C     C_R   0.439425 0.367003 0.939703 -0.137536
C11   C     C_R   0.490691 0.502919 0.029937 -0.085758
C12   C     C_R   0.509254 0.497186 0.970068 -0.085744
C13   C     C_R   0.399934 0.379440 0.059488 -0.171411
C14   C     C_R   0.599993 0.620671 0.940516 -0.171665
C15   C     C_R   0.654008 0.755740 0.030427 0.402814
C16   C     C_R   0.345998 0.244343 0.969584 0.402962
C17   C     C_R   0.685826 0.742372 0.970998 0.181602
C18   C     C_R   0.314037 0.257772 0.029010 0.181147
O9    O     O_2   0.349451 0.248983 0.147613 -0.512699
O10   O     O_2   0.650646 0.751038 0.852374 -0.512356
O11   O     O_2   0.593283 0.759094 0.150911 -0.492960
O12   O     O_2   0.406469 0.241039 0.849102 -0.492557
C19   C     C_R   0.363463 0.462938 0.766923 -0.150080
C20   C     C_R   0.636505 0.537166 0.233077 -0.150267
H1    H     H_    0.248567 0.434070 0.794172 0.204014
H2    H     H_    0.751383 0.566092 0.205828 0.204010
C21   C     C_R   0.357043 0.448340 0.707989 0.297390
C22   C     C_R   0.642936 0.551726 0.292012 0.297374
C23   C     C_R   0.505859 0.492415 0.672709 -0.187544
C24   C     C_R   0.494137 0.507595 0.327292 -0.187497
C25   C     C_R   0.660375 0.537656 0.697669 -0.158029
C26   C     C_R   0.339629 0.462317 0.302333 -0.158100
H3    H     H_    0.775201 0.573143 0.671865 0.251912
H4    H     H_    0.224818 0.426788 0.328137 0.251876
C27   C     C_R   0.668753 0.537585 0.756413 -0.023177
C28   C     C_R   0.331241 0.462405 0.243590 -0.023199
H5    H     H_    0.790978 0.566391 0.774692 0.205548
H6    H     H_    0.209022 0.433562 0.225311 0.205556
C29   C     C_R   0.519847 0.501306 0.791391 0.185504
C30   C     C_R   0.480128 0.498750 0.208611 0.185477
C31   C     C_2   0.570433 0.956964 0.498774 0.196021
C32   C     C_2   0.429566 0.043036 0.501232 0.196019
N3    N     N_2   0.950330 0.457950 0.484560 0.034227
N4    N     N_2   0.049670 0.542050 0.515440 0.034222
O13   O     O_3   0.736341 0.877273 0.059563 -0.508276
C33   C     C_3   0.624906 0.999653 0.067102 0.001089
H7    H     H_    0.678749 0.085012 0.098265 0.221535
H8    H     H_    0.492972 0.960125 0.084309 0.169028
H9    H     H_    0.616339 0.060992 0.026779 0.110688
O14   O     O_3   0.263910 0.122688 0.940449 -0.508026
C34   C     C_3   0.375306 0.000236 0.933276 0.002372
H10   H     H_    0.387116 0.941948 0.974057 0.106693
H11   H     H_    0.506031 0.039153 0.914790 0.172120
H12   H     H_    0.319450 0.912467 0.903332 0.220600
N5    N     N_R   0.821665 0.839496 0.942961 0.283155
O15   O     O_R   0.832287 0.988645 0.951709 -0.321733
O16   O     O_R   0.944713 0.776348 0.912172 -0.326564
N6    N     N_R   0.177952 0.160850 0.057038 0.282791
O17   O     O_R   0.166279 0.011847 0.047996 -0.320318
O18   O     O_R   0.055370 0.224220 0.087975 -0.326744
N7    N     N_R   0.205052 0.374784 0.685400 0.261891
O19   O     O_R   0.220243 0.260950 0.648507 -0.381479
O20   O     O_R   0.054535 0.394309 0.711194 -0.353740
N8    N     N_R   0.794920 0.625289 0.314604 0.261852
O21   O     O_R   0.779716 0.739095 0.351508 -0.381553
O22   O     O_R   0.945439 0.605793 0.288807 -0.353732
O23   O     O_3   0.736341 0.019827 0.506862 -0.632904
C35   C     C_3   0.836039 0.017768 0.454333 -0.081137
H13   H     H_    0.765724 0.058588 0.418467 0.175121
H14   H     H_    0.881988 0.901068 0.444197 0.219565
H15   H     H_    0.952268 0.097180 0.458397 0.219057
O24   O     O_3   0.263656 0.980174 0.493148 -0.632913
C36   C     C_3   0.163972 0.982233 0.545680 -0.081154
H16   H     H_    0.118040 0.098937 0.555820 0.219566
H17   H     H_    0.234293 0.941399 0.581542 0.175131
H18   H     H_    0.047733 0.902833 0.541618 0.219061
N9    N     N_R   0.006583 0.459478 0.427449 0.292780
O25   O     O_R   0.044793 0.592053 0.403363 -0.316465
O26   O     O_R   0.969696 0.338866 0.395404 -0.426046
N10   N     N_R   0.993418 0.540515 0.572550 0.292779
O27   O     O_R   0.955200 0.407938 0.596634 -0.316481
O28   O     O_R   0.030309 0.661122 0.604599 -0.426005

loop_
_geom_bond_atom_site_label_1
_geom_bond_atom_site_label_2
_geom_bond_distance
_ccdc_geom_bond_type
N3    N4    1.276653 D    
C34   H11   1.113676 S    
C15   C17   1.405316 A    
N7    O20   1.301387 A    
N7    O19   1.301066 A    
C32   O24   1.391730 S    
C27   H5    1.082848 S    
C31   C32   1.364370 D    
O5    C3    1.298373 A    
O1    C1    1.277382 A    
C1    C31   1.411651 S    
C31   O23   1.391733 S    
C12   C14   1.413402 A    
C5    C13   1.402886 A    
C33   H8    1.113556 S    
O4    Zn1   1.999063 S    
C4    C24   1.466712 S    
C17   N5    1.440976 S    
C11   C12   1.405169 A    
N6    O17   1.300116 A    
N9    O26   1.299184 A    
C20   C30   1.399261 A    
Zn1   N4    2.024464 S    
C8    O12   1.348908 S    
C33   H9    1.107751 S    
C28   H6    1.082850 S    
Zn2   N3    2.024462 S    
C9    C15   1.420759 A    
C34   H12   1.109758 S    
C10   C16   1.420699 A    
C23   C25   1.403187 A    
O2    C2    1.277382 A    
C24   C26   1.403186 A    
C2    C32   1.411647 S    
C35   H15   1.107589 S    
N1    C30   1.434417 S    
C18   N6    1.441201 S    
C26   H4    1.077481 S    
N2    C29   1.434430 S    
C36   H17   1.114807 S    
C6    C14   1.402931 A    
C34   H10   1.108201 S    
N5    O15   1.300316 A    
C20   C22   1.392266 A    
O24   C36   1.413196 S    
C35   H14   1.108889 S    
C15   O13   1.385361 S    
C27   C29   1.397837 A    
C7    O11   1.348885 S    
C36   H16   1.108888 S    
C22   N8    1.434318 S    
N5    O16   1.301644 A    
C19   C21   1.392267 A    
O7    Zn2   2.020007 S    
O14   C34   1.413903 S    
O7    C3    1.302255 A    
O5    Zn1   1.996562 S    
O6    C4    1.298373 A    
N10   O28   1.299187 A    
N8    O21   1.301068 A    
C25   H3    1.077476 S    
O3    Zn2   1.999062 S    
O8    C4    1.302250 A    
O4    C2    1.293337 A    
C8    C10   1.405250 A    
C9    C11   1.415663 A    
C19   C29   1.399260 A    
C10   C12   1.415656 A    
O1    Zn1   1.975109 S    
C20   H2    1.083288 S    
C36   H18   1.107590 S    
C13   C18   1.414912 A    
C5    N1    1.365493 A    
O6    Zn2   1.996562 S    
C19   H1    1.083286 S    
N8    O22   1.301392 A    
C35   H13   1.114807 S    
O3    C1    1.293339 A    
O8    Zn1   2.020007 S    
C5    O9    1.349693 S    
C6    O10   1.349687 S    
C16   C18   1.405433 A    
C33   H7    1.109322 S    
N3    N9    1.383685 S    
O13   C33   1.414114 S    
C22   C24   1.415183 A    
N10   O27   1.301604 A    
N1    C7    1.368289 A    
C3    C23   1.466723 S    
N2    C8    1.368297 A    
C21   N7    1.434314 S    
O2    Zn2   1.975109 S    
O23   C35   1.413198 S    
C28   C30   1.397834 A    
C11   C13   1.413406 A    
C21   C23   1.415181 A    
C14   C17   1.414931 A    
C6    N2    1.365515 A    
N6    O18   1.301617 A    
N9    O25   1.301612 A    
N4    N10   1.383682 S    
C25   C27   1.387517 A    
C26   C28   1.387510 A    
C7    C9    1.405275 A    
C16   O14   1.385245 S    
