data_mof_unit_11151.cif
_audit_creation_date              2013-03-05T15:42:41-0500
_audit_creation_method            fapswitch 2.2
_symmetry_space_group_name_H-M    P1
_symmetry_Int_Tables_number       1
_space_group_crystal_system       triclinic
_cell_length_a                    7.741326
_cell_length_b                    8.54777
_cell_length_c                    27.676606
_cell_angle_alpha                 90.982464
_cell_angle_beta                  86.110331
_cell_angle_gamma                 93.81
_cell_volume                      1822.98698658

loop_
_atom_site_label
_atom_site_type_symbol
_atom_site_description
_atom_site_fract_x
_atom_site_fract_y
_atom_site_fract_z
_atom_type_partial_charge
O1    O     O_R   0.389250 0.738570 0.503220 -0.614219
O2    O     O_R   0.610750 0.261430 0.496780 -0.614036
O3    O     O_R   0.678390 0.711630 0.494810 -0.630030
O4    O     O_R   0.321610 0.288370 0.505190 -0.629458
C1    C     C_R   0.545976 0.794852 0.498735 0.967745
C2    C     C_R   0.454025 0.205149 0.501277 0.969191
O5    O     O_R   0.355440 0.513440 0.575450 -0.590764
O6    O     O_R   0.644560 0.486560 0.424550 -0.592698
O7    O     O_R   0.644590 0.486500 0.567040 -0.636341
O8    O     O_R   0.355410 0.513500 0.432960 -0.634410
C3    C     C_R   0.502597 0.498875 0.593844 0.916396
C4    C     C_R   0.497438 0.501178 0.406124 0.915266
Zn1   Zn    Zn3+2 0.306940 0.517990 0.505620 0.962967
Zn2   Zn    Zn3+2 0.693060 0.482010 0.494380 0.961981
C5    C     C_R   0.500572 0.640072 0.822519 0.566536
C6    C     C_R   0.499106 0.358785 0.177343 0.542004
O9    O     O_2   0.459082 0.767035 0.798492 -0.518412
O10   O     O_2   0.541037 0.232054 0.201403 -0.519307
N1    N     N_R   0.547135 0.508977 0.797393 -0.337744
N2    N     N_R   0.453439 0.490223 0.202423 -0.349405
C7    C     C_R   0.590803 0.378334 0.820161 0.552893
C8    C     C_R   0.407455 0.620033 0.179679 0.516910
C9    C     C_R   0.388596 0.430258 0.726831 0.082688
C10   C     C_R   0.616924 0.561496 0.273064 0.078374
C11   C     C_R   0.374397 0.428424 0.676428 0.037380
C12   C     C_R   0.629777 0.563992 0.323303 0.095343
C13   C     C_R   0.658669 0.569376 0.666238 -0.295501
C14   C     C_R   0.338256 0.437457 0.333680 -0.297821
C15   C     C_R   0.671607 0.573358 0.715975 0.180070
C16   C     C_R   0.325734 0.433426 0.283912 0.220187
C17   C     C_R   0.536547 0.503989 0.746202 0.260286
C18   C     C_R   0.464675 0.495523 0.253585 0.208504
C19   C     C_R   0.530927 0.506522 0.897678 -0.048215
C20   C     C_R   0.466223 0.491397 0.102184 -0.048776
C21   C     C_R   0.493281 0.641889 0.873125 -0.030237
C22   C     C_R   0.504974 0.356411 0.126751 -0.027111
C23   C     C_R   0.446634 0.774846 0.899382 -0.132699
C24   C     C_R   0.551361 0.223341 0.100513 -0.134587
C25   C     C_R   0.582315 0.374181 0.870739 -0.027266
C26   C     C_R   0.414576 0.623682 0.129109 -0.025126
C27   C     C_R   0.510626 0.498978 0.646295 -0.080754
C28   C     C_R   0.489586 0.501015 0.353611 -0.107422
H1    H     H_    0.763548 0.623686 0.643099 0.182218
H2    H     H_    0.230317 0.388439 0.356824 0.182216
H3    H     H_    0.419663 0.881058 0.881251 0.193535
H4    H     H_    0.579104 0.117392 0.118664 0.192385
C29   C     C_R   0.444182 0.633056 0.026779 0.047089
C30   C     C_R   0.551431 0.364315 0.973072 0.047271
C31   C     C_R   0.532895 0.359786 0.024362 0.047529
C32   C     C_R   0.463262 0.637758 0.975501 0.047608
C33   C     C_R   0.480805 0.494644 0.050868 0.074195
C34   C     C_R   0.515446 0.502944 0.948990 0.075934
C35   C     C_R   0.388389 0.762196 0.055104 -0.225904
C36   C     C_R   0.606299 0.234878 0.944729 -0.223879
C37   C     C_R   0.374276 0.757290 0.105209 -0.137977
C38   C     C_R   0.621063 0.240036 0.894629 -0.134653
O11   O     O_2   0.358052 0.745742 0.206039 -0.528139
O12   O     O_2   0.639501 0.252379 0.793806 -0.532853
C39   C     C_R   0.432878 0.773543 0.949523 -0.222697
C40   C     C_R   0.564107 0.224273 0.050366 -0.223697
H5    H     H_    0.332889 0.859928 0.125185 0.198710
H6    H     H_    0.661952 0.137242 0.874644 0.197744
H7    H     H_    0.353678 0.869911 0.040006 0.144257
H8    H     H_    0.639717 0.126698 0.959802 0.143371
H9    H     H_    0.397899 0.882017 0.966540 0.140228
H10   H     H_    0.599371 0.115847 0.033374 0.140325
C41   C     C_2   0.570229 0.958415 0.497997 -0.365985
C42   C     C_2   0.429774 0.041587 0.502035 -0.365807
H11   H     H_    0.702751 0.009795 0.494135 0.181732
H12   H     H_    0.297252 0.990207 0.505898 0.181663
N3    N     N_2   0.950320 0.457960 0.486880 -0.169551
N4    N     N_2   0.049680 0.542040 0.513120 -0.169474
H13   H     H_    0.013974 0.383139 0.463365 0.193122
H14   H     H_    0.986025 0.616867 0.536633 0.193188
I1    I     I_    0.896781 0.685685 0.743927 -0.324426
I2    I     I_    0.095981 0.330553 0.255925 -0.308260
N5    N     N_3   0.782188 0.634657 0.343696 -0.420489
H15   H     H_    0.889592 0.576898 0.329473 0.229697
H16   H     H_    0.798052 0.751746 0.332961 0.214867
N6    N     N_3   0.225780 0.351966 0.655578 -0.430144
H17   H     H_    0.114461 0.404079 0.669695 0.211085
H18   H     H_    0.216503 0.233848 0.665231 0.196226
N7    N     N_3   0.759142 0.626309 0.242166 -0.433293
H19   H     H_    0.716205 0.719047 0.223058 0.222598
H20   H     H_    0.797260 0.540013 0.217202 0.218609
N8    N     N_3   0.255111 0.357248 0.758998 -0.432711
H21   H     H_    0.138456 0.407828 0.754230 0.219488
H22   H     H_    0.240604 0.238050 0.750038 0.220669

loop_
_geom_bond_atom_site_label_1
_geom_bond_atom_site_label_2
_geom_bond_distance
_ccdc_geom_bond_type
C13   C15   1.386627 A    
C11   N6    1.435599 S    
Zn2   N3    2.012066 S    
C1    C41   1.398546 S    
N1    C17   1.424445 S    
C8    O11   1.350186 S    
N5    H15   1.045709 S    
C19   C34   1.417755 A    
C30   C36   1.416812 A    
C20   C33   1.417677 A    
C19   C25   1.408696 A    
C31   C40   1.416859 A    
O1    C1    1.273935 A    
C32   C39   1.416768 A    
N1    C7    1.364395 A    
C10   N7    1.434495 S    
C10   C12   1.400433 A    
N8    H22   1.045051 S    
C14   C28   1.401652 A    
O4    Zn1   1.973327 S    
C4    C28   1.458739 S    
C25   C38   1.393029 A    
C31   C33   1.422039 A    
C9    N8    1.434716 S    
C32   C34   1.422016 A    
C6    N2    1.364476 A    
C29   C35   1.416819 A    
C2    C42   1.398544 S    
C40   H10   1.075139 S    
O2    C2    1.273937 A    
C5    C21   1.397769 A    
O5    C3    1.293105 A    
C29   C32   1.417847 A    
C35   C37   1.384753 A    
C36   C38   1.384775 A    
C12   N5    1.435066 S    
C41   C42   1.335535 D    
N4    H14   1.029322 S    
C11   C27   1.408819 A    
N3    H13   1.029323 S    
N8    H21   1.043971 S    
C29   C33   1.421933 A    
C14   H2    1.083581 S    
C41   H11   1.087950 S    
C9    C17   1.404361 A    
C5    N1    1.364599 A    
O7    Zn2   2.020692 S    
C10   C18   1.408978 A    
C16   I2    2.119508 S    
C13   C27   1.401052 A    
N7    H19   1.044869 S    
C7    C25   1.397876 A    
C30   C34   1.422010 A    
O6    C4    1.293341 A    
C26   C37   1.392990 A    
C8    C26   1.397732 A    
N5    H16   1.045932 S    
O7    C3    1.293024 A    
C23   C39   1.384748 A    
O3    Zn2   1.973328 S    
O8    C4    1.293652 A    
C24   C40   1.384829 A    
O4    C2    1.283640 A    
C30   C31   1.417983 A    
N7    H20   1.045152 S    
N2    C8    1.364191 A    
C38   H6    1.083841 S    
O1    Zn1   1.950462 S    
C23   H3    1.083828 S    
C12   C28   1.409083 A    
N2    C18   1.424285 S    
C5    O9    1.350248 S    
O6    Zn2   1.995146 S    
C21   C23   1.393098 A    
N6    H17   1.045494 S    
O3    C1    1.283643 A    
O8    Zn1   2.020692 S    
C15   I1    2.119902 S    
Zn1   N4    2.012067 S    
C14   C16   1.387050 A    
C7    O12   1.350196 S    
C15   C17   1.400206 A    
C6    C22   1.397711 A    
C16   C18   1.400025 A    
C35   H7    1.075106 S    
C36   H8    1.075034 S    
C37   H5    1.083845 S    
C22   C24   1.393078 A    
C19   C21   1.408620 A    
N6    H18   1.045431 S    
C3    C27   1.457207 S    
C20   C22   1.408616 A    
C9    C11   1.406463 A    
O2    Zn2   1.950462 S    
C24   H4    1.083847 S    
C13   H1    1.083682 S    
O5    Zn1   1.995146 S    
N3    N4    1.272790 D    
C6    O10   1.350205 S    
C42   H12   1.087949 S    
C20   C26   1.408742 A    
C39   H9    1.075156 S    
