data_mof_unit_51014.cif
_audit_creation_date              2012-12-10T19:29:33-0500
_audit_creation_method            fapswitch 2.2
_symmetry_space_group_name_H-M    P1
_symmetry_Int_Tables_number       1
_space_group_crystal_system       triclinic
_cell_length_a                    22.443517
_cell_length_b                    22.029332
_cell_length_c                    14.940625
_cell_angle_alpha                 90.048603
_cell_angle_beta                  90.979108
_cell_angle_gamma                 89.94752
_cell_volume                      7385.79517774

loop_
_atom_site_label
_atom_site_type_symbol
_atom_type_description
_atom_site_fract_x
_atom_site_fract_y
_atom_site_fract_z
_atom_type_partial_charge
C1    C     C_R   0.418979 0.918680 0.499476 0.896015
C2    C     C_1   0.664804 0.839134 0.504078 0.138324
C3    C     C_3   0.365216 0.359119 0.583295 0.114519
C4    C     C_3   0.416986 0.400685 0.559127 -0.349720
C5    C     C_3   0.417674 0.458009 0.616662 -0.950331
C6    C     C_3   0.349953 0.645340 0.418608 0.118027
C7    C     C_3   0.411448 0.616092 0.429127 -0.310988
C8    C     C_3   0.410316 0.549382 0.401556 -0.996884
C9    C     C_3   0.635670 0.347955 0.577811 0.108264
C10   C     C_3   0.598154 0.368063 0.656867 -0.325076
C11   C     C_3   0.581509 0.435067 0.649581 -0.987331
C12   C     C_3   0.153646 0.138403 0.438524 0.101924
C13   C     C_1   0.664308 0.161678 0.503106 0.183530
C14   C     C_3   0.094470 0.105548 0.451327 -0.334294
C15   C     C_3   0.098423 0.039361 0.421631 -0.962272
C16   C     C_3   0.873735 0.863952 0.544469 0.110652
C17   C     C_3   0.923456 0.902419 0.505057 -0.347713
C18   C     C_3   0.930252 0.962498 0.555263 -0.952077
C19   C     C_3   0.846759 0.145840 0.391020 0.122074
C20   C     C_3   0.907746 0.114927 0.390565 -0.315516
C21   C     C_3   0.903904 0.051341 0.350268 -0.992997
C22   C     C_3   0.130288 0.854924 0.564183 0.109895
C23   C     C_3   0.091510 0.876148 0.641375 -0.328982
C24   C     C_1   0.335747 0.838476 0.499235 0.137201
C25   C     C_3   0.084927 0.945062 0.642163 -0.987205
C26   C     C_3   0.766833 0.892063 0.372946 0.124349
C27   C     C_3   0.724470 0.927926 0.311572 -0.341739
C28   C     C_3   0.725994 0.995744 0.332763 -0.949040
C29   C     C_3   0.191269 0.167122 0.671888 0.123693
C30   C     C_3   0.175361 0.103765 0.705399 -0.367872
C31   C     C_3   0.120644 0.105132 0.764517 -0.939395
C32   C     C_3   0.263204 0.856543 0.686384 0.109814
C33   C     C_3   0.312881 0.881029 0.747658 -0.309389
C34   C     C_3   0.307809 0.949674 0.759923 -0.975662
C35   C     C_1   0.843573 0.669775 0.497729 0.173763
C36   C     C_3   0.748309 0.241781 0.263888 0.105820
C37   C     C_3   0.744222 0.205603 0.176674 -0.346327
C38   C     C_3   0.771354 0.240609 0.099221 -0.941211
C39   C     C_3   0.272040 0.401680 0.401556 0.118835
C40   C     C_3   0.233946 0.441491 0.339201 -0.330996
C41   C     C_3   0.231562 0.507122 0.371914 -0.952026
C42   C     C_3   0.705202 0.691421 0.703021 0.135847
C43   C     C_3   0.727794 0.685574 0.799745 -0.325657
C44   C     C_3   0.678777 0.699888 0.866119 -0.938966
C45   C     C_3   0.776289 0.343739 0.690672 0.119068
C46   C     C_1   0.162463 0.336359 0.502657 0.137157
C47   C     C_3   0.832727 0.365503 0.739698 -0.327968
C48   C     C_3   0.833062 0.434383 0.750952 -0.959151
C49   C     C_3   0.256218 0.732993 0.269848 0.111782
C50   C     C_3   0.257443 0.691701 0.187700 -0.359494
C51   C     C_3   0.288291 0.722364 0.109554 -0.928483
C52   C     C_1   0.162320 0.663804 0.505645 0.188129
C53   C     C_1   0.838886 0.335272 0.497224 0.135241
C54   C     C_1   0.499882 0.999742 0.189748 0.134359
C55   C     C_1   0.499714 0.999653 0.810190 0.136864
C56   C     C_1   0.000076 0.499503 0.189778 0.139947
C57   C     C_R   0.581270 0.081105 0.500558 0.892078
C58   C     C_1   0.999329 0.499460 0.810219 0.134124
C59   C     C_3   0.453358 0.965416 0.968441 -0.323632
C60   C     C_3   0.545933 0.033149 0.031144 -0.309903
C61   C     C_3   0.504895 0.941581 0.030213 -0.301099
C62   C     C_3   0.494330 0.057017 0.969528 -0.290672
C63   C     C_3   0.985934 0.442342 0.969647 -0.308107
C64   C     C_3   0.012682 0.555216 0.030351 -0.280845
C65   C     C_3   0.040554 0.458544 0.030855 -0.322796
C66   C     C_3   0.957916 0.539006 0.969417 -0.304843
C67   C     C_3   0.703971 0.727871 0.499127 0.341301
C68   C     C_R   0.580746 0.918418 0.500576 0.895787
C69   C     C_3   0.306927 0.283612 0.516281 0.352064
C70   C     C_3   0.298175 0.727993 0.474548 0.343965
C71   C     C_3   0.702583 0.271232 0.540615 0.350602
C72   C     C_3   0.203741 0.226172 0.479959 0.335559
C73   C     C_3   0.809433 0.785448 0.502566 0.352066
C74   C     C_3   0.799655 0.225618 0.462810 0.341596
C75   C     C_3   0.197137 0.776027 0.536521 0.353179
C76   C     C_3   0.256351 0.230597 0.415552 -0.228520
C77   C     C_3   0.762491 0.789712 0.577762 -0.281948
C78   C     C_3   0.771976 0.200939 0.549048 -0.221395
C79   C     C_R   0.419600 0.082021 0.499430 0.892119
C80   C     C_3   0.228387 0.797562 0.450137 -0.277487
C81   C     C_3   0.750537 0.724491 0.424829 -0.226697
C82   C     C_3   0.254014 0.279709 0.581880 -0.280686
C83   C     C_3   0.266800 0.707410 0.560078 -0.219512
C84   C     C_3   0.730055 0.296932 0.453675 -0.282326
C85   C     C_1   0.378751 0.129751 0.497677 -0.129878
C86   C     C_1   0.625779 0.875022 0.502358 -0.145443
C87   C     C_1   0.626194 0.124741 0.501957 -0.132961
C88   C     C_1   0.374127 0.875057 0.498518 -0.146119
C89   C     C_1   0.878445 0.629534 0.498431 -0.127749
C90   C     C_R   0.919268 0.418407 0.499401 0.896594
C91   C     C_1   0.124266 0.373249 0.501863 -0.147799
C92   C     C_1   0.125209 0.625820 0.502794 -0.135082
C93   C     C_1   0.875996 0.373192 0.497848 -0.146915
C94   C     C_3   0.246131 0.211902 0.559164 0.342461
C95   C     C_3   0.760002 0.793605 0.430583 0.399174
C96   C     C_3   0.737880 0.231719 0.417306 0.342960
C97   C     C_3   0.257364 0.774057 0.587743 0.389154
C98   C     C_3   0.752454 0.720431 0.572093 0.350787
C99   C     C_3   0.263672 0.298561 0.438039 0.396993
C100  C     C_3   0.238645 0.730893 0.422195 0.340771
C101  C     C_R   0.081241 0.581154 0.500657 0.890185
C102  C     C_3   0.764830 0.266013 0.584853 0.398813
C103  C     C_3   0.298974 0.215840 0.494497 -0.105534
C104  C     C_3   0.712931 0.797012 0.504411 -0.167094
C105  C     C_3   0.710104 0.206482 0.503600 -0.111892
C106  C     C_3   0.289118 0.794684 0.502176 -0.164216
C107  C     C_3   0.799379 0.716359 0.497735 -0.114837
C108  C     C_3   0.210600 0.294110 0.502180 -0.160632
C109  C     C_3   0.207113 0.709695 0.507709 -0.109667
C110  C     C_3   0.792905 0.290760 0.498757 -0.162249
C111  C     C_3   0.449295 0.022705 0.027968 0.596069
C112  C     C_R   0.080453 0.418062 0.500517 0.892011
C113  C     C_3   0.549867 0.975897 0.971623 0.594461
C114  C     C_3   0.946479 0.482953 0.028906 0.590497
C115  C     C_3   0.052123 0.514625 0.971326 0.592890
C116  C     C_3   0.499908 0.999348 0.089457 -0.012343
C117  C     C_3   0.499275 0.999364 0.910350 -0.011420
C118  C     C_3   0.000160 0.498968 0.089533 -0.010113
C119  C     C_3   0.998506 0.498800 0.910478 -0.015522
C120  C     C_3   0.642020 0.934551 0.005656 0.066095
C121  C     C_3   0.695822 0.902557 0.965578 -0.303465
C122  C     C_3   0.741132 0.884213 0.037930 -0.925836
C123  C     C_R   0.919437 0.581889 0.499517 0.894581
C124  C     C_3   0.355547 0.058511 0.990680 0.065531
C125  C     C_3   0.302061 0.093778 0.025489 -0.295163
C126  C     C_3   0.255829 0.105039 0.951118 -0.938126
C127  C     C_3   0.152077 0.528993 0.003008 0.064578
C128  C     C_3   0.208646 0.559541 0.969867 -0.286070
C129  C     C_3   0.260536 0.550253 0.035815 -0.971804
C130  C     C_3   0.850370 0.450677 0.998106 0.063308
C131  C     C_3   0.792358 0.430573 0.041230 -0.287817
C132  C     C_3   0.745609 0.411973 0.971132 -0.978512
C133  C     C_2   0.259176 0.205571 0.322321 0.967276
C134  C     C_1   0.343780 0.169870 0.495574 0.182613
C135  C     C_2   0.766691 0.824963 0.663759 0.892336
C136  C     C_2   0.795339 0.148564 0.603321 0.981303
C137  C     C_2   0.207943 0.848119 0.389704 0.878540
C138  C     C_2   0.744141 0.690273 0.338356 0.982885
C139  C     C_2   0.250651 0.305637 0.674564 0.885028
C140  C     C_2   0.287836 0.658338 0.622613 0.980692
C141  C     C_2   0.708253 0.350558 0.400326 0.874162
C142  C     C_3   0.650163 0.637510 0.491754 0.116950
C143  C     C_3   0.603633 0.614578 0.423938 -0.323571
C144  C     C_3   0.604321 0.545432 0.417376 -0.948073
H1    H     H_    0.509889 0.894307 0.054888 0.159690
H2    H     H_    0.657716 0.975766 0.042207 0.139544
H3    H     H_    0.065185 0.960962 0.577833 0.279715
H4    H     H_    0.813319 0.906643 0.360590 0.160354
H5    H     H_    0.756298 0.903632 0.443412 0.115557
H6    H     H_    0.737106 0.920843 0.240770 0.228783
H7    H     H_    0.678254 0.910997 0.319870 0.238796
H8    H     H_    0.712844 0.003998 0.403105 0.272828
H9    H     H_    0.694241 0.020078 0.287643 0.272414
H10   H     H_    0.771339 0.014210 0.322355 0.260509
H11   H     H_    0.152065 0.185779 0.634355 0.167958
H12   H     H_    0.201015 0.196764 0.730496 0.178028
H13   H     H_    0.680665 0.861266 0.928928 0.232614
H14   H     H_    0.166292 0.073654 0.647032 0.224017
H15   H     H_    0.213667 0.084660 0.744269 0.239067
H16   H     H_    0.128996 0.134466 0.823925 0.273485
H17   H     H_    0.110651 0.058452 0.787851 0.269769
H18   H     H_    0.081403 0.122584 0.726174 0.274331
H19   H     H_    0.219635 0.865217 0.718020 0.159188
H20   H     H_    0.264442 0.882277 0.622460 0.116557
H21   H     H_    0.310640 0.858614 0.814144 0.230047
H22   H     H_    0.356794 0.870356 0.718082 0.241119
H23   H     H_    0.310963 0.973072 0.694322 0.278446
H24   H     H_    0.717642 0.933361 0.917212 0.232131
H25   H     H_    0.344720 0.965954 0.804134 0.256721
H26   H     H_    0.264726 0.961501 0.791084 0.259167
H27   H     H_    0.796133 0.251391 0.279351 0.155781
H28   H     H_    0.724397 0.285340 0.253362 0.184854
H29   H     H_    0.768060 0.161685 0.185007 0.215721
H30   H     H_    0.696686 0.195785 0.160325 0.243208
H31   H     H_    0.746989 0.283931 0.088008 0.270325
H32   H     H_    0.768098 0.212997 0.037128 0.276879
H33   H     H_    0.819078 0.250534 0.113678 0.268021
H34   H     H_    0.318674 0.418442 0.401541 0.160167
H35   H     H_    0.758388 0.925079 0.073377 0.257180
H36   H     H_    0.255016 0.406676 0.470605 0.113573
H37   H     H_    0.252634 0.440495 0.270784 0.233364
H38   H     H_    0.187858 0.423114 0.335561 0.237902
H39   H     H_    0.212671 0.509350 0.440100 0.270101
H40   H     H_    0.202831 0.534328 0.325860 0.276885
H41   H     H_    0.276882 0.527159 0.373097 0.260376
H42   H     H_    0.669782 0.657099 0.691683 0.139523
H43   H     H_    0.684445 0.737059 0.693808 0.151309
H44   H     H_    0.744165 0.638559 0.811534 0.221880
H45   H     H_    0.765550 0.717292 0.811511 0.267373
H46   H     H_    0.779106 0.860360 0.006674 0.280079
H47   H     H_    0.662860 0.747289 0.857005 0.271008
H48   H     H_    0.696558 0.694847 0.935529 0.276464
H49   H     H_    0.640750 0.668171 0.856502 0.266531
H50   H     H_    0.737315 0.351601 0.734042 0.156339
H51   H     H_    0.769824 0.371847 0.629472 0.116873
H52   H     H_    0.835832 0.343665 0.806645 0.219412
H53   H     H_    0.872482 0.351900 0.701090 0.245322
H54   H     H_    0.833090 0.456952 0.684489 0.282538
H55   H     H_    0.873760 0.448381 0.788819 0.256402
H56   H     H_    0.793345 0.449473 0.788210 0.258263
H57   H     H_    0.720390 0.853167 0.086971 0.278060
H58   H     H_    0.302980 0.744613 0.289434 0.156643
H59   H     H_    0.232022 0.775205 0.251231 0.183639
H60   H     H_    0.281533 0.649101 0.204899 0.215227
H61   H     H_    0.211071 0.679832 0.167025 0.241255
H62   H     H_    0.264563 0.764829 0.090515 0.270275
H63   H     H_    0.288019 0.691394 0.050896 0.274606
H64   H     H_    0.335255 0.733189 0.127972 0.267630
H65   H     H_    0.339384 0.014395 0.963292 0.142021
H66   H     H_    0.376065 0.085462 0.936137 0.143187
H67   H     H_    0.281036 0.067679 0.080204 0.229909
H68   H     H_    0.317351 0.138117 0.052995 0.236747
H69   H     H_    0.489073 0.104271 0.944872 0.165227
H70   H     H_    0.275562 0.132055 0.896314 0.279324
H71   H     H_    0.217562 0.130654 0.978396 0.275378
H72   H     H_    0.239183 0.061243 0.923573 0.260063
H73   H     H_    0.162189 0.480409 0.016948 0.150772
H74   H     H_    0.138432 0.551944 0.066031 0.130568
H75   H     H_    0.220786 0.540141 0.903910 0.242481
H76   H     H_    0.200355 0.608974 0.961288 0.230124
H77   H     H_    0.248790 0.567571 0.103026 0.261821
H78   H     H_    0.300279 0.575106 0.012132 0.275339
H79   H     H_    0.271800 0.501260 0.041111 0.273109
H80   H     H_    0.415440 0.937760 0.942769 0.154308
H81   H     H_    0.867479 0.412285 0.957378 0.142980
H82   H     H_    0.840985 0.490404 0.954005 0.142735
H83   H     H_    0.801544 0.391412 0.086306 0.230169
H84   H     H_    0.774426 0.468406 0.082076 0.233919
H85   H     H_    0.734131 0.451073 0.927238 0.265058
H86   H     H_    0.704590 0.396806 0.005053 0.274288
H87   H     H_    0.762373 0.373905 0.929762 0.271073
H88   H     H_    0.299212 0.148706 0.236291 0.341728
H89   H     H_    0.733733 0.891971 0.740440 0.342933
H90   H     H_    0.781035 0.064742 0.652455 0.342338
H91   H     H_    0.584219 0.060384 0.056577 0.156471
H92   H     H_    0.224203 0.930906 0.338296 0.344263
H93   H     H_    0.774486 0.623640 0.258571 0.344441
H94   H     H_    0.211025 0.364422 0.758196 0.347332
H95   H     H_    0.271468 0.577490 0.680249 0.339082
H96   H     H_    0.724167 0.435181 0.355495 0.341995
H97   H     H_    0.639688 0.618189 0.558136 0.146824
H98   H     H_    0.694794 0.619870 0.472633 0.135513
H99   H     H_    0.558603 0.629729 0.444403 0.228991
H100  H     H_    0.612802 0.634082 0.357032 0.255080
H101  H     H_    0.648657 0.529247 0.395525 0.274880
H102  H     H_    0.074233 0.425658 0.056414 0.158069
H103  H     H_    0.570126 0.530294 0.367656 0.273825
H104  H     H_    0.594095 0.524989 0.483237 0.262722
H105  H     H_    0.372026 0.343308 0.653307 0.191234
H106  H     H_    0.323311 0.386004 0.578926 0.110760
H107  H     H_    0.459761 0.375923 0.568918 0.240375
H108  H     H_    0.412916 0.413841 0.487528 0.229741
H109  H     H_    0.374966 0.483123 0.608595 0.270749
H110  H     H_    0.454408 0.488214 0.595559 0.274914
H111  H     H_    0.424698 0.446071 0.688283 0.275035
H112  H     H_    0.335699 0.642760 0.347249 0.156392
H113  H     H_    0.923413 0.571244 0.944511 0.162073
H114  H     H_    0.317904 0.618721 0.458936 0.134598
H115  H     H_    0.443817 0.640779 0.387042 0.228857
H116  H     H_    0.426584 0.619471 0.500201 0.247567
H117  H     H_    0.378903 0.523686 0.443796 0.268450
H118  H     H_    0.455503 0.529515 0.410543 0.278186
H119  H     H_    0.396421 0.544865 0.330149 0.271849
H120  H     H_    0.608512 0.353430 0.515503 0.195524
H121  H     H_    0.675451 0.377896 0.574893 0.112786
H122  H     H_    0.556775 0.340426 0.658746 0.236616
H123  H     H_    0.623648 0.360583 0.720334 0.226612
H124  H     H_    0.974507 0.396260 0.944681 0.157959
H125  H     H_    0.622241 0.463697 0.651347 0.265370
H126  H     H_    0.553029 0.447997 0.706576 0.279460
H127  H     H_    0.556440 0.443605 0.586142 0.269159
H128  H     H_    0.188565 0.114482 0.479042 0.158067
H129  H     H_    0.165298 0.135789 0.366678 0.166518
H130  H     H_    0.082309 0.107257 0.523113 0.227291
H131  H     H_    0.058871 0.128674 0.411470 0.240060
H132  H     H_    0.110189 0.036585 0.349830 0.277703
H133  H     H_    0.054673 0.016938 0.430489 0.262162
H134  H     H_    0.132611 0.014836 0.462358 0.269011
H135  H     H_    0.024897 0.601169 0.055014 0.166534
H136  H     H_    0.886342 0.852368 0.614611 0.193908
H137  H     H_    0.832343 0.891767 0.544060 0.112297
H138  H     H_    0.966241 0.877029 0.509035 0.239344
H139  H     H_    0.913089 0.911967 0.433470 0.228075
H140  H     H_    0.887741 0.988380 0.552993 0.274024
H141  H     H_    0.965144 0.990431 0.523545 0.268962
H142  H     H_    0.943375 0.954087 0.626186 0.278585
H143  H     H_    0.829170 0.148196 0.321278 0.158110
H144  H     H_    0.816044 0.117243 0.430859 0.135243
H145  H     H_    0.939138 0.142621 0.350878 0.233501
H146  H     H_    0.620586 0.902872 0.053434 0.139106
H147  H     H_    0.925513 0.111664 0.460324 0.243445
H148  H     H_    0.873528 0.022499 0.389794 0.267414
H149  H     H_    0.948817 0.030165 0.351094 0.278362
H150  H     H_    0.887242 0.053583 0.279913 0.270298
H151  H     H_    0.105194 0.862290 0.500386 0.187629
H152  H     H_    0.171373 0.883018 0.563319 0.107746
H153  H     H_    0.046694 0.854986 0.634945 0.233773
H154  H     H_    0.111849 0.861467 0.706139 0.233634
H155  H     H_    0.129098 0.966815 0.652808 0.263819
H156  H     H_    0.055321 0.958898 0.697362 0.277842
N1    N     N_1   0.500020 0.000000 0.268010 -0.087349
N2    N     N_1   0.499980 0.000000 0.731990 -0.086001
N3    N     N_1   0.000020 0.500000 0.268010 -0.087509
N4    N     N_1   0.999980 0.500000 0.731990 -0.084534
O1    O     O_R   0.438390 0.938390 0.574460 -0.621025
O2    O     O_R   0.561600 0.061610 0.574480 -0.596114
O3    O     O_R   0.561600 0.938390 0.574480 -0.588407
O4    O     O_R   0.438400 0.061610 0.425520 -0.586991
O5    O     O_R   0.938400 0.438390 0.425520 -0.591955
O6    O     O_R   0.061600 0.561610 0.574480 -0.590900
O7    O     O_R   0.061600 0.438390 0.574480 -0.592020
O8    O     O_R   0.938400 0.561610 0.425520 -0.590425
O9    O     O_3   0.602196 0.950881 0.935702 -0.634933
O10   O     O_3   0.396577 0.048366 0.061817 -0.633728
O11   O     O_3   0.107149 0.533219 0.936103 -0.633042
O12   O     O_R   0.561610 0.061610 0.425540 -0.611521
O13   O     O_3   0.891554 0.466492 0.066471 -0.637589
O14   O     O_2   0.223755 0.223475 0.265172 -0.594052
O15   O     O_R   0.302034 0.162081 0.301167 -0.806887
O16   O     O_2   0.805100 0.812000 0.719456 -0.635383
O17   O     O_R   0.726529 0.872002 0.680065 -0.806998
O18   O     O_2   0.845533 0.151040 0.636103 -0.592649
O19   O     O_R   0.760041 0.097130 0.615457 -0.823397
O20   O     O_2   0.160419 0.843676 0.349086 -0.620021
O21   O     O_R   0.243024 0.899986 0.380322 -0.817833
O22   O     O_2   0.704176 0.703788 0.285475 -0.604044
O23   O     O_R   0.561610 0.938390 0.425540 -0.624535
O24   O     O_R   0.783634 0.643283 0.318628 -0.813180
O25   O     O_2   0.284488 0.286966 0.733305 -0.623906
O26   O     O_R   0.208868 0.350686 0.693447 -0.807436
O27   O     O_2   0.336452 0.662993 0.660047 -0.591314
O28   O     O_R   0.252156 0.607508 0.637289 -0.823966
O29   O     O_2   0.659362 0.348602 0.363152 -0.624672
O30   O     O_R   0.743802 0.402276 0.393142 -0.815679
O31   O     O_3   0.646564 0.701585 0.496946 -0.625487
O32   O     O_3   0.364825 0.308404 0.525580 -0.614016
O33   O     O_3   0.353895 0.706882 0.444800 -0.625013
O34   O     O_R   0.438390 0.061610 0.574460 -0.615129
O35   O     O_3   0.650716 0.286228 0.588435 -0.617511
O36   O     O_3   0.147193 0.199825 0.463773 -0.624222
O37   O     O_3   0.867416 0.809890 0.494538 -0.613795
O38   O     O_3   0.853464 0.205331 0.425239 -0.624229
O39   O     O_3   0.142067 0.792381 0.574464 -0.614184
O40   O     O_3   0.761746 0.829575 0.352288 -0.601892
O41   O     O_3   0.242523 0.162466 0.618961 -0.635697
O42   O     O_3   0.270561 0.793172 0.676315 -0.602914
O43   O     O_3   0.720938 0.208341 0.332505 -0.630341
O44   O     O_3   0.271326 0.341448 0.368731 -0.598875
O45   O     O_R   0.938390 0.438390 0.574460 -0.625439
O46   O     O_3   0.752727 0.679229 0.644553 -0.634214
O47   O     O_3   0.781195 0.280712 0.674109 -0.602586
O48   O     O_3   0.225938 0.702914 0.338937 -0.633380
O49   O     O_R   0.061610 0.561610 0.425540 -0.614348
O50   O     O_R   0.061610 0.438390 0.425540 -0.619992
O51   O     O_R   0.938390 0.561610 0.574460 -0.613112
O52   O     O_R   0.438400 0.938390 0.425520 -0.597703
Zn1   Zn    Zn3+2 0.500000 0.000000 0.599450 1.010543
Zn2   Zn    Zn3+2 0.500000 0.000000 0.400550 1.009804
Zn3   Zn    Zn3+2 0.000000 0.500000 0.599450 1.008473
Zn4   Zn    Zn3+2 0.000000 0.500000 0.400550 1.011507

loop_
_geom_bond_atom_site_label_1
_geom_bond_atom_site_label_2
_ccdc_geom_bond_type
C31   H17   S    
C120  H2    S    
C82   C94   S    
C68   O3    A    
C7    H115  S    
C33   H22   S    
C3    H106  S    
C129  H79   S    
C66   H113  S    
C63   C65   S    
C39   H36   S    
C137  O20   D    
O4    Zn2   S    
C81   C95   S    
C135  O16   D    
C124  H65   S    
C64   H135  S    
C143  C144  S    
C32   H19   S    
O7    Zn3   S    
H92   O21   S    
C64   C118  S    
C60   C62   S    
C140  O27   D    
C121  H24   S    
C97   O42   S    
C42   O46   S    
C19   C20   S    
C54   C116  S    
C79   O34   A    
C59   C111  S    
C65   C118  S    
C123  O8    A    
C29   H11   S    
C72   C94   S    
C76   C103  S    
C100  C109  S    
C64   C115  S    
C68   O23   A    
C22   H151  S    
C83   C140  S    
C125  H68   S    
C45   C47   S    
C122  H35   S    
C51   H62   S    
C36   H28   S    
C48   H55   S    
C4    H108  S    
C26   O40   S    
C46   C91   T    
C9    H121  S    
C64   C66   S    
C43   C44   S    
C37   C38   S    
C38   H32   S    
C2    C104  S    
C19   O38   S    
C73   O37   S    
C26   C27   S    
C25   H3    S    
C26   H4    S    
C17   H138  S    
C35   C89   T    
C71   C102  S    
C9    O35   S    
C11   H126  S    
C73   C95   S    
C34   H23   S    
C79   C85   S    
C39   H34   S    
C90   C93   S    
C40   H37   S    
C55   C117  S    
C45   H50   S    
C70   O33   S    
C15   H134  S    
C4    C5    S    
C12   H129  S    
C74   C110  S    
C76   C133  S    
C6    C7    S    
C18   H142  S    
C52   C109  S    
O3    Zn1   S    
C113  O9    S    
C130  C131  S    
C26   H5    S    
C120  O9    S    
C30   C31   S    
O50   Zn4   S    
C25   H156  S    
C58   C119  S    
O34   Zn1   S    
C35   C107  S    
C59   H80   S    
C20   C21   S    
C130  H82   S    
C16   H136  S    
C73   C77   S    
C141  O30   S    
C57   O12   A    
C44   H48   S    
C80   C137  S    
C127  H74   S    
C42   H43   S    
C127  O11   S    
C65   H102  S    
C128  C129  S    
C7    C8    S    
C99   C108  S    
C43   H44   S    
C122  H57   S    
C36   C37   S    
C51   H63   S    
C56   N3    T    
C80   C106  S    
C39   O44   S    
C5    H109  S    
C62   C117  S    
C69   C82   S    
C67   C98   S    
C131  H84   S    
C62   C111  S    
C72   C108  S    
C46   C108  S    
H95   O28   S    
C41   H40   S    
C82   C108  S    
C9    C10   S    
C128  H76   S    
C85   C134  T    
C38   H33   S    
C144  H101  S    
C65   C115  S    
C60   H91   S    
C69   C103  S    
C30   H15   S    
C59   C61   S    
C100  O48   S    
C74   C96   S    
O6    Zn3   S    
C21   H149  S    
C133  O15   S    
C39   C40   S    
C21   H148  S    
C69   O32   S    
C142  H98   S    
C1    O1    A    
C57   C87   S    
C48   H54   S    
C91   C112  S    
C29   C30   S    
C63   C119  S    
C14   H130  S    
C130  O13   S    
C13   C87   T    
O52   Zn2   S    
C17   C18   S    
C114  O13   S    
C23   H154  S    
C34   H25   S    
C126  H72   S    
C113  C117  S    
O23   Zn2   S    
C67   C81   S    
C27   H6    S    
C115  C119  S    
C66   C119  S    
C74   C78   S    
C28   H9    S    
C143  H99   S    
C60   C116  S    
C24   C106  S    
C3    C4    S    
C132  H87   S    
C120  C121  S    
C139  O25   D    
N3    Zn4   S    
C10   H122  S    
C22   C23   S    
C11   H127  S    
C33   H21   S    
C3    H105  S    
C129  H78   S    
C55   N2    T    
C112  O7    A    
H94   O26   S    
C5    H111  S    
C142  O31   S    
C124  H66   S    
C19   H144  S    
C32   H20   S    
C140  O28   S    
C57   O2    A    
C123  O51   A    
C10   C11   S    
C12   O36   S    
C67   O31   S    
C49   C50   S    
C144  H103  S    
C14   C15   S    
C47   H53   S    
C8    H117  S    
C58   N4    T    
C96   C105  S    
C81   C107  S    
C78   C102  S    
C96   O43   S    
O51   Zn3   S    
C120  H146  S    
C22   H152  S    
C125  H67   S    
C74   O38   S    
C95   O40   S    
C44   H49   S    
C48   H56   S    
C36   O43   S    
C103  C134  S    
C16   O37   S    
C73   C107  S    
C9    H120  S    
C75   C97   S    
C136  O19   S    
C16   H137  S    
C61   H1    S    
C79   O4    A    
C126  H70   S    
C37   H30   S    
C94   O41   S    
C101  O6    A    
C16   C17   S    
C111  C116  S    
C63   H124  S    
C31   H16   S    
C1    C88   S    
C31   H18   S    
C132  H85   S    
C11   H125  S    
C7    H116  S    
C81   C138  S    
C54   N1    T    
C137  O21   S    
C122  H46   S    
C40   H38   S    
C49   O48   S    
N2    Zn1   S    
C47   H52   S    
C15   H133  S    
C13   C105  S    
C70   C106  S    
C111  O10   S    
N4    Zn3   S    
C98   C107  S    
C82   C139  S    
C25   H155  S    
C61   C116  S    
C29   O41   S    
C50   C51   S    
C6    H112  S    
C8    H119  S    
C124  O10   S    
C70   C83   S    
C24   C88   T    
C121  C122  S    
C92   C101  S    
C29   H12   S    
C97   C106  S    
C69   C99   S    
C101  O49   A    
C94   C103  S    
C71   C105  S    
C125  C126  S    
C62   H69   S    
C141  O29   D    
C102  C110  S    
C112  O50   A    
C42   C43   S    
C127  C128  S    
C99   O44   S    
C127  H73   S    
C27   H7    S    
C66   C114  S    
C56   C118  S    
C32   O42   S    
C12   H128  S    
C4    H107  S    
C132  H86   S    
C102  O47   S    
H90   O19   S    
C135  O17   S    
C6    H114  S    
C32   C33   S    
H96   O30   S    
H88   O15   S    
C38   H31   S    
C84   C141  S    
C15   H132  S    
N1    Zn2   S    
C17   H139  S    
C131  H83   S    
C18   H140  S    
O2    Zn1   S    
C83   C97   S    
C142  C143  S    
C41   H39   S    
C77   C104  S    
C53   C110  S    
C45   H51   S    
C68   C86   S    
C72   C76   S    
O45   Zn3   S    
C18   H141  S    
C22   O39   S    
C76   C99   S    
H89   O17   S    
C72   O36   S    
C78   C105  S    
C20   H145  S    
C75   O39   S    
C133  O14   D    
C44   H47   S    
O1    Zn1   S    
O5    Zn4   S    
C45   O47   S    
C138  O22   D    
C90   O45   A    
C84   C96   S    
C63   C114  S    
C14   H131  S    
C130  H81   S    
C83   C109  S    
C136  O18   D    
C115  O11   S    
C75   C80   S    
C34   H26   S    
C90   O5    A    
C42   H42   S    
C59   C117  S    
C121  H13   S    
C80   C100  S    
C28   H10   S    
C60   C113  S    
O12   Zn2   S    
C70   C100  S    
C67   C104  S    
C75   C109  S    
C10   H123  S    
C53   C93   T    
O8    Zn4   S    
C129  H77   S    
C51   H64   S    
C89   C123  S    
C84   C110  S    
C138  O24   S    
C5    H110  S    
C47   C48   S    
C19   H143  S    
C33   C34   S    
C41   H41   S    
C77   C98   S    
C128  H75   S    
C114  C118  S    
C98   O46   S    
C40   C41   S    
C12   C14   S    
C28   H8    S    
C144  H104  S    
C61   C113  S    
C8    H118  S    
C95   C104  S    
C71   C84   S    
C30   H14   S    
C49   H58   S    
C36   H27   S    
C20   H147  S    
C21   H150  S    
C23   H153  S    
C50   H60   S    
C142  H97   S    
C6    O33   S    
C3    O32   S    
C1    O52   A    
C49   H59   S    
C2    C86   T    
C71   O35   S    
C23   C25   S    
O49   Zn4   S    
C52   C92   T    
C126  H71   S    
C37   H29   S    
C50   H61   S    
C43   H45   S    
C27   C28   S    
C143  H100  S    
H93   O24   S    
C77   C135  S    
C78   C136  S    
C131  C132  S    
C124  C125  S    
C139  O26   S    
