data_mof_unit_28662.cif
_audit_creation_date              2012-10-26T20:35:50-0400
_audit_creation_method            fapswitch 2.2
_symmetry_space_group_name_H-M    P1
_symmetry_Int_Tables_number       1
_space_group_crystal_system       triclinic
_cell_length_a                    8.718265
_cell_length_b                    15.876147
_cell_length_c                    17.011259
_cell_angle_alpha                 95.145792
_cell_angle_beta                  91.952728
_cell_angle_gamma                 84.030565
_cell_volume                      2331.63638296

loop_
_atom_site_label
_atom_site_type_symbol
_atom_type_description
_atom_site_fract_x
_atom_site_fract_y
_atom_site_fract_z
_atom_type_partial_charge
C1    C     C_R   0.497045 0.490844 0.348745 0.576601
C2    C     C_R   0.371507 0.163317 0.436219 -0.195099
C3    C     C_R   0.624346 0.750047 0.556235 -0.027425
C4    C     C_R   0.384943 0.250714 0.437419 -0.027525
C5    C     C_R   0.205495 0.521982 0.500961 0.548792
C6    C     C_R   0.794526 0.478031 0.499322 0.536334
C7    C     C_2   0.040185 0.533888 0.501753 -0.161361
C8    C     C_2   0.959881 0.466142 0.498871 -0.176084
C9    C     C_R   0.490326 0.490301 0.262353 -0.009396
C10   C     C_R   0.516053 0.509812 0.736826 -0.001206
C11   C     C_R   0.595386 0.536021 0.226477 0.083956
C12   C     C_R   0.503544 0.509102 0.650990 0.595067
C13   C     C_R   0.394154 0.482779 0.776922 0.085272
C14   C     C_R   0.575250 0.550033 0.146117 0.133214
C15   C     C_R   0.409507 0.474314 0.858460 0.132958
C16   C     C_R   0.456584 0.513624 0.101120 0.224858
C17   C     C_R   0.543804 0.498610 0.900144 0.219580
C18   C     C_R   0.352029 0.467949 0.136375 0.130275
C19   C     C_R   0.667110 0.523210 0.859518 0.128454
C20   C     C_R   0.367295 0.456381 0.217819 -0.068658
C21   C     C_R   0.654901 0.528165 0.776960 -0.067416
C22   C     C_3   0.240977 0.377591 0.707190 -0.277862
C23   C     C_R   0.415319 0.757275 0.463515 0.295751
C24   C     C_3   0.847727 0.509857 0.288092 -0.299175
C25   C     C_3   0.336720 0.348801 0.912106 -0.275762
C26   C     C_3   0.607319 0.690361 0.110871 -0.319677
C27   C     C_3   0.100922 0.489237 0.071864 -0.285522
C28   C     C_3   0.812373 0.631710 0.925438 -0.288602
C29   C     C_3   0.250254 0.412195 0.258480 -0.393429
C30   C     C_3   0.787778 0.551134 0.730518 -0.385638
C31   C     C_3   0.829416 0.267315 0.580139 -0.287158
C32   C     C_3   0.340907 0.714912 0.327800 -0.278573
C33   C     C_3   0.489453 0.109690 0.677048 -0.306573
C34   C     C_R   0.564378 0.243111 0.545265 0.266045
C35   C     C_3   0.151545 0.919978 0.460857 -0.298764
C36   C     C_R   0.410132 0.847186 0.467070 0.137088
C37   C     C_R   0.542999 0.156134 0.550587 0.148336
C38   C     C_R   0.522900 0.889055 0.514067 0.181333
C39   C     C_R   0.452143 0.114321 0.491846 0.198973
C40   C     C_R   0.629402 0.838387 0.558191 -0.183756
Cu1   Cu    Cu3+1 0.492520 0.415770 0.496210 0.945259
Cu2   Cu    Cu3+1 0.507480 0.584230 0.503790 0.967349
H1    H     H_    0.984456 0.598571 0.504581 0.124017
H2    H     H_    0.187940 0.374552 0.646895 0.160687
H3    H     H_    0.748302 0.627754 0.257687 0.244878
H4    H     H_    0.898969 0.482253 0.231620 0.123728
H5    H     H_    0.811924 0.457821 0.320549 0.160217
H6    H     H_    0.936150 0.541957 0.324656 0.137146
H7    H     H_    0.183774 0.448258 0.876795 0.239101
H8    H     H_    0.356200 0.309271 0.855412 0.111334
H9    H     H_    0.241940 0.324858 0.942915 0.138700
H10   H     H_    0.442845 0.342190 0.949942 0.176849
H11   H     H_    0.785457 0.595243 0.127490 0.244374
H12   H     H_    0.015653 0.401474 0.495928 0.113503
H13   H     H_    0.587832 0.718376 0.172394 0.120159
H14   H     H_    0.496387 0.695297 0.076657 0.162264
H15   H     H_    0.689056 0.727534 0.083526 0.121377
H16   H     H_    0.211776 0.371730 0.099592 0.238605
H17   H     H_    0.017336 0.455327 0.033493 0.157583
H18   H     H_    0.133397 0.543148 0.040858 0.174266
H19   H     H_    0.044951 0.514488 0.127848 0.118504
H20   H     H_    0.904008 0.509938 0.882835 0.231668
H21   H     H_    0.905972 0.639421 0.970588 0.132686
H22   H     H_    0.702004 0.661794 0.950478 0.176510
H23   H     H_    0.716738 0.867700 0.594772 0.117546
H24   H     H_    0.837707 0.664676 0.873245 0.124099
H25   H     H_    0.146200 0.400958 0.221751 0.118061
H26   H     H_    0.304763 0.349821 0.274957 0.137028
H27   H     H_    0.208591 0.451644 0.312237 0.130538
H28   H     H_    0.892643 0.561772 0.766679 0.116372
H29   H     H_    0.820498 0.499073 0.684243 0.130941
H30   H     H_    0.752698 0.610600 0.702098 0.141812
H31   H     H_    0.646945 0.279363 0.657517 0.222901
H32   H     H_    0.879516 0.205657 0.600268 0.095721
H33   H     H_    0.893630 0.318135 0.610644 0.132497
H34   H     H_    0.296424 0.133831 0.392327 0.106410
H35   H     H_    0.846319 0.265948 0.515560 0.164449
H36   H     H_    0.197885 0.729432 0.424255 0.235416
H37   H     H_    0.293040 0.776125 0.305687 0.134282
H38   H     H_    0.283407 0.663158 0.294341 0.132151
H39   H     H_    0.466470 0.704444 0.316357 0.166535
H40   H     H_    0.705667 0.129508 0.640691 0.239275
H41   H     H_    0.452607 0.174785 0.703843 0.104664
H42   H     H_    0.541492 0.070761 0.724055 0.135770
H43   H     H_    0.386985 0.079955 0.651480 0.172234
H44   H     H_    0.331267 0.933288 0.384389 0.267740
H45   H     H_    0.706497 0.712773 0.591518 0.121795
H46   H     H_    0.066133 0.948531 0.418440 0.138851
H47   H     H_    0.170691 0.968296 0.510567 0.167791
H48   H     H_    0.102912 0.865569 0.484194 0.135826
H49   H     H_    0.317314 0.287873 0.396023 0.124544
H50   H     H_    0.155847 0.498240 0.756761 0.231674
H51   H     H_    0.165232 0.349640 0.746850 0.109015
H52   H     H_    0.355074 0.339082 0.704909 0.156230
N1    N     N_2   0.440623 0.521061 0.018984 -0.188325
N2    N     N_2   0.670782 0.602383 0.110187 -0.482231
N3    N     N_2   0.235658 0.431429 0.087635 -0.494264
N4    N     N_2   0.802786 0.542229 0.903650 -0.494258
N5    N     N_2   0.667393 0.284219 0.598826 -0.455074
N6    N     N_2   0.312552 0.714240 0.411223 -0.437034
N7    N     N_2   0.601823 0.113051 0.617042 -0.496051
N8    N     N_2   0.294299 0.891678 0.421052 -0.530943
N9    N     N_2   0.561162 0.495445 0.983115 -0.181288
N10   N     N_R   0.518730 0.710760 0.509500 -0.224069
N11   N     N_R   0.481270 0.289240 0.490500 -0.221085
N12   N     N_2   0.539709 0.978875 0.518296 -0.192652
N13   N     N_2   0.432799 0.025193 0.488007 -0.245908
N14   N     N_2   0.255412 0.465578 0.734385 -0.513805
N15   N     N_2   0.717199 0.570652 0.272928 -0.503373
N16   N     N_2   0.295299 0.436948 0.898025 -0.468639
O1    O     O_R   0.493000 0.421040 0.382520 -0.515772
O2    O     O_R   0.507000 0.578960 0.617480 -0.508978
O3    O     O_R   0.505640 0.563310 0.388930 -0.446727
O4    O     O_R   0.494360 0.436690 0.611070 -0.464003
O5    O     O_R   0.269980 0.445280 0.497530 -0.510836
O6    O     O_R   0.730020 0.554720 0.502470 -0.501675
O7    O     O_R   0.282610 0.587550 0.503940 -0.481167
O8    O     O_R   0.717390 0.412450 0.496060 -0.482999

loop_
_geom_bond_atom_site_label_1
_geom_bond_atom_site_label_2
_ccdc_geom_bond_type
C3    N10   A    
C37   N7    S    
C11   N15   S    
C34   C37   A    
Cu1   Cu2   S    
C2    C4    A    
Cu1   O4    S    
C35   N8    S    
C26   H13   S    
C30   H29   S    
C7    C8    D    
C39   N13   S    
C32   H39   S    
Cu1   N11   S    
C33   N7    S    
C19   C21   A    
C27   H18   S    
C11   C14   A    
H3    N15   S    
N12   N13   D    
C36   N8    S    
Cu2   O2    S    
C25   H8    S    
C33   H43   S    
Cu2   O3    S    
H20   N4    S    
C2    C39   A    
H50   N14   S    
C22   H2    S    
C18   N3    S    
C7    H1    S    
Cu1   O8    S    
C27   H19   S    
C29   H27   S    
C4    H49   S    
C23   N6    S    
C29   H25   S    
C5    O5    A    
H11   N2    S    
C22   H52   S    
C15   N16   S    
H16   N3    S    
C1    O3    A    
Cu1   O5    S    
C13   N14   S    
C14   N2    S    
C30   H28   S    
C19   N4    S    
N1    N9    D    
C31   H35   S    
C12   O4    A    
C20   C29   S    
C10   C21   A    
C26   N2    S    
C3    H45   S    
C24   H6    S    
C1    C9    S    
C8    H12   S    
C5    C7    S    
C31   H32   S    
C6    C8    S    
C32   N6    S    
C5    O7    A    
C26   H15   S    
C38   N12   S    
C28   H24   S    
C25   H9    S    
C32   H38   S    
C29   H26   S    
C9    C11   A    
C35   H46   S    
C9    C20   A    
C31   H33   S    
C23   N10   A    
C34   N5    S    
C33   H41   S    
C6    O6    A    
C10   C12   S    
C25   N16   S    
C28   H22   S    
Cu2   O6    S    
C3    C40   A    
C31   N5    S    
C40   H23   S    
C13   C15   A    
H36   N6    S    
C22   H51   S    
C14   C16   A    
H44   N8    S    
C35   H47   S    
C12   O2    A    
C2    H34   S    
C4    N11   A    
C28   N4    S    
H31   N5    S    
C27   N3    S    
C16   N1    S    
C34   N11   A    
C24   N15   S    
C10   C13   A    
Cu2   N10   S    
C30   H30   S    
Cu2   O7    S    
C15   C17   A    
C21   C30   S    
C24   H4    S    
C24   H5    S    
C36   C38   A    
C17   N9    S    
C25   H10   S    
C37   C39   A    
C27   H17   S    
C1    O1    A    
C32   H37   S    
C38   C40   A    
C22   N14   S    
C17   C19   A    
H40   N7    S    
C18   C20   A    
C33   H42   S    
C26   H14   S    
C35   H48   S    
C16   C18   A    
C23   C36   A    
Cu1   O1    S    
C28   H21   S    
C6    O8    A    
H7    N16   S    
