data_mof_unit_37630.cif
_audit_creation_date              2012-12-10T17:56:46-0500
_audit_creation_method            fapswitch 2.2
_symmetry_space_group_name_H-M    P1
_symmetry_Int_Tables_number       1
_space_group_crystal_system       triclinic
_cell_length_a                    10.803806
_cell_length_b                    9.679103
_cell_length_c                    10.849217
_cell_angle_alpha                 91.414757
_cell_angle_beta                  94.263671
_cell_angle_gamma                 90.589861
_cell_volume                      1130.94669531

loop_
_atom_site_label
_atom_site_type_symbol
_atom_type_description
_atom_site_fract_x
_atom_site_fract_y
_atom_site_fract_z
_atom_type_partial_charge
C1    C     C_R   0.262514 0.499281 0.498154 0.781038
C2    C     C_R   0.737385 0.500135 0.499223 0.748581
C3    C     C_R   0.931819 0.600520 0.433602 -0.205464
C4    C     C_R   0.059988 0.599825 0.433177 -0.180805
C5    C     C_R   0.418024 0.069808 0.419951 0.137071
C6    C     C_R   0.573162 0.074562 0.585817 0.205036
C7    C     C_R   0.418398 0.920537 0.421446 0.317486
C8    C     C_R   0.588124 0.929692 0.569002 0.250654
C9    C     C_R   0.505410 0.498162 0.263718 0.775697
C10   C     C_R   0.501371 0.502917 0.738208 0.780154
C11   C     C_R   0.671746 0.685166 0.147896 -0.160584
C12   C     C_R   0.608408 0.743201 0.902803 -0.203972
C13   C     C_R   0.724414 0.799459 0.096110 -0.150649
C14   C     C_R   0.689051 0.831393 0.974843 -0.153773
C15   C     C_R   0.565886 0.617190 0.948639 0.098197
C16   C     C_R   0.585955 0.598267 0.076978 0.095861
C17   C     C_R   0.518099 0.494433 0.131622 -0.111102
C18   C     C_R   0.503160 0.510086 0.873989 -0.105718
C19   C     C_R   0.451443 0.394358 0.058602 -0.215824
C20   C     C_R   0.447570 0.399707 0.931156 -0.206916
C21   C     C_R   0.067613 0.393280 0.555531 -0.193520
C22   C     C_R   0.939370 0.393204 0.554912 -0.182724
C23   C     C_R   0.871301 0.498896 0.496741 0.001325
C24   C     C_R   0.128336 0.497651 0.495801 -0.012790
Cu1   Cu    Cu3+1 0.500000 0.640660 0.500000 0.942806
Cu2   Cu    Cu3+1 0.500000 0.359340 0.500000 0.928049
H1    H     H_    0.400236 0.313132 0.100228 0.143328
H2    H     H_    0.396293 0.319705 0.876951 0.145043
H3    H     H_    0.699279 0.664977 0.243398 0.146157
H4    H     H_    0.572830 0.781930 0.816429 0.165514
H5    H     H_    0.788709 0.866252 0.151585 0.132476
H6    H     H_    0.723630 0.925368 0.937043 0.145906
H7    H     H_    0.119282 0.313076 0.603765 0.143721
H8    H     H_    0.894024 0.311662 0.601158 0.139447
H9    H     H_    0.880219 0.679344 0.383635 0.131052
H10   H     H_    0.105007 0.677245 0.382012 0.132524
N1    N     N_R   0.500000 0.852070 0.500000 -0.231195
N2    N     N_R   0.500000 0.147940 0.500000 -0.223558
O1    O     O_R   0.319640 0.618740 0.499990 -0.560605
O2    O     O_R   0.680360 0.618740 0.500010 -0.591499
O3    O     O_R   0.319620 0.381170 0.499990 -0.587187
O4    O     O_R   0.680380 0.381170 0.500010 -0.573023
O5    O     O_R   0.500000 0.618810 0.319650 -0.549416
O6    O     O_R   0.500000 0.618810 0.680350 -0.608365
O7    O     O_R   0.499970 0.381240 0.319640 -0.603203
O8    O     O_R   0.500030 0.381240 0.680360 -0.577477
C25   C     C_3   0.319978 0.138316 0.334215 -0.315483
C26   C     C_3   0.187566 0.120092 0.373959 -0.862661
H11   H     H_    0.187564 0.106188 0.475293 0.251362
H12   H     H_    0.132080 0.212823 0.349572 0.249140
H13   H     H_    0.139474 0.031430 0.323969 0.230764
H14   H     H_    0.334884 0.248215 0.327223 0.255106
H15   H     H_    0.325874 0.101592 0.237666 0.164502
C27   C     C_3   0.596465 0.123214 0.720696 -0.282038
C28   C     C_3   0.713914 0.209824 0.753524 -0.780949
H16   H     H_    0.797508 0.153995 0.728766 0.226462
H17   H     H_    0.711687 0.310643 0.709138 0.267217
H18   H     H_    0.723012 0.230461 0.854974 0.219103
H19   H     H_    0.512094 0.168921 0.754532 0.193797
H20   H     H_    0.604676 0.032858 0.781423 0.159333
N3    N     N_2   0.331582 0.840277 0.344143 -0.369914
H21   H     H_    0.241993 0.843257 0.369209 0.234570
C29   C     C_3   0.345502 0.833751 0.212163 -0.645161
H22   H     H_    0.334623 0.725101 0.178062 0.235240
H23   H     H_    0.437894 0.873682 0.189824 0.230031
H24   H     H_    0.270804 0.892574 0.161998 0.189211
N4    N     N_2   0.691020 0.866290 0.634141 -0.431103
H25   H     H_    0.683501 0.766984 0.662595 0.296128
C30   C     C_3   0.814327 0.909457 0.606017 -0.698445
H26   H     H_    0.858918 0.825481 0.555626 0.238659
H27   H     H_    0.871691 0.931084 0.693595 0.220995
H28   H     H_    0.812820 0.002890 0.548330 0.226381

loop_
_geom_bond_atom_site_label_1
_geom_bond_atom_site_label_2
_ccdc_geom_bond_type
C10   O8    A    
C15   C18   A    
C28   H16   S    
C4    H10   S    
C9    O7    A    
C25   H14   S    
C30   H28   S    
C19   H1    S    
C11   C16   A    
C3    C23   A    
C19   C20   A    
C12   C15   A    
C3    H9    S    
C25   H15   S    
Cu1   N1    S    
C29   H23   S    
Cu1   O5    S    
C6    N2    A    
C7    N1    A    
C29   H24   S    
C8    N4    S    
C27   H20   S    
C13   C14   A    
Cu1   O1    S    
C1    O3    A    
C11   C13   A    
C11   H3    S    
C22   C23   A    
C30   H26   S    
C26   H13   S    
C2    O4    A    
C4    C24   A    
C15   C16   A    
Cu1   O6    S    
C26   H12   S    
C26   H11   S    
C17   C19   A    
C10   C18   S    
C21   C22   A    
C6    C27   S    
C18   C20   A    
C27   H19   S    
C28   H17   S    
Cu1   O2    S    
N3    H21   S    
C22   H8    S    
C21   C24   A    
C9    O5    A    
C21   H7    S    
C8    N1    A    
Cu2   O8    S    
C10   O6    A    
N4    H25   S    
C5    C25   S    
C25   C26   S    
C2    O2    A    
C14   H6    S    
Cu2   O4    S    
C1    C24   S    
C30   H27   S    
C28   H18   S    
C9    C17   S    
C2    C23   S    
C5    C7    A    
C1    O1    A    
C27   C28   S    
C7    N3    S    
C6    C8    A    
C20   H2    S    
Cu2   O7    S    
C12   H4    S    
Cu1   Cu2   S    
C5    N2    A    
C13   H5    S    
N3    C29   S    
Cu2   N2    S    
C3    C4    A    
C29   H22   S    
Cu2   O3    S    
C12   C14   A    
C16   C17   A    
N4    C30   S    
