data_mof_unit_15120.cif
_audit_creation_date              2012-12-11T14:57:53-0500
_audit_creation_method            fapswitch 2.2
_symmetry_space_group_name_H-M    P1
_symmetry_Int_Tables_number       1
_space_group_crystal_system       triclinic
_cell_length_a                    6.938583
_cell_length_b                    16.768168
_cell_length_c                    17.043562
_cell_angle_alpha                 100.486802
_cell_angle_beta                  90.297391
_cell_angle_gamma                 90.545774
_cell_volume                      1949.71417344

loop_
_atom_site_label
_atom_site_type_symbol
_atom_type_description
_atom_site_fract_x
_atom_site_fract_y
_atom_site_fract_z
_atom_type_partial_charge
O1    O     O_R   0.506180 0.438940 0.579430 -0.539381
O2    O     O_R   0.170520 0.406230 0.413590 -0.536947
O3    O     O_R   0.005180 0.561060 0.420570 -0.540594
C1    C     C_R   0.339174 0.383089 0.385283 0.694738
O4    O     O_R   0.176140 0.429310 0.578370 -0.544621
O5    O     O_R   0.010830 0.584300 0.586530 -0.535438
C2    C     C_R   0.343245 0.413517 0.605176 0.695201
O6    O     O_R   0.500520 0.415700 0.413470 -0.535704
O7    O     O_3   0.340830 0.550820 0.502480 -0.366930
V1    V     V_3+5 0.064040 0.490570 0.499540 1.413550
O8    O     O_R   0.681400 0.593770 0.586410 -0.537685
C3    C     C_R   0.851209 0.616561 0.614751 0.699237
O9    O     O_R   0.675790 0.570690 0.421630 -0.544090
C4    C     C_R   0.842850 0.586310 0.394686 0.693241
V2    V     V_3+5 0.564650 0.509430 0.500460 1.415021
O10   O     O_3   0.837730 0.449180 0.497520 -0.367583
C5    C     C_R   0.927616 0.860924 0.166830 -0.073014
C6    C     C_R   0.838870 0.638971 0.332991 -0.072980
C7    C     C_R   0.648641 0.695787 0.235268 -0.202249
C8    C     C_R   0.669279 0.640797 0.287194 -0.161264
C9    C     C_R   0.990377 0.692733 0.324062 -0.247610
C10   C     C_R   0.969608 0.748997 0.272150 0.159044
C11   C     C_R   0.796913 0.750887 0.227659 0.159045
C12   C     C_R   0.776125 0.807158 0.175760 -0.247605
C13   C     C_R   0.097236 0.859086 0.212604 -0.161237
C14   C     C_R   0.117887 0.804093 0.264530 -0.202249
H1    H     H_    0.645542 0.807172 0.140555 0.124186
H2    H     H_    0.216658 0.899875 0.207456 0.128720
H3    H     H_    0.515546 0.695703 0.201681 0.122110
H4    H     H_    0.250990 0.804175 0.298112 0.122106
H5    H     H_    0.549850 0.600008 0.292333 0.128665
H6    H     H_    0.120944 0.692724 0.359276 0.124152
H7    H     H_    0.108600 0.629038 0.965534 0.114584
C15   C     C_R   0.786504 0.908887 0.729826 -0.138243
C16   C     C_R   0.722309 0.923195 0.656104 -0.125681
C17   C     C_R   0.705264 0.859463 0.591694 -0.117767
C18   C     C_R   0.752059 0.780952 0.600560 -0.135496
C19   C     C_R   0.815534 0.764372 0.674985 0.067240
C20   C     C_R   0.833312 0.829700 0.740993 0.071109
C21   C     C_R   0.864954 0.684653 0.683913 -0.185687
C22   C     C_R   0.932193 0.670311 0.758873 0.071124
C23   C     C_R   0.949988 0.735639 0.824877 0.067242
C24   C     C_R   0.900623 0.815362 0.815944 -0.185626
C25   C     C_R   0.978905 0.591118 0.770052 -0.138115
C26   C     C_R   0.043027 0.576805 0.843783 -0.125709
C27   C     C_R   0.060110 0.640540 0.908188 -0.117776
C28   C     C_R   0.013416 0.719057 0.899308 -0.135470
H8    H     H_    0.800645 0.960714 0.777592 0.099565
H9    H     H_    0.686996 0.984190 0.648804 0.117308
H10   H     H_    0.656725 0.870963 0.534354 0.114557
H11   H     H_    0.739086 0.733776 0.548254 0.104647
H12   H     H_    0.964723 0.539290 0.722291 0.099627
H13   H     H_    0.078258 0.515806 0.851093 0.117334
H14   H     H_    0.026413 0.766238 0.951611 0.104611
H15   H     H_    0.071260 0.458634 0.141927 0.116935
C29   C     C_R   0.505887 0.229704 0.403956 -0.125786
C30   C     C_R   0.595859 0.158466 0.414554 -0.121228
C31   C     C_R   0.626376 0.096774 0.349589 -0.122683
C32   C     C_R   0.566893 0.105756 0.273509 -0.148374
C33   C     C_R   0.476684 0.177682 0.260616 0.067160
C34   C     C_R   0.445657 0.241145 0.327303 0.072476
C35   C     C_R   0.413995 0.186297 0.183260 -0.187500
C36   C     C_R   0.320952 0.258833 0.172862 0.072520
C37   C     C_R   0.289927 0.322296 0.239547 0.067149
C38   C     C_R   0.352581 0.313675 0.316907 -0.187663
C39   C     C_R   0.260742 0.270276 0.096207 -0.125699
C40   C     C_R   0.170798 0.341518 0.085603 -0.121230
C41   C     C_R   0.140294 0.403213 0.150565 -0.122755
C42   C     C_R   0.199756 0.394229 0.226646 -0.148437
H16   H     H_    0.482208 0.275118 0.456723 0.100000
H17   H     H_    0.640935 0.150901 0.473649 0.112234
H18   H     H_    0.695441 0.041359 0.358224 0.116927
H19   H     H_    0.592029 0.055508 0.225235 0.110780
H20   H     H_    0.284419 0.224861 0.043440 0.099997
H21   H     H_    0.125740 0.349085 0.026506 0.112254
H22   H     H_    0.174641 0.444486 0.274914 0.110761
C43   C     C_R   0.427314 0.139746 0.833709 -0.063721
C44   C     C_R   0.338413 0.360389 0.666488 -0.063572
C45   C     C_R   0.147936 0.301837 0.763051 -0.209376
C46   C     C_R   0.168362 0.356708 0.710972 -0.164930
C47   C     C_R   0.490028 0.308127 0.676486 -0.248382
C48   C     C_R   0.469238 0.251806 0.728385 0.164349
C49   C     C_R   0.296468 0.248342 0.771828 0.164362
C50   C     C_R   0.275695 0.192019 0.823733 -0.248459
C51   C     C_R   0.597330 0.143420 0.789199 -0.164844
C52   C     C_R   0.617757 0.198304 0.737140 -0.209402
H23   H     H_    0.144913 0.190758 0.858046 0.120379
H24   H     H_    0.717456 0.104298 0.795447 0.122586
H25   H     H_    0.014734 0.300702 0.795783 0.121548
H26   H     H_    0.750943 0.199434 0.704397 0.121527
H27   H     H_    0.048225 0.395811 0.704686 0.122570
H28   H     H_    0.620821 0.309384 0.642178 0.120416
O11   O     O_R   0.265840 0.084300 0.086750 -0.535853
O12   O     O_R   0.589750 0.070740 0.921690 -0.544697
O13   O     O_R   0.755020 0.915730 0.913400 -0.535479
C53   C     C_R   0.422576 0.086577 0.894989 0.694824
O14   O     O_R   0.595830 0.093740 0.086480 -0.536891
O15   O     O_R   0.761150 0.938890 0.079360 -0.540566
C54   C     C_R   0.427257 0.116874 0.114888 0.695044
O16   O     O_R   0.259710 0.061140 0.920790 -0.539232
O17   O     O_3   0.425260 0.949200 0.997610 -0.366949
V3    V     V_3+5 0.702060 0.009430 0.000450 1.413507
O18   O     O_R   0.090530 0.929220 0.078150 -0.543904
C55   C     C_R   0.923534 0.913613 0.105162 0.693443
O19   O     O_R   0.084440 0.906220 0.913360 -0.537909
C56   C     C_R   0.914555 0.883459 0.885092 0.699028
V4    V     V_3+5 0.201450 0.990520 0.999290 1.415120
O20   O     O_3   0.928380 0.050800 0.002390 -0.367590

loop_
_geom_bond_atom_site_label_1
_geom_bond_atom_site_label_2
_ccdc_geom_bond_type
O17   V4    S    
C45   C49   A    
O17   V3    S    
C6    C9    A    
C22   C23   A    
C4    C6    S    
O2    C1    A    
C7    C8    A    
C50   H23   S    
C1    O6    A    
H15   C41   S    
C51   C52   A    
C13   H2    S    
O19   V4    S    
C35   C36   A    
C17   C18   A    
C5    C55   S    
O5    C3    A    
C19   C20   A    
C18   H11   S    
C44   C46   A    
V2    O10   S    
C39   H20   S    
C29   C30   A    
C42   H22   S    
C33   C35   A    
C15   C16   A    
C47   H28   S    
O8    V2    S    
C16   C17   A    
C41   C42   A    
C16   H9    S    
V4    O20   S    
C12   H1    S    
V3    O20   S    
O1    V2    S    
O7    V1    S    
C32   H19   S    
O14   V3    S    
O13   V3    S    
C25   H12   S    
C39   C40   A    
C36   C39   A    
C43   C51   A    
C32   C33   A    
O9    C4    A    
H7    C27   S    
O14   C54   A    
C47   C48   A    
C9    H6    S    
C5    C12   A    
C40   C41   A    
C52   H26   S    
O4    C2    A    
C20   C24   A    
C43   C50   A    
C31   C32   A    
O15   V3    S    
C15   C20   A    
C33   C34   A    
C24   C56   S    
C3    C21   S    
C7    C11   A    
C18   C19   A    
O13   C56   A    
C34   C38   A    
C49   C50   A    
C11   C12   A    
C29   C34   A    
C37   C42   A    
C30   H17   S    
O12   C53   A    
O3    C4    A    
C28   H14   S    
C21   C22   A    
C14   H4    S    
O6    V2    S    
C29   H16   S    
C2    C44   S    
C22   C25   A    
C40   H21   S    
C23   C24   A    
O2    V1    S    
C17   H10   S    
C25   C26   A    
C51   H24   S    
O11   C54   A    
C27   C28   A    
O16   V4    S    
O1    C2    A    
C36   C37   A    
O5    V1    S    
O18   V4    S    
O8    C3    A    
O19   C56   A    
C43   C53   S    
C5    C13   A    
C37   C38   A    
C46   H27   S    
O9    V2    S    
C13   C14   A    
O4    V1    S    
O3    V1    S    
C48   C52   A    
O11   V4    S    
C19   C21   A    
C35   C54   S    
C44   C47   A    
C31   H18   S    
C30   C31   A    
C1    C38   S    
O15   C55   A    
C53   O16   A    
C6    C8    A    
C23   C28   A    
O7    V2    S    
C45   H25   S    
C26   H13   S    
C45   C46   A    
C26   C27   A    
C15   H8    S    
O12   V3    S    
C48   C49   A    
C10   C14   A    
O18   C55   A    
C10   C11   A    
V1    O10   S    
C9    C10   A    
C8    H5    S    
C7    H3    S    
