data_mof_unit_19846.cif
_audit_creation_date              2012-10-26T18:33:38-0400
_audit_creation_method            fapswitch 2.2
_symmetry_space_group_name_H-M    P1
_symmetry_Int_Tables_number       1
_space_group_crystal_system       triclinic
_cell_length_a                    15.171135
_cell_length_b                    13.772939
_cell_length_c                    11.034486
_cell_angle_alpha                 90.903833
_cell_angle_beta                  87.525713
_cell_angle_gamma                 89.270767
_cell_volume                      2303.02450264

loop_
_atom_site_label
_atom_site_type_symbol
_atom_type_description
_atom_site_fract_x
_atom_site_fract_y
_atom_site_fract_z
_atom_type_partial_charge
Br1   Br    Br    0.234960 0.709340 0.436861 -0.347088
Br2   Br    Br    0.774818 0.709838 0.546697 -0.315746
Br3   Br    Br    0.757095 0.297505 0.612708 -0.314497
Br4   Br    Br    0.637973 0.723428 0.312539 -0.422327
Br5   Br    Br    0.664069 0.260997 0.351745 -0.292475
Br6   Br    Br    0.294678 0.125902 0.761269 -0.341352
Br7   Br    Br    0.289114 0.885808 0.753515 -0.242593
Br8   Br    Br    0.477660 0.726146 0.865631 -0.313236
Br9   Br    Br    0.313606 0.586675 0.889256 -0.341188
Br10  Br    Br    0.679161 0.451350 0.131365 -0.419864
Br11  Br    Br    0.541640 0.286401 0.129447 -0.415789
C1    C     C_R   0.328553 0.501035 0.500769 0.576887
C2    C     C_R   0.050480 0.352614 0.633504 0.015261
C3    C     C_R   0.094913 0.422853 0.562153 -0.026564
C4    C     C_R   0.495251 0.499105 0.259887 0.643348
C5    C     C_R   0.046711 0.496603 0.505796 0.016417
C6    C     C_R   0.091208 0.571708 0.442433 0.040434
C7    C     C_R   0.042327 0.635308 0.369780 -0.016214
C8    C     C_R   0.949651 0.638657 0.384365 -0.002502
C9    C     C_R   0.187169 0.423106 0.549151 -0.156421
C10   C     C_R   0.231567 0.502864 0.500902 0.029145
C11   C     C_R   0.182844 0.581735 0.455762 0.223408
C12   C     C_3   0.561459 0.414739 0.920828 -0.062224
C13   C     C_R   0.439313 0.794243 0.572540 0.102265
C14   C     C_R   0.438060 0.209103 0.570604 0.068436
C15   C     C_R   0.557277 0.792638 0.423745 0.303924
C16   C     C_R   0.562417 0.202650 0.431951 0.361530
C17   C     C_R   0.556926 0.894996 0.423037 0.023884
C18   C     C_R   0.558459 0.100463 0.425836 0.027541
C19   C     C_R   0.671320 0.499462 0.509236 0.669840
C20   C     C_R   0.496228 0.947986 0.499708 0.001146
C21   C     C_R   0.496303 0.051433 0.499950 -0.000736
C22   C     C_R   0.435880 0.897603 0.575131 -0.024860
C23   C     C_R   0.816536 0.582126 0.494091 0.182513
C24   C     C_R   0.435824 0.105676 0.575013 -0.026838
C25   C     C_R   0.615781 0.945701 0.346589 -0.090573
C26   C     C_R   0.616426 0.045943 0.347796 -0.075310
C27   C     C_R   0.375258 0.055059 0.651524 0.184292
C28   C     C_R   0.374674 0.951786 0.650757 0.205447
C29   C     C_R   0.498351 0.501001 0.739694 0.592750
C30   C     C_3   0.516141 0.602350 0.072689 -0.136477
C31   C     C_3   0.400228 0.465719 0.071530 -0.091497
C32   C     C_3   0.530524 0.604670 0.930852 0.123033
C33   C     C_3   0.397346 0.483034 0.929691 0.057960
C34   C     C_R   0.768483 0.498794 0.524877 0.057424
C35   C     C_3   0.562837 0.419454 0.066122 0.149163
C36   C     C_3   0.492108 0.497414 0.120828 -0.030526
C37   C     C_3   0.497147 0.501686 0.876816 -0.044294
C38   C     C_2   0.101830 0.277505 0.696065 0.316999
C39   C     C_2   0.085138 0.685654 0.264668 0.312023
C40   C     C_2   0.897967 0.701201 0.303992 0.291277
C41   C     C_2   0.457197 0.685253 0.124966 0.379160
C42   C     C_2   0.316806 0.498571 0.141932 0.353284
C43   C     C_2   0.627944 0.623313 0.899634 0.316213
C44   C     C_2   0.350509 0.399949 0.866547 0.198442
C45   C     C_R   0.815644 0.417685 0.570133 0.144831
C46   C     C_2   0.656251 0.417456 0.867070 0.316453
C47   C     C_2   0.528791 0.314526 0.875878 0.292397
C48   C     C_2   0.914785 0.319173 0.764485 0.316881
C49   C     C_R   0.908688 0.423608 0.580181 -0.029843
C50   C     C_R   0.954081 0.496303 0.514181 -0.014495
C51   C     C_R   0.906497 0.572741 0.463152 0.032670
C52   C     C_R   0.957618 0.359121 0.651901 0.046679
Cu1   Cu    Cu3+1 0.499990 0.597420 0.500010 1.164289
Cu2   Cu    Cu3+1 0.499990 0.402580 0.500010 1.120667
H1    H     H_    0.579852 0.619108 0.112716 0.127437
H2    H     H_    0.916299 0.776081 0.289337 0.119735
H3    H     H_    0.486208 0.743492 0.176152 0.137081
H4    H     H_    0.253311 0.477600 0.108962 0.191755
H5    H     H_    0.678401 0.608530 0.963673 0.147013
H6    H     H_    0.349927 0.396252 0.768457 0.131170
H7    H     H_    0.706863 0.372636 0.905712 0.189416
H8    H     H_    0.468346 0.284272 0.912764 0.177897
H9    H     H_    0.860985 0.359709 0.810313 0.133091
H10   H     H_    0.397197 0.386621 0.085712 0.157312
H11   H     H_    0.225826 0.364200 0.584371 0.125712
H12   H     H_    0.393634 0.752884 0.628064 0.207062
H13   H     H_    0.391396 0.252948 0.624808 0.149116
H14   H     H_    0.662965 0.909531 0.284689 0.185437
H15   H     H_    0.663035 0.079054 0.284945 0.194174
H16   H     H_    0.155325 0.298506 0.752740 0.147666
H17   H     H_    0.063643 0.757778 0.240068 0.126158
N1    N     N_R   0.499930 0.743810 0.499950 -0.240724
N2    N     N_R   0.499930 0.256190 0.499950 -0.237535
O1    O     O_R   0.370250 0.582280 0.500040 -0.464917
O2    O     O_2   0.143221 0.645092 0.201909 -0.392180
O3    O     O_2   0.836199 0.667998 0.250286 -0.405240
O4    O     O_2   0.378772 0.691480 0.106593 -0.333269
O5    O     O_2   0.318394 0.544888 0.236656 -0.441964
O6    O     O_2   0.652340 0.653287 0.800179 -0.371242
O7    O     O_2   0.307299 0.340220 0.923350 -0.490625
O8    O     O_2   0.675676 0.459712 0.773901 -0.494049
O9    O     O_2   0.570998 0.263725 0.801394 -0.415506
O10   O     O_2   0.937162 0.241691 0.806434 -0.380651
O11   O     O_R   0.370250 0.417720 0.500040 -0.554682
O12   O     O_R   0.499970 0.582270 0.317700 -0.486641
O13   O     O_R   0.499970 0.417730 0.317700 -0.440695
O14   O     O_R   0.629730 0.582260 0.499980 -0.427945
O15   O     O_R   0.629730 0.417740 0.499980 -0.422138
O16   O     O_R   0.500000 0.582270 0.682320 -0.441278
O17   O     O_R   0.500000 0.417730 0.682320 -0.515489
O18   O     O_2   0.086371 0.191489 0.680997 -0.353249

loop_
_geom_bond_atom_site_label_1
_geom_bond_atom_site_label_2
_ccdc_geom_bond_type
C12   C47   S    
C15   N1    A    
C46   O8    D    
C16   C18   A    
C19   C34   S    
Br8   C32   S    
C4    C36   S    
C42   H4    S    
C39   H17   S    
C31   H10   S    
C22   C28   A    
C1    O1    A    
C49   C52   A    
C25   C26   A    
C47   O9    D    
C43   O6    D    
C18   C21   A    
C31   C42   S    
C27   C28   A    
C8    C51   A    
C23   C51   A    
C9    H11   S    
C12   C46   S    
C7    C8    A    
C38   H16   S    
C44   O7    D    
C29   O17   A    
Br5   C16   S    
C34   C45   A    
C5    C6    A    
C2    C52   A    
Br10  C35   S    
C14   N2    A    
Br6   C27   S    
C1    O11   A    
C48   O10   D    
Cu2   O17   S    
C32   C37   S    
C30   C41   S    
C41   H3    S    
Br2   C23   S    
Cu1   O14   S    
Br1   C11   S    
C12   C35   S    
C2    C3    A    
C30   C32   S    
C31   C33   S    
C4    O13   A    
C26   H15   S    
C14   H13   S    
C21   C24   A    
C3    C9    A    
C41   O4    D    
C24   C27   A    
Cu1   O12   S    
C40   O3    D    
C38   O18   D    
Cu2   N2    S    
C1    C10   S    
C45   C49   A    
C49   C50   A    
Cu1   N1    S    
Br3   C45   S    
C32   C43   S    
C20   C21   A    
C43   H5    S    
Cu1   O16   S    
C20   C22   A    
C6    C7    A    
C30   C36   S    
C23   C34   A    
C40   H2    S    
C48   H9    S    
Cu2   O15   S    
C14   C24   A    
C2    C38   S    
C42   O5    D    
C3    C5    A    
C5    C50   A    
Cu1   O1    S    
C4    O12   A    
C7    C39   S    
C29   C37   S    
C35   C36   S    
C16   N2    A    
Br9   C33   S    
C12   C37   S    
C15   C17   A    
C13   N1    A    
C17   C20   A    
C6    C11   A    
C25   H14   S    
C29   O16   A    
Br4   C15   S    
C30   H1    S    
C19   O14   A    
C48   C52   S    
C13   C22   A    
Cu1   Cu2   S    
Cu2   O13   S    
C33   C44   S    
C19   O15   A    
C31   C36   S    
C46   H7    S    
C50   C51   A    
C39   O2    D    
C8    C40   S    
C13   H12   S    
Cu2   O11   S    
C9    C10   A    
C17   C25   A    
C18   C26   A    
Br7   C28   S    
Br11  C35   S    
C10   C11   A    
C44   H6    S    
C33   C37   S    
C47   H8    S    
