data_mof_unit_25327.cif
_audit_creation_date              2013-03-05T16:30:29-0500
_audit_creation_method            fapswitch 2.2
_symmetry_space_group_name_H-M    P1
_symmetry_Int_Tables_number       1
_space_group_crystal_system       triclinic
_cell_length_a                    8.603638
_cell_length_b                    14.816505
_cell_length_c                    14.245366
_cell_angle_alpha                 89.124735
_cell_angle_beta                  97.382484
_cell_angle_gamma                 90.878886
_cell_volume                      1800.51285761

loop_
_atom_site_label
_atom_site_type_symbol
_atom_site_description
_atom_site_fract_x
_atom_site_fract_y
_atom_site_fract_z
_atom_type_partial_charge
O1    O     O_R   0.500010 0.369070 0.579480 -0.577914
O2    O     O_R   0.499990 0.630930 0.420520 -0.579402
O3    O     O_R   0.500010 0.369060 0.420520 -0.624475
O4    O     O_R   0.499990 0.630940 0.579480 -0.634727
C1    C     C_R   0.502527 0.327528 0.500628 0.893520
C2    C     C_R   0.505399 0.672788 0.499907 0.908863
O5    O     O_R   0.271750 0.500000 0.560890 -0.532815
O6    O     O_R   0.728250 0.500000 0.439110 -0.548546
O7    O     O_R   0.271750 0.499990 0.401930 -0.639241
O8    O     O_R   0.728250 0.500010 0.598070 -0.642734
C3    C     C_R   0.202120 0.496441 0.476379 0.893941
C4    C     C_R   0.797924 0.502587 0.523824 0.882693
Zn1   Zn    Zn3+2 0.500000 0.500010 0.606140 1.039675
Zn2   Zn    Zn3+2 0.500000 0.499990 0.393860 1.036635
C5    C     C_2   0.039029 0.480303 0.467994 0.255195
C6    C     C_2   0.961315 0.516987 0.533386 0.231198
C7    C     C_R   0.478380 0.084478 0.562610 -0.114237
C8    C     C_R   0.539162 0.912481 0.421622 -0.126645
H1    H     H_    0.409757 0.040206 0.603089 0.182161
H2    H     H_    0.508431 0.953143 0.358239 0.174602
C9    C     C_R   0.447421 0.175629 0.558566 -0.092940
C10   C     C_R   0.507938 0.820727 0.418784 -0.103388
H3    H     H_    0.356413 0.201540 0.596157 0.216972
H4    H     H_    0.458056 0.790764 0.352575 0.189512
C11   C     C_R   0.529620 0.232156 0.503032 -0.103908
C12   C     C_R   0.535757 0.769024 0.501833 -0.091784
C13   C     C_R   0.644225 0.198356 0.452062 -0.229383
C14   C     C_R   0.603118 0.808400 0.586640 -0.249018
H5    H     H_    0.709532 0.243985 0.411015 0.210881
H6    H     H_    0.631075 0.767285 0.649887 0.187224
C15   C     C_R   0.678408 0.106688 0.456363 0.337546
C16   C     C_R   0.637814 0.900357 0.590153 0.332337
C17   C     C_R   0.592295 0.049767 0.511549 0.007692
C18   C     C_R   0.600205 0.952591 0.507095 0.029269
C19   C     C_R   0.371060 0.468653 0.095526 -0.264545
C20   C     C_R   0.545042 0.576360 0.897335 -0.264708
H7    H     H_    0.267052 0.444384 0.051750 0.217455
H8    H     H_    0.579655 0.637814 0.935087 0.222993
C21   C     C_R   0.373884 0.467183 0.194648 -0.045860
C22   C     C_R   0.547697 0.574790 0.798655 -0.055571
H9    H     H_    0.273443 0.440803 0.225165 0.184240
H10   H     H_    0.586365 0.634316 0.762958 0.173015
N1    N     N_R   0.500000 0.499980 0.252470 -0.180267
N2    N     N_R   0.500000 0.500020 0.747530 -0.174055
C23   C     C_R   0.626246 0.535569 0.213294 0.411309
C24   C     C_R   0.447975 0.425123 0.793294 0.421426
C25   C     C_R   0.633248 0.531927 0.114677 0.319570
C26   C     C_R   0.454613 0.421367 0.893022 0.320672
C27   C     C_R   0.501951 0.499941 0.053453 -0.043602
C28   C     C_R   0.500363 0.499015 0.946894 -0.048538
O9    O     O_3   0.967563 0.419747 0.401856 -0.749682
H11   H     H_    0.047490 0.395065 0.365291 0.350812
O10   O     O_3   0.033586 0.575235 0.601717 -0.748303
H12   H     H_    0.953641 0.600856 0.637636 0.347586
N3    N     N_R   0.799409 0.072983 0.405535 0.211178
O11   O     O_R   0.879112 0.002101 0.436048 -0.338901
O12   O     O_R   0.840789 0.118017 0.333377 -0.355422
N4    N     N_R   0.708142 0.939729 0.677697 0.216466
O13   O     O_R   0.797111 0.011534 0.677257 -0.315270
O14   O     O_R   0.695358 0.899322 0.758174 -0.349555
N5    N     N_R   0.752240 0.579395 0.271531 0.253595
O15   O     O_R   0.896356 0.557965 0.264566 -0.320547
O16   O     O_R   0.726297 0.654660 0.312119 -0.368992
N6    N     N_R   0.383331 0.349254 0.740506 0.236695
O17   O     O_R   0.438744 0.269165 0.761259 -0.325673
O18   O     O_R   0.249732 0.356951 0.687038 -0.373122
O19   O     O_3   0.769595 0.561196 0.081460 -0.699993
H13   H     H_    0.780993 0.529074 0.022384 0.348007
O20   O     O_3   0.414199 0.340834 0.934310 -0.684774
H14   H     H_    0.470137 0.336769 0.999385 0.353600

loop_
_geom_bond_atom_site_label_1
_geom_bond_atom_site_label_2
_geom_bond_distance
_ccdc_geom_bond_type
C19   C27   1.411117 A    
O5    Zn1   1.986614 S    
C19   C21   1.408957 A    
O7    Zn2   1.981835 S    
C15   C17   1.410120 A    
C16   C18   1.408876 A    
C5    O9    1.389525 S    
C11   C13   1.400167 A    
N1    C23   1.377858 A    
C12   C14   1.402498 A    
N5    O15   1.301047 A    
C16   N4    1.441924 S    
C26   O20   1.381667 S    
O6    C4    1.277468 A    
N6    O17   1.301248 A    
C23   N5    1.431348 S    
N3    O11   1.301417 A    
C22   H10   1.080691 S    
C17   C18   1.445203 S    
C14   H6    1.082944 S    
C21   H9    1.081450 S    
N3    O12   1.301680 A    
O2    C2    1.293356 A    
O10   H12   0.991672 S    
O5    C3    1.275403 A    
C26   C28   1.415248 A    
C8    C18   1.399900 A    
C2    C12   1.445696 S    
O3    Zn2   1.971047 S    
O8    C4    1.280800 A    
C1    C11   1.434875 S    
C14   C16   1.390580 A    
C20   H8    1.082799 S    
C19   H7    1.082829 S    
C25   C27   1.415751 A    
C10   H4    1.083405 S    
O7    C3    1.283360 A    
C9    H3    1.081889 S    
C21   N1    1.363200 A    
O20   H14   0.989508 S    
O2    Zn2   1.982584 S    
O1    C1    1.291845 A    
O1    Zn1   1.982584 S    
C5    C6    1.340485 D    
N4    O14   1.301627 A    
O9    H11   0.991727 S    
C24   C26   1.414732 A    
C4    C6    1.408089 S    
C3    C5    1.409914 S    
C22   N2    1.363822 A    
C20   C28   1.411019 A    
C13   H5    1.084151 S    
C8    H2    1.083991 S    
O4    C2    1.289469 A    
C27   C28   1.516539 S    
C10   C12   1.396047 A    
C23   C25   1.415720 A    
C25   O19   1.381618 S    
O4    Zn1   1.971047 S    
N5    O16   1.299307 A    
C9    C11   1.390251 A    
C6    O10   1.390193 S    
C7    H1    1.084177 S    
C20   C22   1.409394 A    
O6    Zn2   1.986613 S    
N2    C24   1.376393 A    
C7    C17   1.401523 A    
C15   N3    1.441583 S    
N4    O13   1.301499 A    
C8    C10   1.381906 A    
C13   C15   1.392852 A    
Zn1   N2    2.014156 S    
C7    C9    1.379468 A    
O19   H13   0.989567 S    
C24   N6    1.427444 S    
Zn2   N1    2.014156 S    
O3    C1    1.286080 A    
O8    Zn1   1.981833 S    
N6    O18   1.300280 A    
