data_mof_unit_48196.cif
_audit_creation_date              2012-10-26T19:48:06-0400
_audit_creation_method            fapswitch 2.2
_symmetry_space_group_name_H-M    P1
_symmetry_Int_Tables_number       1
_space_group_crystal_system       triclinic
_cell_length_a                    10.803316
_cell_length_b                    9.713323
_cell_length_c                    10.715277
_cell_angle_alpha                 91.23549
_cell_angle_beta                  91.436567
_cell_angle_gamma                 89.341219
_cell_volume                      1123.73708245

loop_
_atom_site_label
_atom_site_type_symbol
_atom_type_description
_atom_site_fract_x
_atom_site_fract_y
_atom_site_fract_z
_atom_type_partial_charge
C1    C     C_R   0.260673 0.500422 0.499528 0.547699
C2    C     C_3   0.922728 0.565534 0.388014 -0.263052
C3    C     C_3   0.598184 0.083185 0.590436 0.037115
C4    C     C_3   0.607353 0.918510 0.578400 0.044843
C5    C     C_3   0.380642 0.083487 0.544176 -0.120621
C6    C     C_3   0.387192 0.921318 0.558781 -0.113618
C7    C     C_3   0.521685 0.081882 0.372880 0.087174
C8    C     C_3   0.514713 0.911770 0.371132 0.126589
C9    C     C_R   0.504042 0.498760 0.260007 0.542375
C10   C     C_R   0.739102 0.499129 0.503703 0.528000
C11   C     C_R   0.494403 0.501687 0.739051 0.595084
C12   C     C_3   0.505534 0.497456 0.121838 0.004523
C13   C     C_3   0.384963 0.514644 0.043306 0.006932
C14   C     C_3   0.548298 0.381786 0.031527 -0.005158
C15   C     C_3   0.427415 0.397929 0.953776 0.007181
C16   C     C_3   0.489931 0.505472 0.875250 0.013291
C17   C     C_3   0.446576 0.623205 0.962764 -0.041977
C18   C     C_3   0.610318 0.490691 0.952190 -0.153304
C19   C     C_3   0.567476 0.606550 0.042350 -0.102928
C20   C     C_2   0.340000 0.288209 0.908220 0.354239
C21   C     C_2   0.589189 0.133250 0.725243 0.285830
C22   C     C_2   0.639095 0.848066 0.700389 0.286180
C23   C     C_3   0.075441 0.562210 0.630363 -0.078827
C24   C     C_2   0.423186 0.137613 0.280178 0.270868
C25   C     C_2   0.402070 0.863212 0.289859 0.335734
C26   C     C_3   0.649864 0.133149 0.324166 -0.286252
C27   C     C_3   0.636347 0.850991 0.305848 -0.292991
C28   C     C_2   0.258688 0.537139 0.095002 0.244320
C29   C     C_2   0.626445 0.255603 0.047109 0.223352
C30   C     C_2   0.136506 0.695569 0.671552 0.237988
C31   C     C_2   0.103933 0.277090 0.365341 0.202363
C32   C     C_3   0.872728 0.565581 0.749158 -0.416069
C33   C     C_3   0.905211 0.263167 0.627776 -0.412789
C34   C     C_3   0.073448 0.347767 0.488786 -0.089319
C35   C     C_3   0.932436 0.584810 0.621896 -0.130398
C36   C     C_3   0.931879 0.345581 0.509740 -0.091904
C37   C     C_3   0.064299 0.585697 0.394497 -0.270699
C38   C     C_3   0.122157 0.500162 0.502471 -0.034288
C39   C     C_3   0.877807 0.497041 0.509179 0.045008
Cu1   Cu    Cu3+1 0.499860 0.642410 0.500060 0.929439
Cu2   Cu    Cu3+1 0.499860 0.357590 0.500060 0.903904
H1    H     H_    0.877435 0.667738 0.374471 0.123712
H2    H     H_    0.705152 0.479386 0.916810 0.138663
H3    H     H_    0.630568 0.689352 0.074555 0.145839
H4    H     H_    0.098440 0.485386 0.703267 0.197406
H5    H     H_    0.122207 0.285303 0.561276 0.164626
H6    H     H_    0.912422 0.694599 0.599255 0.123296
H7    H     H_    0.885518 0.288614 0.430538 0.184339
H8    H     H_    0.085101 0.696742 0.409600 0.126984
H9    H     H_    0.103747 0.555725 0.303591 0.134122
H10   H     H_    0.336403 0.191319 0.956018 0.189419
H11   H     H_    0.662115 0.195266 0.767805 0.085440
H12   H     H_    0.897277 0.500188 0.304839 0.154526
H13   H     H_    0.730135 0.802248 0.713465 0.068271
H14   H     H_    0.346991 0.201684 0.310696 0.154276
H15   H     H_    0.309376 0.864152 0.325184 0.090179
H16   H     H_    0.665678 0.091991 0.229347 0.162131
H17   H     H_    0.661733 0.243554 0.316646 0.217511
H18   H     H_    0.731599 0.102277 0.380812 0.080901
H19   H     H_    0.632805 0.870897 0.204451 0.151560
H20   H     H_    0.725245 0.893101 0.339688 0.056630
H21   H     H_    0.661554 0.743453 0.316108 0.183040
H22   H     H_    0.241652 0.626237 0.154904 0.126477
H23   H     H_    0.688840 0.123528 0.566329 0.054466
H24   H     H_    0.590538 0.155331 0.020671 0.193621
H25   H     H_    0.122079 0.787855 0.617661 0.091203
H26   H     H_    0.150428 0.331085 0.293004 0.156848
H27   H     H_    0.899155 0.652394 0.813184 0.158536
H28   H     H_    0.770639 0.566414 0.738672 0.131940
H29   H     H_    0.903174 0.470106 0.795506 0.160199
H30   H     H_    0.814526 0.291133 0.666238 0.141939
H31   H     H_    0.906752 0.151200 0.604381 0.127370
H32   H     H_    0.975791 0.280249 0.703256 0.158153
H33   H     H_    0.694362 0.897742 0.529735 0.041357
H34   H     H_    0.350290 0.134309 0.631794 0.217755
H35   H     H_    0.383307 0.897284 0.659274 0.227207
H36   H     H_    0.302345 0.106872 0.479675 0.098154
H37   H     H_    0.301356 0.874921 0.520274 0.089713
H38   H     H_    0.403040 0.721776 0.933540 0.233851
N1    N     N_3   0.500250 0.143650 0.502780 -0.287655
N2    N     N_3   0.500250 0.856350 0.502780 -0.283548
O1    O     O_R   0.317570 0.620260 0.500070 -0.511811
O2    O     O_2   0.502838 0.102630 0.789623 -0.516079
O3    O     O_2   0.568329 0.847104 0.787280 -0.475208
O4    O     O_2   0.428037 0.111478 0.168633 -0.543530
O5    O     O_2   0.412184 0.831433 0.179652 -0.510342
O6    O     O_2   0.174772 0.457766 0.069044 -0.497314
O7    O     O_2   0.734367 0.265971 0.082407 -0.532002
O8    O     O_2   0.201098 0.701042 0.766601 -0.493284
O9    O     O_2   0.078531 0.156025 0.346997 -0.527627
O10   O     O_R   0.317570 0.379740 0.500070 -0.529714
O11   O     O_R   0.499850 0.620240 0.316900 -0.512388
O12   O     O_R   0.499850 0.379760 0.316900 -0.536954
O13   O     O_R   0.682190 0.620260 0.500030 -0.547867
O14   O     O_R   0.682190 0.379740 0.500030 -0.544817
O15   O     O_R   0.499910 0.620280 0.683200 -0.454126
O16   O     O_R   0.499910 0.379720 0.683200 -0.487552
O17   O     O_2   0.268574 0.309623 0.820600 -0.505681

loop_
_geom_bond_atom_site_label_1
_geom_bond_atom_site_label_2
_ccdc_geom_bond_type
C11   O15   A    
C23   H4    S    
C14   C18   S    
C25   H15   S    
C35   H6    S    
Cu2   N1    S    
C7    C8    S    
C22   H13   S    
C3    H23   S    
C24   H14   S    
C31   H26   S    
C7    C26   S    
C20   H10   S    
C27   H19   S    
C5    C6    S    
C6    H37   S    
C10   O13   A    
C7    C24   S    
C17   H38   S    
C33   C36   S    
C37   H8    S    
C18   C19   S    
C29   O7    D    
C27   H20   S    
C33   H31   S    
C2    C39   S    
Cu2   O12   S    
C4    N2    S    
C21   O2    D    
C16   C17   S    
C13   C28   S    
C34   H5    S    
C24   O4    D    
C4    H33   S    
C32   H27   S    
C1    O10   A    
C6    N2    S    
C8    C25   S    
Cu1   O15   S    
C30   O8    D    
C3    N1    S    
C9    O11   A    
C9    C12   S    
C15   C20   S    
C8    N2    S    
C32   C35   S    
Cu1   O1    S    
C32   H29   S    
C1    O1    A    
C10   C39   S    
C22   O3    D    
C5    H34   S    
C35   C39   S    
C23   C30   S    
C37   C38   S    
C27   H21   S    
C4    C22   S    
C11   C16   S    
C31   O9    D    
C28   O6    D    
C31   C34   S    
Cu1   O11   S    
C5    N1    S    
C26   H17   S    
C30   H25   S    
C1    C38   S    
C29   H24   S    
C33   H32   S    
Cu1   Cu2   S    
Cu2   O10   S    
C12   C14   S    
C23   C35   S    
C13   C15   S    
Cu2   O16   S    
C3    C21   S    
C14   C29   S    
C5    H36   S    
C3    C4    S    
C9    O12   A    
C19   H3    S    
C26   H18   S    
C34   C38   S    
Cu1   N2    S    
C36   C39   S    
Cu1   O13   S    
C2    H12   S    
C6    H35   S    
C32   H28   S    
C23   C38   S    
C13   C17   S    
C11   O16   A    
C18   H2    S    
C37   H9    S    
C2    C37   S    
Cu2   O14   S    
C10   O14   A    
C2    H1    S    
C12   C19   S    
C25   O5    D    
C17   C19   S    
C36   H7    S    
C34   C36   S    
C26   H16   S    
C33   H30   S    
C28   H22   S    
C20   O17   D    
C12   C13   S    
C16   C18   S    
C8    C27   S    
C14   C15   S    
C21   H11   S    
C15   C16   S    
C7    N1    S    
