data_mof_unit_54431.cif
_audit_creation_date              2013-03-05T16:11:14-0500
_audit_creation_method            fapswitch 2.2
_symmetry_space_group_name_H-M    P1
_symmetry_Int_Tables_number       1
_space_group_crystal_system       triclinic
_cell_length_a                    6.948938
_cell_length_b                    20.617079
_cell_length_c                    24.417972
_cell_angle_alpha                 90.061387
_cell_angle_beta                  90.362178
_cell_angle_gamma                 89.457245
_cell_volume                      3498.05616537

loop_
_atom_site_label
_atom_site_type_symbol
_atom_site_description
_atom_site_fract_x
_atom_site_fract_y
_atom_site_fract_z
_atom_type_partial_charge
O1    O     O_R   0.507280 0.423750 0.460310 -0.578959
O2    O     O_R   0.171030 0.555650 0.437630 -0.596267
O3    O     O_R   0.004080 0.576250 0.539690 -0.593403
C1    C     C_R   0.339160 0.575981 0.421999 0.973310
O4    O     O_R   0.177330 0.422980 0.453960 -0.591716
O5    O     O_R   0.010420 0.442640 0.556140 -0.571109
C2    C     C_R   0.346075 0.399204 0.443260 1.045055
O6    O     O_R   0.500930 0.557360 0.443860 -0.597076
O7    O     O_3   0.340310 0.506600 0.533500 -0.269220
V1    V     V_3+5 0.064140 0.498780 0.493780 1.191216
O8    O     O_R   0.680890 0.444350 0.562370 -0.578430
C3    C     C_R   0.850471 0.424273 0.578069 0.999119
O9    O     O_R   0.674590 0.577020 0.546040 -0.595699
C4    C     C_R   0.842566 0.600834 0.556864 0.910422
V2    V     V_3+5 0.564550 0.501220 0.506220 1.195521
O10   O     O_3   0.838250 0.493400 0.466500 -0.281203
C5    C     C_R   0.977469 0.837236 0.912391 -0.287165
C6    C     C_R   0.846265 0.661609 0.588890 -0.098195
C7    C     C_R   0.059272 0.723116 0.904756 -0.279772
C8    C     C_R   0.041899 0.779008 0.937038 0.362020
C9    C     C_R   0.929938 0.838066 0.856220 -0.279751
C10   C     C_R   0.949136 0.781605 0.822851 0.165520
C11   C     C_R   0.014784 0.723953 0.848650 0.122961
C12   C     C_R   0.908129 0.780302 0.764929 0.019629
C13   C     C_R   0.931748 0.721233 0.734409 0.064655
C14   C     C_R   0.997333 0.665509 0.762714 -0.186420
C15   C     C_R   0.037577 0.667048 0.818414 -0.194538
C16   C     C_R   0.846684 0.836301 0.736551 -0.297146
C17   C     C_R   0.806728 0.835768 0.680493 0.317496
C18   C     C_R   0.821386 0.777421 0.650551 -0.019525
C19   C     C_R   0.887501 0.719609 0.676789 0.089021
C20   C     C_R   0.764375 0.775461 0.595023 -0.073264
C21   C     C_R   0.775609 0.718318 0.564911 -0.177042
C22   C     C_R   0.902396 0.662106 0.644286 -0.205951
H1    H     H_    0.088010 0.622865 0.838094 0.134523
H2    H     H_    0.950996 0.616390 0.660836 0.092530
H3    H     H_    0.727167 0.718221 0.522633 0.117167
H4    H     H_    0.108083 0.678289 0.923677 0.171071
H5    H     H_    0.883393 0.884119 0.839840 0.129864
H6    H     H_    0.020171 0.619377 0.743069 0.125505
H7    H     H_    0.831794 0.882496 0.756658 0.176615
H8    H     H_    0.704920 0.817660 0.574561 0.169481
H9    H     H_    0.619329 0.209547 0.795944 0.120510
C23   C     C_R   0.729971 0.271236 0.732595 -0.154717
H10   H     H_    0.588039 0.287719 0.719959 0.124540
C24   C     C_R   0.894172 0.294308 0.705940 0.166911
C25   C     C_R   0.076424 0.272062 0.723142 -0.137971
H11   H     H_    0.204909 0.289196 0.703090 0.134582
C26   C     C_R   0.094275 0.227486 0.766436 -0.165036
H12   H     H_    0.236214 0.211037 0.779093 0.123286
C27   C     C_R   0.930079 0.204471 0.793135 0.178522
C28   C     C_R   0.747820 0.226656 0.775882 -0.159318
C29   C     C_1   0.876098 0.340496 0.661056 0.019655
C30   C     C_1   0.948163 0.158579 0.838246 -0.011573
C31   C     C_1   0.961359 0.120509 0.876126 -0.274865
C32   C     C_1   0.862857 0.378883 0.623413 -0.223563
H13   H     H_    0.699695 0.709215 0.301136 0.119130
C33   C     C_R   0.598123 0.769464 0.234713 -0.171920
H14   H     H_    0.741555 0.785186 0.224227 0.123449
C34   C     C_R   0.438158 0.792246 0.204697 0.166440
C35   C     C_R   0.253869 0.771065 0.219437 -0.145245
H15   H     H_    0.128313 0.788072 0.196970 0.135791
C36   C     C_R   0.229887 0.727802 0.263376 -0.186348
H16   H     H_    0.086447 0.712092 0.273869 0.117009
C37   C     C_R   0.389810 0.705101 0.293451 0.177291
C38   C     C_R   0.574141 0.726202 0.278658 -0.175568
C39   C     C_1   0.461794 0.837757 0.159435 -0.001385
C40   C     C_1   0.365801 0.659924 0.338949 -0.051529
C41   C     C_1   0.349748 0.621739 0.376703 -0.284770
C42   C     C_1   0.476488 0.876463 0.122008 -0.209698
C43   C     C_R   0.464968 0.160009 0.091124 -0.148498
C44   C     C_R   0.348480 0.337258 0.412982 -0.278059
C45   C     C_R   0.461604 0.277135 0.092958 -0.158957
C46   C     C_R   0.475504 0.219319 0.064057 -0.183261
C47   C     C_R   0.438719 0.158587 0.148825 -0.067523
C48   C     C_R   0.404695 0.218272 0.178409 0.043053
C49   C     C_R   0.426696 0.277275 0.149433 0.159300
C50   C     C_R   0.350932 0.222326 0.235257 0.052031
C51   C     C_R   0.357176 0.283116 0.263918 -0.004025
C52   C     C_R   0.364468 0.340795 0.231983 -0.003782
C53   C     C_R   0.404349 0.336774 0.176017 -0.277496
C54   C     C_R   0.269911 0.169416 0.263006 -0.185304
C55   C     C_R   0.233617 0.171353 0.318684 -0.197570
C56   C     C_R   0.274654 0.226615 0.349179 0.130460
C57   C     C_R   0.339689 0.283353 0.322740 0.122197
C58   C     C_R   0.245023 0.225688 0.405862 -0.268520
C59   C     C_R   0.278400 0.280616 0.438094 0.357358
C60   C     C_R   0.386532 0.337312 0.356393 -0.298046
H17   H     H_    0.407737 0.381014 0.151987 0.143794
H18   H     H_    0.450399 0.380293 0.339438 0.141049
H19   H     H_    0.172934 0.128952 0.338046 0.141425
H20   H     H_    0.474109 0.322307 0.070634 0.122617
H21   H     H_    0.497018 0.220846 0.020155 0.115697
H22   H     H_    0.219638 0.127261 0.241796 0.150373
H23   H     H_    0.193778 0.181829 0.425156 0.178780
O11   O     O_R   0.323320 0.942780 0.056240 -0.577034
O12   O     O_R   0.647300 0.077050 0.046060 -0.595796
O13   O     O_R   0.813840 0.057330 0.943840 -0.593777
C61   C     C_R   0.477756 0.100321 0.057567 0.936839
O14   O     O_R   0.653250 0.944380 0.062400 -0.577927
O15   O     O_R   0.819830 0.923720 0.960300 -0.579639
C62   C     C_R   0.485517 0.923287 0.077452 1.014159
O16   O     O_R   0.317330 0.076390 0.039790 -0.601651
O17   O     O_3   0.483830 0.993470 0.966560 -0.275839
V3    V     V_3+5 0.760140 0.001210 0.006210 1.198902
O18   O     O_R   0.149290 0.922840 0.953850 -0.589707
C63   C     C_R   0.981272 0.898923 0.943318 1.048317
O19   O     O_R   0.143340 0.055500 0.937510 -0.594475
C64   C     C_R   0.973750 0.075480 0.921742 0.967406
V4    V     V_3+5 0.259690 0.998600 0.993650 1.196335
O20   O     O_3   0.986130 0.006520 0.033440 -0.275365
N1    N     N_R   0.239674 0.278093 0.496012 0.231496
O21   O     O_R   0.340383 0.312073 0.530595 -0.403146
O22   O     O_R   0.114974 0.237262 0.515017 -0.372569
C65   C     C_R   0.476298 0.096342 0.177498 0.091193
C66   C     C_R   0.639765 0.089479 0.211212 -0.104644
C67   C     C_R   0.669159 0.032647 0.241426 -0.111313
C68   C     C_R   0.534031 0.982927 0.238925 -0.076922
C69   C     C_R   0.371040 0.989533 0.205473 -0.137354
C70   C     C_R   0.344712 0.045158 0.173574 -0.212148
H24   H     H_    0.742886 0.128395 0.214508 0.111102
H25   H     H_    0.795237 0.027561 0.267383 0.113075
H26   H     H_    0.555254 0.939355 0.262994 0.113947
H27   H     H_    0.264937 0.951470 0.204184 0.124165
H28   H     H_    0.216859 0.049919 0.148251 0.140438
C71   C     C_R   0.286604 0.404115 0.251214 0.136791
C72   C     C_R   0.391519 0.461347 0.243717 -0.194026
C73   C     C_R   0.311597 0.521318 0.258302 -0.102846
C74   C     C_R   0.126980 0.524700 0.280634 -0.085847
C75   C     C_R   0.021972 0.468071 0.288504 -0.113344
C76   C     C_R   0.100564 0.408025 0.273528 -0.137399
H29   H     H_    0.534402 0.459492 0.226268 0.124617
H30   H     H_    0.392531 0.565187 0.251862 0.130557
H31   H     H_    0.064818 0.571215 0.291613 0.112367
H32   H     H_    0.878732 0.470766 0.305594 0.114179
H33   H     H_    0.015712 0.364682 0.278720 0.120292
N2    N     N_R   0.753594 0.895898 0.654466 0.238404
O23   O     O_R   0.850717 0.916424 0.612616 -0.367900
O24   O     O_R   0.632982 0.935365 0.678240 -0.364447
N3    N     N_R   0.091084 0.775694 0.994455 0.228548
O25   O     O_R   0.002178 0.811940 0.030097 -0.414118
O26   O     O_R   0.212752 0.731980 0.012115 -0.395449

loop_
_geom_bond_atom_site_label_1
_geom_bond_atom_site_label_2
_geom_bond_distance
_ccdc_geom_bond_type
C13   C19   1.438681 A    
C61   O16   1.295550 A    
C36   C37   1.404963 A    
C47   C48   1.444526 A    
O15   C63   1.298626 A    
C71   C72   1.405620 A    
C54   H22   1.071518 S    
O11   C62   1.297930 A    
C45   C46   1.387475 A    
C4    C6    1.476645 S    
C7    C11   1.402606 A    
C7    C8    1.400151 A    
H13   C38   1.083355 S    
C1    O6    1.296409 A    
C14   H6    1.075666 S    
C73   C74   1.398240 A    
N1    O22   1.301777 A    
C25   C26   1.405638 A    
C69   H27   1.082159 S    
O19   C64   1.300813 A    
N2    O24   1.301442 A    
C14   C15   1.387180 A    
O13   V3    1.953581 S    
C52   C71   1.485276 S    
O16   V4    2.001135 S    
C9    C10   1.425899 A    
C16   C17   1.395032 A    
C48   C50   1.441929 A    
C5    C63   1.478773 S    
O5    C3    1.296693 A    
C18   C19   1.424690 A    
H9    C28   1.083280 S    
C29   C32   1.216055 T    
O18   C63   1.295874 A    
C33   C34   1.404978 A    
V2    O10   2.145029 S    
C16   H7    1.075451 S    
C5    C8    1.411314 A    
C66   C67   1.397970 A    
C24   C25   1.404767 A    
C35   C36   1.407680 A    
V4    O20   2.145088 S    
N1    O21   1.301610 A    
C44   C60   1.408488 A    
C72   H29   1.083245 S    
O8    V2    1.969675 S    
C56   C57   1.415871 A    
C33   C38   1.407793 A    
C55   C56   1.391233 A    
C34   C39   1.461618 S    
C40   C41   1.219257 T    
C26   C27   1.404408 A    
O1    V2    1.992161 S    
C11   C15   1.393834 A    
O7    V1    2.152106 S    
C1    C41   1.457166 S    
O12   V3    1.997418 S    
C23   C28   1.405576 A    
V3    O20   1.705904 S    
O13   C64   1.296859 A    
O1    C2    1.299499 A    
O9    C4    1.296175 A    
C31   C64   1.452389 S    
C46   H21   1.083840 S    
O17   V3    2.152075 S    
O12   C61   1.300142 A    
C23   C24   1.404328 A    
C48   C49   1.417927 A    
O15   V3    1.992643 S    
C65   C70   1.405619 A    
C43   C47   1.422199 A    
C66   H24   1.083396 S    
C27   C28   1.404789 A    
C12   C13   1.435716 A    
C76   H33   1.083249 S    
C2    C44   1.475020 S    
O4    C2    1.294701 A    
C50   C51   1.435696 A    
C59   N1    1.442367 S    
C15   H1    1.084555 S    
C33   H14   1.083317 S    
O11   V4    1.959924 S    
C21   H3    1.083832 S    
C74   H31   1.082226 S    
C34   C35   1.406053 A    
O2    C1    1.304457 A    
C67   H25   1.082438 S    
C17   C18   1.410223 A    
C7    H4    1.084271 S    
C50   C54   1.408567 A    
C25   H11   1.083304 S    
C9    H5    1.076769 S    
C49   C53   1.395062 A    
C69   C70   1.396983 A    
C37   C40   1.461884 S    
O14   C62   1.303112 A    
C68   C69   1.397911 A    
O14   V3    1.959551 S    
C19   C22   1.429280 A    
N3    O25   1.301599 A    
C6    C22   1.405453 A    
C3    C32   1.452095 S    
O3    C4    1.298898 A    
C75   H32   1.082661 S    
C60   H18   1.078973 S    
C26   H12   1.083241 S    
O6    V2    1.959418 S    
O9    V2    1.995588 S    
C10   C12   1.441250 A    
C51   C52   1.424206 A    
C47   C65   1.482758 S    
C72   C73   1.397358 A    
O2    V1    1.959364 S    
C51   C57   1.442232 A    
C44   C59   1.411732 A    
C17   N2    1.437768 S    
C23   H10   1.083257 S    
O17   V4    1.698356 S    
C74   C75   1.396747 A    
O18   V4    1.995671 S    
C57   C60   1.421380 A    
C30   C31   1.216209 T    
C20   H8    1.081110 S    
C58   C59   1.398732 A    
C12   C16   1.408578 A    
C45   H20   1.084099 S    
C56   C58   1.400784 A    
C52   C53   1.398328 A    
O5    V1    1.953662 S    
C43   C46   1.393365 A    
O8    C3    1.300887 A    
C42   C62   1.457337 S    
N3    O26   1.301847 A    
C55   H19   1.084393 S    
N2    O23   1.301492 A    
C27   C30   1.456889 S    
C20   C21   1.389904 A    
C39   C42   1.219309 T    
C75   C76   1.397613 A    
C13   C14   1.411768 A    
C53   H17   1.085584 S    
O4    V1    1.997362 S    
O3    V1    1.992838 S    
V1    O10   1.705840 S    
C73   H30   1.081709 S    
C18   C20   1.410802 A    
C8    N3    1.442514 S    
C43   C61   1.479987 S    
C71   C76   1.407658 A    
C24   C29   1.456701 S    
C70   H28   1.082968 S    
O19   V4    1.969898 S    
C22   H2    1.076458 S    
C68   H26   1.082451 S    
C37   C38   1.406126 A    
O7    V2    1.701116 S    
C35   H15   1.083376 S    
C6    C21   1.392057 A    
C5    C9    1.408837 A    
C58   H23   1.084227 S    
C36   H16   1.083340 S    
C54   C55   1.384772 A    
C45   C49   1.401677 A    
C10   C11   1.416136 A    
C67   C68   1.397724 A    
C65   C66   1.404793 A    
