data_mof_unit_48852.cif
_audit_creation_date              2013-03-05T16:18:40-0500
_audit_creation_method            fapswitch 2.2
_symmetry_space_group_name_H-M    P1
_symmetry_Int_Tables_number       1
_space_group_crystal_system       triclinic
_cell_length_a                    15.714699
_cell_length_b                    10.707686
_cell_length_c                    9.794284
_cell_angle_alpha                 91.850858
_cell_angle_beta                  90.554444
_cell_angle_gamma                 90.594754
_cell_volume                      1647.03397661

loop_
_atom_site_label
_atom_site_type_symbol
_atom_site_description
_atom_site_fract_x
_atom_site_fract_y
_atom_site_fract_z
_atom_type_partial_charge
O1    O     O_R   0.499980 0.314910 0.616040 -0.633551
O2    O     O_R   0.500040 0.314680 0.383960 -0.526946
C1    C     C_R   0.505958 0.258025 0.498833 1.008202
O3    O     O_R   0.376750 0.500100 0.616020 -0.526120
O4    O     O_R   0.376810 0.499870 0.383940 -0.582380
C2    C     C_R   0.338272 0.502645 0.499550 1.005521
Zn1   Zn    Zn3+2 0.499960 0.500150 0.654960 1.027199
Zn2   Zn    Zn3+2 0.500040 0.499850 0.345040 1.038531
O5    O     O_R   0.499960 0.685320 0.616040 -0.633478
O6    O     O_R   0.500020 0.685090 0.383960 -0.647579
O7    O     O_R   0.623190 0.500130 0.616060 -0.616680
O8    O     O_R   0.623250 0.499900 0.383980 -0.613019
C3    C     C_R   0.503345 0.741655 0.501518 0.919841
C4    C     C_R   0.661866 0.500507 0.500686 0.926588
C5    C     C_3   0.974912 0.440731 0.606306 0.331742
C6    C     C_3   0.029802 0.381735 0.492000 -0.317601
H1    H     H_    0.054148 0.284744 0.486714 0.215069
C7    C     C_1   0.249683 0.504142 0.498404 -0.093518
C8    C     C_1   0.750599 0.499884 0.502030 -0.041701
C9    C     C_3   0.030453 0.560117 0.614806 -0.216871
C10   C     C_3   0.084006 0.503045 0.497664 -0.020309
C11   C     C_3   0.971519 0.620242 0.506289 -0.276444
C12   C     C_3   0.916581 0.499479 0.500748 -0.077084
C13   C     C_3   0.026412 0.562035 0.391674 0.305416
C14   C     C_3   0.971538 0.443738 0.386412 0.215666
C15   C     C_1   0.174569 0.504340 0.497811 0.069591
C16   C     C_1   0.825808 0.499395 0.502143 0.142925
H2    H     H_    0.947111 0.717205 0.510400 0.216761
H3    H     H_    0.056138 0.606146 0.709948 0.194933
C17   C     C_3   0.541789 0.074693 0.641779 0.121723
H4    H     H_    0.504788 0.117985 0.725980 0.104182
C18   C     C_3   0.523855 0.932996 0.648239 -0.460666
H5    H     H_    0.576227 0.882937 0.699263 0.228429
H6    H     H_    0.467186 0.918549 0.712301 0.173987
H7    H     H_    0.382428 0.080931 0.573914 0.150901
C19   C     C_3   0.415659 0.067430 0.475198 -0.016066
C20   C     C_3   0.570853 0.064257 0.386165 0.151600
C21   C     C_3   0.509487 0.120893 0.498143 -0.284813
H8    H     H_    0.540266 0.074268 0.285189 0.198584
C22   C     C_3   0.505836 0.877336 0.502119 -0.109259
C23   C     C_3   0.420619 0.925855 0.442586 0.105048
C24   C     C_3   0.578812 0.921504 0.407910 -0.508056
H9    H     H_    0.640305 0.895911 0.455667 0.258388
H10   H     H_    0.576293 0.872438 0.305946 0.180130
H11   H     H_    0.424030 0.909515 0.329740 0.159571
C25   C     C_3   0.451367 0.384892 0.075451 0.674860
C26   C     C_3   0.451640 0.385726 0.910695 0.320541
H12   H     H_    0.488608 0.303941 0.871586 0.103887
H13   H     H_    0.396693 0.630866 0.128819 0.184254
C27   C     C_3   0.458965 0.613796 0.083536 -0.455921
C28   C     C_3   0.586327 0.506297 0.082428 -0.307550
N1    N     N_3   0.498170 0.499750 0.138610 -0.140127
H14   H     H_    0.617504 0.596704 0.114361 0.179198
H15   H     H_    0.629405 0.439058 0.129869 0.278186
N2    N     N_3   0.498850 0.496730 0.861320 -0.125844
C29   C     C_3   0.457871 0.612356 0.920918 0.435007
C30   C     C_3   0.586521 0.494358 0.921107 -0.443691
H16   H     H_    0.619315 0.407402 0.887544 0.269183
H17   H     H_    0.624940 0.572417 0.880498 0.202775
H18   H     H_    0.494987 0.698596 0.120566 0.161158
H19   H     H_    0.495963 0.694439 0.887675 0.070404
N3    N     N_R   0.344608 0.859339 0.489532 0.218291
O9    O     O_R   0.313700 0.882436 0.610179 -0.453984
O10   O     O_R   0.301200 0.788228 0.403423 -0.360320
N4    N     N_R   0.654740 0.127747 0.381555 0.259775
O11   O     O_R   0.660247 0.239537 0.334423 -0.321683
O12   O     O_R   0.725212 0.067471 0.400231 -0.284168
N5    N     N_R   0.363260 0.131301 0.373582 0.265831
O13   O     O_R   0.330631 0.238527 0.408189 -0.417284
O14   O     O_R   0.327908 0.068992 0.271238 -0.309546
O15   O     O_3   0.369266 0.368337 0.138546 -0.551326
C31   C     C_3   0.298201 0.444218 0.108891 0.077075
H20   H     H_    0.297364 0.484562 0.008043 0.217447
H21   H     H_    0.292904 0.522088 0.184773 0.194172
C32   C     C_3   0.216745 0.367886 0.125496 -0.610306
H22   H     H_    0.208783 0.344127 0.234189 0.274477
H23   H     H_    0.161023 0.422975 0.093068 0.243923
H24   H     H_    0.218235 0.279719 0.063450 0.256162
N6    N     N_R   0.947783 0.374008 0.725999 0.246424
O16   O     O_R   0.004529 0.329920 0.808532 -0.328934
O17   O     O_R   0.867382 0.358107 0.751260 -0.290522
N7    N     N_R   0.496512 0.267887 0.107520 0.182671
O18   O     O_R   0.450233 0.167729 0.120300 -0.385572
O19   O     O_R   0.575194 0.249301 0.073024 -0.414685
O20   O     O_3   0.369710 0.377981 0.848509 -0.565308
C33   C     C_3   0.338627 0.253742 0.836313 0.071476
H25   H     H_    0.333230 0.211117 0.937536 0.205249
H26   H     H_    0.380551 0.195466 0.771902 0.129868
C34   C     C_3   0.251405 0.252873 0.767376 -0.710079
H27   H     H_    0.257411 0.281817 0.660181 0.262048
H28   H     H_    0.223489 0.157174 0.767207 0.237646
H29   H     H_    0.208112 0.318340 0.821861 0.263263
O21   O     O_3   0.373686 0.621701 0.869275 -0.566931
C35   C     C_3   0.340320 0.742598 0.891638 0.048307
H30   H     H_    0.372378 0.809026 0.824948 0.188076
H31   H     H_    0.348194 0.778226 0.998815 0.141324
C36   C     C_3   0.245496 0.738801 0.858459 -0.610655
H32   H     H_    0.211880 0.677939 0.930732 0.237233
H33   H     H_    0.219113 0.834483 0.867750 0.234569
H34   H     H_    0.234450 0.701131 0.752660 0.268584
N8    N     N_R   0.941087 0.381730 0.260265 0.257813
O22   O     O_R   0.995450 0.338481 0.171877 -0.312323
O23   O     O_R   0.859998 0.368467 0.235511 -0.287474
N9    N     N_R   0.053632 0.628388 0.271744 0.233160
O24   O     O_R   0.996998 0.671256 0.188226 -0.319729
O25   O     O_R   0.133992 0.648060 0.249255 -0.379943
N10   N     N_R   0.631967 0.107971 0.669614 0.266346
O26   O     O_R   0.653788 0.224388 0.691867 -0.335732
O27   O     O_R   0.690009 0.023234 0.683143 -0.319414

loop_
_geom_bond_atom_site_label_1
_geom_bond_atom_site_label_2
_geom_bond_distance
_ccdc_geom_bond_type
N2    C29   1.505131 S    
O21   C35   1.413042 S    
C17   N10   1.478260 S    
H7    C19   1.109384 S    
C7    C15   1.180370 T    
Zn1   N2    2.022902 S    
C10   C15   1.423075 S    
N9    O25   1.300182 A    
C36   H32   1.111170 S    
C13   N9    1.457683 S    
O20   C33   1.413400 S    
Zn1   O7    1.977261 S    
N8    O22   1.300141 A    
C26   O20   1.419460 S    
C20   C21   1.578041 S    
C31   C32   1.524444 S    
C17   H4    1.106016 S    
O7    C4    1.288354 A    
C33   H26   1.101157 S    
C30   H17   1.112185 S    
C5    C6    1.542992 S    
C25   N1    1.536049 S    
C17   C21   1.586779 S    
C20   C24   1.556274 S    
O5    C3    1.291905 A    
C3    C22   1.452762 S    
N3    O10   1.301159 A    
C25   N7    1.486993 S    
C5    N6    1.457375 S    
C1    C21   1.469784 S    
C6    H1    1.110310 S    
N4    O12   1.301923 A    
C20   N4    1.478699 S    
C27   N1    1.487790 S    
N10   O26   1.300425 A    
C28   C30   1.581100 S    
C12   C16   1.426664 S    
C34   H28   1.110426 S    
C8    C16   1.181940 T    
Zn2   N1    2.021729 S    
C22   C24   1.558075 S    
N8    O23   1.300310 A    
C11   H2    1.110206 S    
N10   O27   1.302078 A    
C19   C23   1.542024 S    
C29   O21   1.417419 S    
C24   H10   1.113479 S    
C23   N3    1.469565 S    
O3    Zn1   1.969782 S    
N9    O24   1.300211 A    
C36   H33   1.110571 S    
C9    H3    1.110450 S    
C5    C9    1.539952 S    
C2    C7    1.392344 S    
C28   N1    1.497387 S    
C13   C14   1.524147 S    
C31   H21   1.103239 S    
N6    O17   1.300345 A    
C33   H25   1.108349 S    
N5    O13   1.298651 A    
C35   C36   1.521927 S    
O6    C3    1.283913 A    
C27   C29   1.592232 S    
O1    C1    1.286761 A    
C18   H6    1.106748 S    
C32   H22   1.110454 S    
N3    O9    1.299270 A    
C26   H12   1.115481 S    
Zn2   O8    1.969782 S    
C29   H19   1.117219 S    
C34   H29   1.109862 S    
C35   H31   1.110594 S    
C32   H23   1.110420 S    
C25   O15   1.447649 S    
O3    C2    1.287115 A    
C22   C23   1.556321 S    
C9    C11   1.561850 S    
H13   C27   1.092990 S    
N7    O19   1.300559 A    
N7    O18   1.299606 A    
N2    C30   1.492553 S    
C11   C13   1.541905 S    
C24   H9    1.110284 S    
C36   H34   1.111149 S    
C26   N2    1.490910 S    
C6    C14   1.545077 S    
Zn1   O5    2.031108 S    
C25   C26   1.614026 S    
O1    Zn1   2.007666 S    
C4    C8    1.394445 S    
Zn2   O6    2.007666 S    
O2    Zn2   2.031109 S    
O8    C4    1.288747 A    
C31   H20   1.090791 S    
C33   C34   1.521884 S    
O4    Zn2   1.977261 S    
C19   N5    1.475165 S    
C6    C10   1.545108 S    
C28   H15   1.103710 S    
C27   H18   1.113808 S    
C18   H5    1.110364 S    
C19   C21   1.587470 S    
O2    C1    1.298361 A    
O15   C31   1.421091 S    
C20   H8    1.104236 S    
C17   C18   1.543740 S    
C14   N8    1.457841 S    
C30   H16   1.110879 S    
O4    C2    1.288903 A    
C5    C12   1.529862 S    
C18   C22   1.554706 S    
C35   H30   1.102415 S    
C32   H24   1.106691 S    
N6    O16   1.300356 A    
C12   C14   1.530477 S    
C9    C10   1.543415 S    
N5    O14   1.302643 A    
N4    O11   1.299127 A    
C10   C13   1.527029 S    
C23   H11   1.115305 S    
C11   C12   1.546533 S    
C28   H14   1.114718 S    
C34   H27   1.108855 S    
