data_mof_unit_59400.cif
_audit_creation_date              2012-12-10T18:51:35-0500
_audit_creation_method            fapswitch 2.2
_symmetry_space_group_name_H-M    P1
_symmetry_Int_Tables_number       1
_space_group_crystal_system       triclinic
_cell_length_a                    10.87676
_cell_length_b                    9.821319
_cell_length_c                    10.493195
_cell_angle_alpha                 89.657152
_cell_angle_beta                  90.116667
_cell_angle_gamma                 89.97229
_cell_volume                      1120.90389356

loop_
_atom_site_label
_atom_site_type_symbol
_atom_type_description
_atom_site_fract_x
_atom_site_fract_y
_atom_site_fract_z
_atom_type_partial_charge
C1    C     C_R   0.872506 0.511281 0.526305 -0.159499
C2    C     C_3   0.400692 0.434060 0.041930 -0.191917
C3    C     C_3   0.399165 0.562444 0.956423 -0.178081
C4    C     C_3   0.603058 0.437632 0.043332 -0.178444
C5    C     C_3   0.501561 0.498478 0.877625 0.041272
C6    C     C_3   0.500513 0.501536 0.122132 0.036671
C7    C     C_R   0.523843 0.071282 0.609300 -0.111995
C8    C     C_R   0.474728 0.928753 0.391042 -0.094374
C9    C     C_R   0.475308 0.072624 0.390927 -0.104516
C10   C     C_R   0.524407 0.927383 0.609211 -0.094426
C11   C     C_R   0.057846 0.386704 0.493382 0.048204
C12   C     C_R   0.125325 0.509624 0.491470 -0.160675
C13   C     C_R   0.934863 0.639551 0.515699 0.042127
C14   C     C_R   0.939149 0.389923 0.541302 0.053156
C15   C     C_R   0.063560 0.638928 0.500960 0.041272
C16   C     C_3   0.103227 0.255060 0.432243 -0.398683
C17   C     C_3   0.134843 0.275372 0.290822 -0.318180
C18   C     C_3   0.158269 0.139189 0.225623 -0.924442
C19   C     C_3   0.868003 0.778295 0.522235 -0.348699
C20   C     C_3   0.833100 0.829359 0.387010 -0.309726
C21   C     C_3   0.795335 0.978445 0.386802 -0.906311
C22   C     C_3   0.890849 0.268549 0.618385 -0.410734
C23   C     C_R   0.259210 0.501738 0.494086 0.878195
C24   C     C_3   0.845271 0.311012 0.751003 -0.316712
C25   C     C_3   0.816625 0.186740 0.833863 -0.911247
C26   C     C_3   0.130678 0.777722 0.496436 -0.344546
C27   C     C_3   0.170630 0.820779 0.631822 -0.310001
C28   C     C_3   0.202499 0.971304 0.637521 -0.918964
C29   C     C_R   0.739928 0.501975 0.510336 0.878956
C30   C     C_R   0.499959 0.500491 0.257119 0.857737
C31   C     C_R   0.500810 0.499511 0.742799 0.848468
C32   C     C_3   0.499080 0.630089 0.039197 -0.143595
C33   C     C_3   0.503195 0.369958 0.960482 -0.136167
C34   C     C_3   0.601557 0.565956 0.957604 -0.192506
H1    H     H_    0.542505 0.124986 0.696739 0.135999
H2    H     H_    0.318774 0.380406 0.079796 0.127694
H3    H     H_    0.231873 0.081889 0.275976 0.258610
H4    H     H_    0.073083 0.076782 0.225296 0.262260
H5    H     H_    0.187127 0.157176 0.125492 0.245834
H6    H     H_    0.057358 0.327522 0.241337 0.214068
H7    H     H_    0.217990 0.339795 0.280868 0.219754
H8    H     H_    0.180921 0.209627 0.485276 0.232965
H9    H     H_    0.030780 0.176814 0.435507 0.186771
H10   H     H_    0.728899 0.998703 0.463910 0.280061
H11   H     H_    0.877036 0.042622 0.401553 0.243654
H12   H     H_    0.454314 0.875160 0.303877 0.126019
H13   H     H_    0.753185 0.006113 0.293708 0.250920
H14   H     H_    0.911822 0.817253 0.320724 0.195329
H15   H     H_    0.756583 0.769216 0.346276 0.252617
H16   H     H_    0.789384 0.778752 0.589041 0.205415
H17   H     H_    0.922790 0.856100 0.572640 0.182530
H18   H     H_    0.747483 0.121023 0.786579 0.253273
H19   H     H_    0.901537 0.126527 0.851490 0.259969
H20   H     H_    0.779375 0.220189 0.926937 0.246674
H21   H     H_    0.917099 0.372681 0.799327 0.212258
H22   H     H_    0.760836 0.373900 0.742705 0.220207
H23   H     H_    0.455886 0.127342 0.303527 0.144185
H24   H     H_    0.818402 0.212781 0.566013 0.229524
H25   H     H_    0.965934 0.194299 0.635184 0.190353
H26   H     H_    0.267852 0.998425 0.560668 0.281044
H27   H     H_    0.117546 0.032240 0.626441 0.242120
H28   H     H_    0.244742 0.995376 0.731140 0.250383
H29   H     H_    0.095350 0.800803 0.700940 0.197079
H30   H     H_    0.251286 0.761426 0.665135 0.250783
H31   H     H_    0.205798 0.782787 0.425658 0.206713
H32   H     H_    0.074802 0.859205 0.452335 0.186528
H33   H     H_    0.544437 0.872755 0.696523 0.132946
H34   H     H_    0.316351 0.613028 0.916034 0.121053
H35   H     H_    0.685833 0.387429 0.084128 0.127701
H36   H     H_    0.497370 0.736103 0.075328 0.128193
H37   H     H_    0.505173 0.263956 0.924325 0.133203
H38   H     H_    0.683221 0.619093 0.918044 0.119960
N1    N     N_R   0.500000 0.857200 0.500000 -0.067674
N2    N     N_R   0.500000 0.142800 0.500000 -0.074160
O1    O     O_R   0.316770 0.614620 0.499990 -0.629629
O2    O     O_R   0.683230 0.385380 0.500010 -0.610965
O3    O     O_R   0.683230 0.614620 0.500010 -0.631425
O4    O     O_R   0.316770 0.385380 0.499990 -0.613627
O5    O     O_R   0.499970 0.614650 0.313950 -0.640259
O6    O     O_R   0.500030 0.385350 0.686050 -0.630776
O7    O     O_R   0.500030 0.614650 0.686050 -0.639190
O8    O     O_R   0.499970 0.385350 0.313950 -0.626441
Zn1   Zn    Zn3+2 0.500000 0.653120 0.500000 0.914730
Zn2   Zn    Zn3+2 0.500000 0.346880 0.500000 0.933149

loop_
_geom_bond_atom_site_label_1
_geom_bond_atom_site_label_2
_ccdc_geom_bond_type
C7    C10   A    
C6    C32   S    
C16   H8    S    
C19   C20   S    
O6    Zn2   S    
O2    Zn2   S    
C31   O6    A    
C29   O2    A    
C10   H33   S    
C24   H21   S    
C12   C23   S    
C26   C27   S    
C18   H3    S    
C25   H19   S    
C10   N1    A    
O3    Zn1   S    
C3    H34   S    
C8    C9    A    
C5    C33   S    
C28   H27   S    
C2    C6    S    
C4    H35   S    
O7    Zn1   S    
C7    N2    A    
C21   H11   S    
C28   H26   S    
C4    C34   S    
C17   H7    S    
C13   C19   S    
C26   H32   S    
C25   H20   S    
C4    C6    S    
C23   O1    A    
C22   H25   S    
C16   C17   S    
C15   C26   S    
C32   H36   S    
C17   H6    S    
C32   C34   S    
C30   O8    A    
C18   H5    S    
C20   H15   S    
O4    Zn2   S    
C21   H10   S    
C11   C16   S    
C12   C15   A    
C5    C34   S    
C1    C29   S    
C17   C18   S    
C24   C25   S    
C16   H9    S    
C20   H14   S    
C27   H29   S    
C30   O5    A    
C2    C33   S    
C6    C30   S    
O8    Zn2   S    
C13   C15   A    
C22   C24   S    
C1    C13   A    
C9    N2    A    
C34   H38   S    
C2    H2    S    
C4    C33   S    
C26   H31   S    
C7    H1    S    
N2    Zn2   S    
C3    C5    S    
C22   H24   S    
C11   C12   A    
C24   H22   S    
C31   O7    A    
C14   C22   S    
C2    C3    S    
C18   H4    S    
C25   H18   S    
O5    Zn1   S    
C19   H16   S    
O1    Zn1   S    
C8    N1    A    
C11   C14   A    
C9    H23   S    
C23   O4    A    
C3    C32   S    
C8    H12   S    
C27   H30   S    
C33   H37   S    
C19   H17   S    
C29   O3    A    
C20   C21   S    
C27   C28   S    
C1    C14   A    
C21   H13   S    
N1    Zn1   S    
C5    C31   S    
C28   H28   S    
