data_mof_unit_64323.cif
_audit_creation_date              2012-12-10T18:46:51-0500
_audit_creation_method            fapswitch 2.2
_symmetry_space_group_name_H-M    P1
_symmetry_Int_Tables_number       1
_space_group_crystal_system       triclinic
_cell_length_a                    38.718773
_cell_length_b                    38.719584
_cell_length_c                    38.721146
_cell_angle_alpha                 90.036723
_cell_angle_beta                  90.006786
_cell_angle_gamma                 89.964231
_cell_volume                      58049.7420336

loop_
_atom_site_label
_atom_site_type_symbol
_atom_type_description
_atom_site_fract_x
_atom_site_fract_y
_atom_site_fract_z
_atom_type_partial_charge
C1    C     C_R   0.000004 0.499964 0.567415 0.970395
C2    C     C_R   0.000010 0.432584 0.500007 0.969354
C3    C     C_R   0.000003 0.500017 0.432585 0.970394
C4    C     C_R   0.999990 0.567410 0.499993 0.973295
C5    C     C_R   0.499973 0.432587 0.999985 0.970636
C6    C     C_R   0.432587 0.500039 0.000002 0.969187
C7    C     C_R   0.499957 0.567417 0.000005 0.970941
C8    C     C_R   0.567408 0.500003 0.000002 0.970494
C9    C     C_R   0.432586 0.000009 0.500005 0.969112
C10   C     C_R   0.499997 0.000010 0.567416 0.969388
C11   C     C_R   0.567416 0.999992 0.500016 0.971262
C12   C     C_R   0.499963 0.999986 0.432584 0.972269
C13   C     C_R   0.500005 0.999974 0.067419 0.970587
C14   C     C_R   0.500012 0.932585 0.999969 0.969766
C15   C     C_R   0.499998 0.000001 0.932584 0.969503
C16   C     C_R   0.499987 0.067411 0.000027 0.969647
C17   C     C_R   0.999997 0.932585 0.499990 0.970405
C18   C     C_R   0.932585 0.000012 0.500000 0.970771
C19   C     C_R   0.000004 0.067415 0.500010 0.970237
C20   C     C_R   0.067409 0.000007 0.500001 0.972296
C21   C     C_R   0.932591 0.500010 0.000002 0.970279
C22   C     C_R   0.999969 0.500014 0.067417 0.971109
C23   C     C_R   0.067412 0.499986 0.000029 0.970833
C24   C     C_R   0.999957 0.499985 0.932582 0.971236
C25   C     C_R   0.028303 0.376551 0.486308 0.582650
C26   C     C_R   0.028510 0.487235 0.376451 0.588897
C27   C     C_R   0.028108 0.623376 0.485976 0.579852
C28   C     C_R   0.028479 0.512656 0.623586 0.576181
C29   C     C_R   0.971809 0.623424 0.513914 0.580255
C30   C     C_R   0.971724 0.514109 0.376693 0.568558
C31   C     C_R   0.971781 0.376598 0.513806 0.582282
C32   C     C_R   0.971729 0.485778 0.623267 0.581398
C33   C     C_R   0.376472 0.486731 0.971736 0.573601
C34   C     C_R   0.486288 0.623331 0.971560 0.580598
C35   C     C_R   0.623398 0.513886 0.971865 0.573288
C36   C     C_R   0.512943 0.376439 0.971573 0.580559
C37   C     C_R   0.623432 0.486183 0.028151 0.573393
C38   C     C_R   0.513307 0.623534 0.028314 0.580627
C39   C     C_R   0.376656 0.513672 0.028430 0.573917
C40   C     C_R   0.485517 0.376723 0.028065 0.572779
C41   C     C_R   0.513714 0.028303 0.623436 0.582750
C42   C     C_R   0.623394 0.028342 0.513656 0.588344
C43   C     C_R   0.513406 0.028194 0.376484 0.580777
C44   C     C_R   0.376550 0.028401 0.486623 0.568738
C45   C     C_R   0.486246 0.971527 0.376669 0.580495
C46   C     C_R   0.623459 0.971618 0.486535 0.575763
C47   C     C_R   0.486248 0.971779 0.623417 0.582246
C48   C     C_R   0.376571 0.971673 0.513429 0.581598
C49   C     C_R   0.528517 0.876445 0.012740 0.575723
C50   C     C_R   0.528242 0.013783 0.876591 0.582411
C51   C     C_R   0.528133 0.123492 0.986479 0.581029
C52   C     C_R   0.528604 0.012474 0.123581 0.581418
C53   C     C_R   0.471632 0.123358 0.013787 0.568372
C54   C     C_R   0.471743 0.986266 0.876560 0.582151
C55   C     C_R   0.471765 0.876701 0.985823 0.581267
C56   C     C_R   0.471630 0.986071 0.123304 0.573882
C57   C     C_R   0.876590 0.013625 0.528374 0.588278
C58   C     C_R   0.013799 0.123406 0.471792 0.583239
C59   C     C_R   0.123373 0.014148 0.471927 0.587204
C60   C     C_R   0.013233 0.876540 0.471520 0.574323
C61   C     C_R   0.123417 0.985951 0.528078 0.574716
C62   C     C_R   0.986274 0.123442 0.528299 0.582662
C63   C     C_R   0.876558 0.986500 0.471653 0.575380
C64   C     C_R   0.986701 0.876573 0.528389 0.574258
C65   C     C_R   0.986348 0.528517 0.123347 0.580674
C66   C     C_R   0.123274 0.528042 0.014577 0.573010
C67   C     C_R   0.013257 0.528234 0.876457 0.581036
C68   C     C_R   0.876579 0.528183 0.986153 0.573400
C69   C     C_R   0.986302 0.471468 0.876673 0.580583
C70   C     C_R   0.123549 0.471607 0.986989 0.580752
C71   C     C_R   0.013371 0.471749 0.123517 0.580623
C72   C     C_R   0.876591 0.471903 0.013874 0.573394
C73   C     C_R   0.028564 0.340399 0.486227 0.026977
C74   C     C_R   0.028849 0.487679 0.340299 0.024287
C75   C     C_R   0.028331 0.659525 0.485813 0.031257
C76   C     C_R   0.028791 0.512180 0.659738 0.030676
C77   C     C_R   0.971554 0.659574 0.514025 0.031299
C78   C     C_R   0.971636 0.515056 0.340615 0.021814
C79   C     C_R   0.971551 0.340448 0.513938 0.026993
C80   C     C_R   0.971614 0.484800 0.659344 0.014809
C81   C     C_R   0.340369 0.486355 0.971673 0.019160
C82   C     C_R   0.486194 0.659474 0.971182 0.031330
C83   C     C_R   0.659496 0.514318 0.971693 0.019340
C84   C     C_R   0.512469 0.340284 0.971207 0.029700
C85   C     C_R   0.659532 0.485795 0.028330 0.019375
C86   C     C_R   0.513442 0.659690 0.028423 0.031067
C87   C     C_R   0.340564 0.514048 0.028752 0.019033
C88   C     C_R   0.484473 0.340644 0.028100 0.020694
C89   C     C_R   0.513815 0.028563 0.659586 0.026905
C90   C     C_R   0.659543 0.028596 0.513793 0.025840
C91   C     C_R   0.513542 0.028278 0.340330 0.031083
C92   C     C_R   0.340453 0.028615 0.486270 0.020317
C93   C     C_R   0.486146 0.971124 0.340527 0.031294
C94   C     C_R   0.659610 0.971382 0.486456 0.032354
C95   C     C_R   0.486138 0.971549 0.659567 0.027116
C96   C     C_R   0.340474 0.971484 0.513786 0.013425
C97   C     C_R   0.528845 0.840291 0.012309 0.030695
C98   C     C_R   0.528484 0.013907 0.840441 0.026894
C99   C     C_R   0.528191 0.159595 0.986087 0.013452
C100  C     C_R   0.528932 0.012010 0.159732 0.029581
C101  C     C_R   0.471307 0.159450 0.014146 0.020487
C102  C     C_R   0.471494 0.986177 0.840409 0.027111
C103  C     C_R   0.471666 0.840621 0.984889 0.014756
C104  C     C_R   0.471530 0.985107 0.159380 0.020477
C105  C     C_R   0.840441 0.013745 0.528641 0.025756
C106  C     C_R   0.013924 0.159556 0.471566 0.026704
C107  C     C_R   0.159524 0.014305 0.471685 0.025755
C108  C     C_R   0.013574 0.840443 0.471298 0.019067
C109  C     C_R   0.159569 0.985836 0.528315 0.032536
C110  C     C_R   0.986187 0.159593 0.528564 0.027054
C111  C     C_R   0.840407 0.986404 0.471431 0.032357
C112  C     C_R   0.986321 0.840478 0.528567 0.019075
C113  C     C_R   0.986263 0.528910 0.159491 0.031220
C114  C     C_R   0.159352 0.528080 0.015628 0.020659
C115  C     C_R   0.013368 0.528308 0.840302 0.031002
C116  C     C_R   0.840480 0.528377 0.985747 0.019297
C117  C     C_R   0.986185 0.471055 0.840530 0.031439
C118  C     C_R   0.159705 0.471248 0.987460 0.029803
C119  C     C_R   0.013515 0.471655 0.159671 0.031076
C120  C     C_R   0.840493 0.471747 0.014288 0.019255
C121  C     C_R   0.000063 0.322412 0.500091 -0.098308
C122  C     C_R   0.000280 0.501618 0.322383 -0.089141
C123  C     C_R   0.999937 0.677575 0.499911 -0.096250
C124  C     C_R   0.000223 0.498233 0.677615 -0.089134
C125  C     C_R   0.322328 0.500154 0.000303 -0.078579
C126  C     C_R   0.499875 0.677597 0.999711 -0.097468
C127  C     C_R   0.677661 0.500066 0.000013 -0.077394
C128  C     C_R   0.498206 0.322378 0.999606 -0.087171
C129  C     C_R   0.499977 0.000062 0.677588 -0.098330
C130  C     C_R   0.677588 0.999998 0.500130 -0.098390
C131  C     C_R   0.499893 0.999601 0.322412 -0.097375
C132  C     C_R   0.322328 0.000054 0.500025 -0.079637
C133  C     C_R   0.500284 0.822382 0.998364 -0.089202
C134  C     C_R   0.499987 0.000050 0.822414 -0.098303
C135  C     C_R   0.499659 0.177662 0.000067 -0.078534
C136  C     C_R   0.500261 0.998304 0.177629 -0.089210
C137  C     C_R   0.822413 0.000075 0.500050 -0.098434
C138  C     C_R   0.000062 0.177586 0.500073 -0.098326
C139  C     C_R   0.177572 0.000078 0.499998 -0.096234
C140  C     C_R   0.999940 0.822326 0.499923 -0.079580
C141  C     C_R   0.999941 0.500376 0.177597 -0.097466
C142  C     C_R   0.177615 0.499622 0.001806 -0.087023
C143  C     C_R   0.999819 0.499575 0.822401 -0.097396
C144  C     C_R   0.822340 0.500070 0.000017 -0.077399
C145  C     C_R   0.000031 0.394695 0.500038 -0.393089
C146  C     C_R   0.000039 0.500369 0.394701 -0.385174
C147  C     C_R   0.999969 0.605289 0.499963 -0.379894
C148  C     C_R   0.000033 0.499551 0.605298 -0.385360
C149  C     C_R   0.394706 0.500155 0.000041 -0.377054
C150  C     C_R   0.499839 0.605310 0.999978 -0.380273
C151  C     C_R   0.605281 0.500022 0.000005 -0.376481
C152  C     C_R   0.499571 0.394705 0.999919 -0.378347
C153  C     C_R   0.499986 0.000032 0.605306 -0.393137
C154  C     C_R   0.605306 0.999982 0.500069 -0.386941
C155  C     C_R   0.499861 0.999917 0.394696 -0.380494
C156  C     C_R   0.394704 0.000029 0.500019 -0.383810
C157  C     C_R   0.500062 0.894702 0.999592 -0.385651
C158  C     C_R   0.499995 0.000015 0.894695 -0.393222
C159  C     C_R   0.499930 0.105287 0.000106 -0.383674
C160  C     C_R   0.500042 0.999592 0.105308 -0.379423
C161  C     C_R   0.894695 0.000046 0.500007 -0.387021
C162  C     C_R   0.000024 0.105304 0.500033 -0.393306
C163  C     C_R   0.105286 0.000034 0.500001 -0.386348
C164  C     C_R   0.999979 0.894702 0.499966 -0.377486
C165  C     C_R   0.999885 0.500079 0.105310 -0.380148
C166  C     C_R   0.105289 0.499923 0.000439 -0.378155
C167  C     C_R   0.999828 0.499911 0.894688 -0.380152
C168  C     C_R   0.894719 0.500033 0.000009 -0.376391
C169  C     C_R   0.000062 0.215246 0.500083 0.354434
C170  C     C_R   0.000104 0.500622 0.215260 0.350799
C171  C     C_R   0.999941 0.784746 0.499913 0.335485
C172  C     C_R   0.999982 0.499290 0.784738 0.350760
C173  C     C_R   0.215254 0.499724 0.001428 0.338705
C174  C     C_R   0.500217 0.784758 0.998712 0.344893
C175  C     C_R   0.784744 0.500080 0.000008 0.329775
C176  C     C_R   0.499384 0.215248 0.999855 0.333107
C177  C     C_R   0.499988 0.000060 0.784754 0.354462
C178  C     C_R   0.784754 0.000066 0.500083 0.353934
C179  C     C_R   0.500197 0.998627 0.215253 0.344384
C180  C     C_R   0.215247 0.000086 0.499992 0.348309
C181  C     C_R   0.500068 0.715260 0.999456 0.350825
C182  C     C_R   0.499987 0.000069 0.715248 0.354465
C183  C     C_R   0.498572 0.284737 0.999690 0.338875
C184  C     C_R   0.500059 0.999336 0.284750 0.350651
C185  C     C_R   0.715247 0.000026 0.500121 0.353940
C186  C     C_R   0.000064 0.284753 0.500091 0.354412
C187  C     C_R   0.284746 0.000064 0.500015 0.336014
C188  C     C_R   0.999936 0.715249 0.499910 0.347744
C189  C     C_R   0.000231 0.501300 0.284759 0.344643
C190  C     C_R   0.284743 0.499926 0.000590 0.332699
C191  C     C_R   0.000132 0.498552 0.715240 0.344838
C192  C     C_R   0.715256 0.500075 0.000009 0.329770
N1    N     N_R   0.978681 0.267158 0.478702 -0.163259
N2    N     N_R   0.021398 0.522683 0.266940 -0.160203
N3    N     N_R   0.977618 0.732856 0.479500 -0.162363
N4    N     N_R   0.021333 0.477196 0.733089 -0.161800
N5    N     N_R   0.022256 0.732850 0.520322 -0.162016
N6    N     N_R   0.979010 0.479556 0.267398 -0.159116
N7    N     N_R   0.021447 0.267153 0.521476 -0.163558
N8    N     N_R   0.978865 0.520297 0.732570 -0.157439
N9    N     N_R   0.266837 0.521913 0.980090 -0.156171
N10   N     N_R   0.478893 0.733156 0.020821 -0.162452
N11   N     N_R   0.732855 0.478669 0.978617 -0.155646
N12   N     N_R   0.477952 0.266849 0.977797 -0.161000
N13   N     N_R   0.732830 0.521485 0.021400 -0.155825
N14   N     N_R   0.521322 0.732560 0.977724 -0.162355
N15   N     N_R   0.267486 0.477842 0.021512 -0.155672
N16   N     N_R   0.519622 0.267434 0.021657 -0.157440
N17   N     N_R   0.521387 0.978685 0.732831 -0.163317
N18   N     N_R   0.732883 0.978659 0.521487 -0.163430
N19   N     N_R   0.479007 0.020850 0.266905 -0.162577
N20   N     N_R   0.267176 0.979650 0.477679 -0.155541
N21   N     N_R   0.521182 0.977472 0.267398 -0.161912
N22   N     N_R   0.732804 0.021414 0.478738 -0.162277
N23   N     N_R   0.478588 0.021448 0.732859 -0.163610
N24   N     N_R   0.267154 0.020491 0.522339 -0.157738
N25   N     N_R   0.521403 0.766869 0.977361 -0.161743
N26   N     N_R   0.478585 0.021440 0.767172 -0.163542
N27   N     N_R   0.478346 0.232538 0.977880 -0.156863
N28   N     N_R   0.479077 0.020507 0.232595 -0.158032
N29   N     N_R   0.520013 0.233121 0.021751 -0.155858
N30   N     N_R   0.521392 0.978685 0.767142 -0.163435
N31   N     N_R   0.478968 0.767467 0.020461 -0.157723
N32   N     N_R   0.521257 0.977124 0.233090 -0.160536
N33   N     N_R   0.767117 0.021432 0.478716 -0.163314
N34   N     N_R   0.021442 0.232840 0.521476 -0.163457
N35   N     N_R   0.232862 0.979663 0.477675 -0.161818
N36   N     N_R   0.977612 0.767169 0.479500 -0.156178
N37   N     N_R   0.232840 0.020498 0.522322 -0.163655
N38   N     N_R   0.978684 0.232845 0.478694 -0.163303
N39   N     N_R   0.767196 0.978681 0.521470 -0.162484
N40   N     N_R   0.022266 0.767163 0.520325 -0.155900
N41   N     N_R   0.978947 0.479228 0.233087 -0.162784
N42   N     N_R   0.233176 0.477742 0.021920 -0.160522
N43   N     N_R   0.021251 0.477557 0.767397 -0.162221
N44   N     N_R   0.767170 0.478679 0.978609 -0.155674
N45   N     N_R   0.978789 0.520655 0.766881 -0.162388
N46   N     N_R   0.232524 0.521799 0.980493 -0.157487
N47   N     N_R   0.021329 0.522351 0.232631 -0.161977
N48   N     N_R   0.767146 0.521479 0.021407 -0.155808
O1    O     O_R   0.971280 0.500050 0.550900 -0.554205
O2    O     O_R   0.971280 0.449100 0.500050 -0.568333
O3    O     O_R   0.971280 0.499950 0.449100 -0.580891
O4    O     O_R   0.971280 0.550900 0.499950 -0.566893
O5    O     O_R   0.028720 0.499950 0.550900 -0.580719
O6    O     O_R   0.028720 0.550900 0.500050 -0.566987
O7    O     O_R   0.028720 0.500050 0.449100 -0.553951
O8    O     O_R   0.028720 0.449100 0.499950 -0.568742
O9    O     O_R   0.500050 0.449100 0.028720 -0.566951
O10   O     O_R   0.449100 0.499950 0.028720 -0.566901
O11   O     O_R   0.499950 0.550900 0.028720 -0.566753
O12   O     O_R   0.550900 0.500050 0.028720 -0.567772
O13   O     O_R   0.499950 0.449100 0.971280 -0.567446
O14   O     O_R   0.550900 0.499950 0.971280 -0.567587
O15   O     O_R   0.500050 0.550900 0.971280 -0.566376
O16   O     O_R   0.449100 0.500050 0.971280 -0.567126
O17   O     O_R   0.449100 0.971280 0.499950 -0.554389
O18   O     O_R   0.499950 0.971280 0.550900 -0.568421
O19   O     O_R   0.550900 0.971280 0.500050 -0.580507
O20   O     O_R   0.500050 0.971280 0.449100 -0.566364
O21   O     O_R   0.449100 0.028720 0.500050 -0.581009
O22   O     O_R   0.499950 0.028720 0.449100 -0.566454
O23   O     O_R   0.550900 0.028720 0.499950 -0.554244
O24   O     O_R   0.500050 0.028720 0.550900 -0.568566
O25   O     O_R   0.471280 0.000050 0.050900 -0.566071
O26   O     O_R   0.471280 0.949100 0.000050 -0.554499
O27   O     O_R   0.471280 0.999950 0.949100 -0.568494
O28   O     O_R   0.471280 0.050900 0.999950 -0.581126
O29   O     O_R   0.528720 0.999950 0.050900 -0.566280
O30   O     O_R   0.528720 0.050900 0.000050 -0.555091
O31   O     O_R   0.528720 0.000050 0.949100 -0.568433
O32   O     O_R   0.528720 0.949100 0.999950 -0.580427
O33   O     O_R   0.000050 0.949100 0.528720 -0.566191
O34   O     O_R   0.949100 0.999950 0.528720 -0.554460
O35   O     O_R   0.999950 0.050900 0.528720 -0.568693
O36   O     O_R   0.050900 0.000050 0.528720 -0.581191
O37   O     O_R   0.999950 0.949100 0.471280 -0.566774
O38   O     O_R   0.050900 0.999950 0.471280 -0.555128
O39   O     O_R   0.000050 0.050900 0.471280 -0.568201
O40   O     O_R   0.949100 0.000050 0.471280 -0.580417
O41   O     O_R   0.949100 0.471280 0.999950 -0.567554
O42   O     O_R   0.999950 0.471280 0.050900 -0.566552
O43   O     O_R   0.050900 0.471280 0.000050 -0.567340
O44   O     O_R   0.000050 0.471280 0.949100 -0.566755
O45   O     O_R   0.949100 0.528720 0.000050 -0.567669
O46   O     O_R   0.999950 0.528720 0.949100 -0.566483
O47   O     O_R   0.050900 0.528720 0.999950 -0.567362
O48   O     O_R   0.000050 0.528720 0.050900 -0.566552
Zn1   Zn    Zn3+2 0.961640 0.500000 0.500000 1.167206
Zn2   Zn    Zn3+2 0.038360 0.500000 0.500000 1.166975
Zn3   Zn    Zn3+2 0.500000 0.500000 0.038360 1.169662
Zn4   Zn    Zn3+2 0.500000 0.500000 0.961640 1.169414
Zn5   Zn    Zn3+2 0.500000 0.961640 0.500000 1.167342
Zn6   Zn    Zn3+2 0.500000 0.038360 0.500000 1.166976
Zn7   Zn    Zn3+2 0.461640 0.000000 0.000000 1.167052
Zn8   Zn    Zn3+2 0.538360 0.000000 0.000000 1.166788
Zn9   Zn    Zn3+2 0.000000 0.000000 0.538360 1.166876
Zn10  Zn    Zn3+2 0.000000 0.000000 0.461640 1.166941
Zn11  Zn    Zn3+2 0.000000 0.461640 0.000000 1.169741
Zn12  Zn    Zn3+2 0.000000 0.538360 0.000000 1.169984
F1    F     F_    0.055278 0.394102 0.472287 -0.613722
F2    F     F_    0.055594 0.473233 0.393886 -0.611522
F3    F     F_    0.054985 0.605759 0.471788 -0.627535
F4    F     F_    0.055564 0.526659 0.606189 -0.629308
F5    F     F_    0.944945 0.605854 0.528122 -0.627501
F6    F     F_    0.944408 0.527587 0.394210 -0.624215
F7    F     F_    0.944793 0.394197 0.527808 -0.613513
F8    F     F_    0.944450 0.472297 0.605711 -0.605913
F9    F     F_    0.393777 0.472945 0.944438 -0.622280
F10   F     F_    0.472496 0.605667 0.944517 -0.627349
F11   F     F_    0.605973 0.528042 0.944846 -0.622503
F12   F     F_    0.527214 0.393867 0.944651 -0.627722
F13   F     F_    0.606042 0.472009 0.055167 -0.622585
F14   F     F_    0.527050 0.606056 0.055491 -0.627329
F15   F     F_    0.394131 0.527486 0.055600 -0.622041
F16   F     F_    0.471796 0.394275 0.055240 -0.622515
F17   F     F_    0.527710 0.055278 0.605871 -0.613442
F18   F     F_    0.605789 0.055423 0.527476 -0.611268
F19   F     F_    0.527219 0.055337 0.393971 -0.627031
F20   F     F_    0.393927 0.055649 0.472890 -0.624207
F21   F     F_    0.472390 0.944540 0.394329 -0.627359
F22   F     F_    0.605918 0.944521 0.472708 -0.629274
F23   F     F_    0.472254 0.944790 0.605835 -0.613720
F24   F     F_    0.393969 0.944420 0.527174 -0.606240
F25   F     F_    0.555593 0.893876 0.026743 -0.629358
F26   F     F_    0.555214 0.027795 0.894181 -0.613541
F27   F     F_    0.555324 0.106156 0.972514 -0.606316
F28   F     F_    0.555800 0.026247 0.106172 -0.627137
F29   F     F_    0.444567 0.105899 0.027781 -0.624490
F30   F     F_    0.444775 0.972238 0.894119 -0.613667
F31   F     F_    0.444477 0.894227 0.972303 -0.606010
F32   F     F_    0.444217 0.972826 0.105779 -0.621813
F33   F     F_    0.894178 0.027453 0.555447 -0.611284
F34   F     F_    0.027816 0.105812 0.444810 -0.612818
F35   F     F_    0.105751 0.028475 0.445142 -0.611264
F36   F     F_    0.026843 0.893904 0.444201 -0.621933
F37   F     F_    0.105841 0.971619 0.554873 -0.629869
F38   F     F_    0.972243 0.105885 0.555262 -0.613464
F39   F     F_    0.894115 0.972677 0.444552 -0.629497
F40   F     F_    0.973107 0.893971 0.555728 -0.621879
F41   F     F_    0.972554 0.555561 0.105698 -0.627409
F42   F     F_    0.105722 0.555183 0.028376 -0.622314
F43   F     F_    0.026979 0.555435 0.893925 -0.627085
F44   F     F_    0.893981 0.555187 0.971978 -0.622392
F45   F     F_    0.972551 0.444435 0.894343 -0.627481
F46   F     F_    0.106112 0.444712 0.972641 -0.627533
F47   F     F_    0.027114 0.444559 0.106025 -0.627207
F48   F     F_    0.894005 0.444882 0.028046 -0.622399
C193  C     C_3   0.058814 0.321120 0.470762 -0.722975
H1    H     H_    0.071723 0.305447 0.490986 0.237201
H2    H     H_    0.049599 0.303797 0.449836 0.226267
H3    H     H_    0.078469 0.338652 0.459515 0.287722
C194  C     C_3   0.059278 0.472650 0.320942 -0.719948
H4    H     H_    0.072041 0.493145 0.305522 0.238427
H5    H     H_    0.079005 0.461379 0.338400 0.287812
H6    H     H_    0.050291 0.451827 0.303379 0.225497
C195  C     C_3   0.058410 0.678714 0.469970 -0.722751
H7    H     H_    0.048945 0.696141 0.449256 0.224498
H8    H     H_    0.071698 0.694249 0.490059 0.239777
H9    H     H_    0.077825 0.661126 0.458340 0.286167
C196  C     C_3   0.059189 0.527190 0.679137 -0.725626
H10   H     H_    0.071965 0.506682 0.694551 0.237961
H11   H     H_    0.078916 0.538475 0.661708 0.286216
H12   H     H_    0.050166 0.548000 0.696710 0.226544
C197  C     C_3   0.941457 0.678817 0.529837 -0.722812
H13   H     H_    0.950902 0.696286 0.550538 0.224680
H14   H     H_    0.928168 0.694316 0.509727 0.239582
H15   H     H_    0.922048 0.661268 0.541475 0.286133
C198  C     C_3   0.940854 0.531209 0.322797 -0.696878
H16   H     H_    0.943617 0.532844 0.294375 0.217227
H17   H     H_    0.917323 0.515900 0.328605 0.257711
H18   H     H_    0.937116 0.557954 0.332489 0.257717
C199  C     C_3   0.941319 0.321223 0.529435 -0.723540
H19   H     H_    0.928412 0.305511 0.509232 0.237489
H20   H     H_    0.950554 0.303942 0.550375 0.226020
H21   H     H_    0.921658 0.338792 0.540673 0.287675
C200  C     C_3   0.940844 0.468624 0.677117 -0.691719
H22   H     H_    0.943590 0.466967 0.705541 0.216345
H23   H     H_    0.917295 0.483932 0.671300 0.259345
H24   H     H_    0.937153 0.441887 0.667399 0.258813
C201  C     C_3   0.322336 0.470363 0.940922 -0.695566
H25   H     H_    0.293862 0.469455 0.943473 0.217378
H26   H     H_    0.328646 0.485327 0.917300 0.259763
H27   H     H_    0.331420 0.443369 0.937465 0.256483
C202  C     C_3   0.470912 0.678594 0.940755 -0.723764
H28   H     H_    0.491248 0.694063 0.927802 0.239179
H29   H     H_    0.459633 0.660968 0.921179 0.286296
H30   H     H_    0.450036 0.696085 0.949784 0.224773
C203  C     C_3   0.677388 0.530843 0.941166 -0.694857
H31   H     H_    0.705854 0.531952 0.943726 0.216921
H32   H     H_    0.671166 0.516148 0.917332 0.259768
H33   H     H_    0.668110 0.557815 0.938104 0.256655
C204  C     C_3   0.527846 0.320925 0.940950 -0.723052
H34   H     H_    0.507471 0.305625 0.927831 0.239505
H35   H     H_    0.539471 0.338377 0.921446 0.286181
H36   H     H_    0.548473 0.303258 0.950188 0.224854
C205  C     C_3   0.677465 0.469290 0.058861 -0.694855
H37   H     H_    0.705933 0.468218 0.056308 0.216931
H38   H     H_    0.671205 0.483976 0.082694 0.259675
H39   H     H_    0.668254 0.442306 0.061919 0.256762
C206  C     C_3   0.528696 0.679048 0.058720 -0.723525
H40   H     H_    0.508385 0.694801 0.071420 0.239027
H41   H     H_    0.539784 0.661565 0.078522 0.286193
H42   H     H_    0.549705 0.696297 0.049609 0.225426
C207  C     C_3   0.322744 0.530076 0.059620 -0.694924
H43   H     H_    0.294259 0.531107 0.057221 0.216635
H44   H     H_    0.329157 0.515070 0.083194 0.259697
H45   H     H_    0.331906 0.557036 0.063050 0.256900
C208  C     C_3   0.467874 0.322869 0.058642 -0.694890
H46   H     H_    0.465986 0.294476 0.055731 0.216659
H47   H     H_    0.483012 0.328464 0.082349 0.259460
H48   H     H_    0.441181 0.332783 0.062150 0.256796
C209  C     C_3   0.529274 0.058814 0.678849 -0.723123
H49   H     H_    0.550216 0.049600 0.696149 0.226266
H50   H     H_    0.540501 0.078469 0.661306 0.287720
H51   H     H_    0.509049 0.071721 0.694542 0.237181
C210  C     C_3   0.678754 0.058949 0.529109 -0.720310
H52   H     H_    0.696086 0.049867 0.550080 0.225419
H53   H     H_    0.694407 0.071760 0.508822 0.238225
H54   H     H_    0.661177 0.078652 0.540264 0.287788
C211  C     C_3   0.528885 0.058510 0.320987 -0.723126
H55   H     H_    0.508605 0.071296 0.305278 0.238979
H56   H     H_    0.540057 0.078267 0.338477 0.286230
H57   H     H_    0.549848 0.049309 0.303700 0.225519
C212  C     C_3   0.322507 0.059478 0.470398 -0.697507
H58   H     H_    0.294020 0.057061 0.469533 0.217399
H59   H     H_    0.328949 0.083047 0.485420 0.257960
H60   H     H_    0.331541 0.062937 0.443400 0.257556
C213  C     C_3   0.470779 0.940735 0.321401 -0.723369
H61   H     H_    0.449930 0.949823 0.303924 0.224684
H62   H     H_    0.491080 0.927695 0.305919 0.239363
H63   H     H_    0.459444 0.921214 0.339023 0.286308
C214  C     C_3   0.678894 0.941034 0.471178 -0.726095
H64   H     H_    0.694555 0.928248 0.491491 0.237927
H65   H     H_    0.661365 0.921311 0.460019 0.286160
H66   H     H_    0.696226 0.950115 0.450221 0.226294
C215  C     C_3   0.470670 0.941316 0.678808 -0.723629
H67   H     H_    0.490892 0.928411 0.694496 0.237439
H68   H     H_    0.449733 0.950547 0.696111 0.226005
H69   H     H_    0.459436 0.921653 0.661251 0.287684
C216  C     C_3   0.322550 0.940637 0.529663 -0.692237
H70   H     H_    0.294062 0.943075 0.530528 0.216549
H71   H     H_    0.329002 0.917061 0.514645 0.259776
H72   H     H_    0.331593 0.937176 0.556661 0.258415
C217  C     C_3   0.559252 0.820926 0.027362 -0.726032
H73   H     H_    0.550238 0.803407 0.048187 0.226411
H74   H     H_    0.572031 0.805456 0.006881 0.238039
H75   H     H_    0.578974 0.838382 0.038635 0.286224
C218  C     C_3   0.558710 0.029407 0.821208 -0.723338
H76   H     H_    0.549466 0.050344 0.803928 0.226071
H77   H     H_    0.578360 0.040650 0.838770 0.287714
H78   H     H_    0.571635 0.009204 0.805496 0.237419
C219  C     C_3   0.558825 0.177600 0.969889 -0.691867
H79   H     H_    0.556269 0.206075 0.968997 0.216781
H80   H     H_    0.582558 0.171273 0.984697 0.259750
H81   H     H_    0.562082 0.168509 0.942876 0.258341
C220  C     C_3   0.559463 0.026777 0.179109 -0.723469
H82   H     H_    0.572086 0.006168 0.194515 0.238903
H83   H     H_    0.579268 0.037903 0.161667 0.286366
H84   H     H_    0.550619 0.047659 0.196687 0.225658
C221  C     C_3   0.440548 0.177297 0.030356 -0.697289
H85   H     H_    0.442942 0.205781 0.031339 0.216894
H86   H     H_    0.416866 0.170876 0.015512 0.258138
H87   H     H_    0.437318 0.168164 0.057346 0.257458
C222  C     C_3   0.441264 0.970694 0.821141 -0.723906
H88   H     H_    0.428338 0.990911 0.805470 0.237364
H89   H     H_    0.450505 0.949771 0.803817 0.226088
H90   H     H_    0.421616 0.959438 0.838678 0.287656
C223  C     C_3   0.440903 0.822808 0.968714 -0.691825
H91   H     H_    0.443659 0.794379 0.967097 0.216374
H92   H     H_    0.417351 0.828668 0.983995 0.259259
H93   H     H_    0.437208 0.832457 0.941962 0.258858
C224  C     C_3   0.440635 0.969193 0.177178 -0.694917
H94   H     H_    0.443391 0.967503 0.205598 0.216969
H95   H     H_    0.417214 0.984705 0.171385 0.259174
H96   H     H_    0.436705 0.942491 0.167458 0.257169
C225  C     C_3   0.821211 0.029054 0.558999 -0.720386
H97   H     H_    0.803864 0.050021 0.549925 0.225474
H98   H     H_    0.805571 0.008759 0.571812 0.238156
H99   H     H_    0.838774 0.040211 0.578698 0.287793
C226  C     C_3   0.029431 0.178788 0.441345 -0.722729
H100  H     H_    0.009229 0.194497 0.428433 0.237289
H101  H     H_    0.050365 0.196071 0.450589 0.226177
H102  H     H_    0.040678 0.161223 0.421686 0.287762
C227  C     C_3   0.178720 0.030271 0.441678 -0.719627
H103  H     H_    0.194286 0.010242 0.428315 0.239210
H104  H     H_    0.161134 0.041952 0.422307 0.287706
H105  H     H_    0.196122 0.050968 0.451231 0.224305
C228  C     C_3   0.029312 0.822492 0.440358 -0.695178
H106  H     H_    0.030214 0.794007 0.442780 0.217153
H107  H     H_    0.014171 0.828924 0.416868 0.259541
H108  H     H_    0.056287 0.831529 0.436752 0.256961
C229  C     C_3   0.178812 0.969894 0.558323 -0.725713
H109  H     H_    0.194332 0.989942 0.571684 0.238689
H110  H     H_    0.161261 0.958194 0.577696 0.285961
H111  H     H_    0.196262 0.949217 0.548771 0.225423
C230  C     C_3   0.970702 0.178866 0.558807 -0.723105
H112  H     H_    0.990919 0.194541 0.571727 0.237207
H113  H     H_    0.949777 0.196187 0.549584 0.226227
H114  H     H_    0.959448 0.161330 0.578453 0.287716
C231  C     C_3   0.821142 0.971115 0.441092 -0.726316
H115  H     H_    0.805467 0.991422 0.428307 0.238058
H116  H     H_    0.838684 0.959957 0.421366 0.286115
H117  H     H_    0.803825 0.950153 0.450181 0.226198
C232  C     C_3   0.970564 0.822565 0.559486 -0.695199
H118  H     H_    0.969621 0.794083 0.557026 0.217155
H119  H     H_    0.985716 0.828957 0.582982 0.259653
H120  H     H_    0.943600 0.831672 0.563108 0.256814
C233  C     C_3   0.970985 0.559353 0.178628 -0.723623
H121  H     H_    0.950107 0.550344 0.196093 0.224634
H122  H     H_    0.991324 0.572297 0.194126 0.239349
H123  H     H_    0.959712 0.578934 0.161013 0.286288
C234  C     C_3   0.177131 0.558585 0.032330 -0.694234
H124  H     H_    0.205524 0.555663 0.034239 0.216669
H125  H     H_    0.171544 0.582326 0.017257 0.259340
H126  H     H_    0.167214 0.562039 0.059023 0.257028
C235  C     C_3   0.028579 0.558593 0.820939 -0.723055
H127  H     H_    0.008243 0.571279 0.805221 0.239021
H128  H     H_    0.039666 0.578410 0.838415 0.286212
H129  H     H_    0.049581 0.549470 0.803657 0.225483
C236  C     C_3   0.822560 0.558911 0.969225 -0.694827
H130  H     H_    0.794093 0.556371 0.968143 0.216913
H131  H     H_    0.828805 0.582747 0.983905 0.259719
H132  H     H_    0.831795 0.561956 0.942245 0.256745
C237  C     C_3   0.970928 0.440602 0.821419 -0.723806
H133  H     H_    0.950027 0.449604 0.803959 0.224784
H134  H     H_    0.991269 0.427646 0.805919 0.239183
H135  H     H_    0.959688 0.421034 0.839050 0.286275
C238  C     C_3   0.179057 0.441030 0.971988 -0.722911
H136  H     H_    0.196713 0.450321 0.951397 0.224728
H137  H     H_    0.194366 0.427857 0.992321 0.239660
H138  H     H_    0.161599 0.421555 0.960294 0.286168
C239  C     C_3   0.028784 0.441361 0.179007 -0.723433
H139  H     H_    0.049782 0.450477 0.196289 0.225497
H140  H     H_    0.008477 0.428656 0.194722 0.238962
H141  H     H_    0.039892 0.421560 0.161512 0.286202
C240  C     C_3   0.822588 0.441232 0.030816 -0.694726
H142  H     H_    0.794121 0.443806 0.031914 0.216916
H143  H     H_    0.828825 0.417390 0.016132 0.259767
H144  H     H_    0.831843 0.438175 0.057792 0.256692

loop_
_geom_bond_atom_site_label_1
_geom_bond_atom_site_label_2
_ccdc_geom_bond_type
C195  H7    S    
C36   F12   S    
O30   Zn8   S    
O40   Zn10  S    
C220  H82   S    
C186  N1    A    
C120  C144  A    
C39   C87   A    
C92   C212  S    
C64   C164  A    
O36   Zn9   S    
C106  C226  S    
C215  H67   S    
C240  H144  S    
N19   N28   A    
C79   C121  A    
O39   Zn10  S    
C205  H38   S    
C223  H93   S    
C91   C131  A    
C175  N48   A    
C222  H90   S    
C89   C129  A    
C185  N22   A    
C212  H58   S    
C21   O41   A    
C191  N4    A    
C226  H101  S    
C200  H24   S    
C11   C154  S    
C81   C201  S    
C189  N2    A    
C91   C211  S    
C64   F40   S    
C9    C156  S    
C31   F7    S    
C218  H77   S    
C66   F42   S    
C117  C237  S    
N18   N39   A    
C177  N30   A    
C66   C114  A    
C13   C160  S    
C44   C92   A    
C111  C231  S    
C198  H18   S    
C221  H86   S    
C206  H41   S    
C209  H50   S    
N17   N30   A    
C110  C230  S    
N1    N38   A    
C27   C75   A    
C194  H5    S    
C115  C143  A    
C196  H12   S    
C53   C159  A    
C50   C98   A    
O47   Zn12  S    
C6    O10   A    
N12   N27   A    
C110  C138  A    
C199  H21   S    
C235  H128  S    
O2    Zn1   S    
C47   C153  A    
C223  H91   S    
C20   C163  S    
O26   Zn7   S    
C82   C202  S    
C19   C162  S    
C44   C156  A    
C219  H81   S    
C20   O36   A    
C222  H89   S    
C17   C164  S    
C32   C80   A    
C131  C184  S    
C227  H104  S    
C214  H66   S    
O48   Zn12  S    
C12   O22   A    
C68   C116  A    
C42   C154  A    
C46   F22   S    
C195  H9    S    
C73   C121  A    
C239  H140  S    
C201  H25   S    
C119  C141  A    
C220  H84   S    
C186  N7    A    
C207  H45   S    
C58   C162  A    
C173  N42   A    
C111  C137  A    
C122  C189  S    
N5    N40   A    
C67   C167  A    
C63   C161  A    
C48   C96   A    
C38   F14   S    
C65   C113  A    
N10   N31   A    
C17   O33   A    
N4    N43   A    
C204  H34   S    
C103  C223  S    
O44   Zn11  S    
C71   C119  A    
O12   Zn3   S    
C40   C88   A    
C62   F38   S    
N11   N44   A    
C225  H98   S    
C33   C149  A    
C197  H13   S    
O38   Zn10  S    
O7    Zn2   S    
C212  H60   S    
O23   Zn6   S    
C14   O32   A    
C134  C177  S    
C33   F9    S    
C217  H73   S    
C43   C91   A    
C216  H71   S    
O1    Zn1   S    
C31   C145  A    
O43   Zn11  S    
O4    Zn1   S    
C57   C161  A    
C171  N36   A    
C169  N34   A    
C1    O5    A    
C234  H125  S    
C208  H46   S    
C207  H43   S    
C52   C160  A    
C124  C191  S    
O35   Zn9   S    
C63   F39   S    
C202  H29   S    
O3    Zn1   S    
C41   C89   A    
C193  H1    S    
C217  H75   S    
C192  N13   A    
C112  C140  A    
C97   C133  A    
C45   C93   A    
C238  H138  S    
C206  H40   S    
C35   C151  A    
C70   F46   S    
C221  H85   S    
C50   C158  A    
C94   C130  A    
C21   C168  S    
C101  C221  S    
C38   C86   A    
C92   C132  A    
C20   O38   A    
C143  C172  S    
C68   F44   S    
N21   N32   A    
C54   C158  A    
O9    Zn3   S    
C140  C171  S    
C40   C152  A    
C5    O13   A    
C236  H130  S    
C26   C146  A    
C116  C144  A    
N20   N35   A    
C53   F29   S    
C176  N27   A    
C203  H33   S    
C230  H113  S    
C109  C229  S    
C67   F43   S    
C197  H15   S    
C231  H115  S    
C138  C169  S    
C63   C111  A    
C72   C168  A    
C49   C157  A    
C128  C183  S    
C79   C199  S    
C210  H53   S    
O42   Zn11  S    
N24   N37   A    
C142  C173  S    
C41   C153  A    
C101  C135  A    
N14   N25   A    
C170  N41   A    
C24   O46   A    
C180  N37   A    
C232  H119  S    
C76   C124  A    
C24   C167  S    
C71   F47   S    
C191  N8    A    
C15   C158  S    
C22   O42   A    
O34   Zn9   S    
C36   C152  A    
C29   F5    S    
C180  N35   A    
C35   F11   S    
C52   C100  A    
C118  C238  S    
C59   C107  A    
C7    O11   A    
C42   C90   A    
N13   N48   A    
C119  C239  S    
C227  H103  S    
C56   F32   S    
C13   O29   A    
C7    C150  S    
C2    O2    A    
C46   C94   A    
C72   C120  A    
C226  H100  S    
C43   F19   S    
C44   F20   S    
C208  H48   S    
O27   Zn7   S    
C228  H107  S    
C22   O48   A    
C68   C168  A    
C193  H3    S    
O45   Zn12  S    
C182  N23   A    
C229  H111  S    
C206  H42   S    
C184  N19   A    
C203  H32   S    
C213  H63   S    
C187  N24   A    
C8    O12   A    
C104  C136  A    
C81   C125  A    
C174  N31   A    
C83   C127  A    
N6    N41   A    
C16   O30   A    
C23   O43   A    
C240  H143  S    
C39   C149  A    
C179  N32   A    
C135  C176  S    
C237  H134  S    
C181  N14   A    
C205  H37   S    
C69   C117  A    
O18   Zn5   S    
C51   F27   S    
C70   C118  A    
C47   F23   S    
C60   C164  A    
C113  C141  A    
C74   C194  S    
C25   C73   A    
C50   F26   S    
N7    N34   A    
O33   Zn9   S    
C200  H23   S    
C59   C163  A    
C90   C210  S    
C105  C137  A    
O37   Zn10  S    
C190  N15   A    
C29   C77   A    
C218  H76   S    
C71   C165  A    
C237  H135  S    
C126  C181  S    
C34   C82   A    
C229  H109  S    
C224  H96   S    
C4    O4    A    
C17   O37   A    
C100  C136  A    
C18   O34   A    
C19   O39   A    
C170  N47   A    
C84   C128  A    
C209  H49   S    
C52   F28   S    
C9    O17   A    
C220  H83   S    
C100  C220  S    
O16   Zn4   S    
C99   C219  S    
C194  H4    S    
C34   C150  A    
C130  C185  S    
N9    N46   A    
C2    C145  S    
C196  H11   S    
C136  C179  S    
C211  H55   S    
O24   Zn6   S    
C183  N12   A    
C120  C240  S    
C34   F10   S    
C227  H105  S    
C15   O27   A    
C199  H20   S    
C233  H121  S    
O14   Zn4   S    
C221  H87   S    
C78   C198  S    
C86   C126  A    
C211  H56   S    
C86   C206  S    
C65   C165  A    
O25   Zn7   S    
C226  H102  S    
C169  N38   A    
C10   C153  S    
C123  C188  S    
C219  H80   S    
N22   N33   A    
C2    O8    A    
C108  C228  S    
C82   C126  A    
C178  N33   A    
C121  C186  S    
O6    Zn2   S    
C137  C178  S    
C188  N3    A    
C53   C101  A    
C214  H65   S    
O22   Zn6   S    
C57   F33   S    
C65   F41   S    
C125  C190  S    
C60   C108  A    
O17   Zn5   S    
C235  H127  S    
C88   C208  S    
C215  H68   S    
C48   C156  A    
C39   F15   S    
C195  H8    S    
C239  H139  S    
C212  H59   S    
C228  H108  S    
C3    O7    A    
C43   C155  A    
C132  C187  S    
C93   C213  S    
C223  H92   S    
C46   C154  A    
C114  C234  S    
C201  H26   S    
C83   C203  S    
C28   C148  A    
C14   C157  S    
O11   Zn3   S    
C5    O9    A    
C56   C104  A    
C87   C207  S    
C205  H39   S    
C75   C195  S    
C35   C83   A    
C213  H61   S    
C4    C147  S    
C48   F24   S    
N8    N45   A    
C69   C167  A    
C225  H97   S    
C77   C123  A    
C26   F2    S    
C76   C196  S    
C41   F17   S    
C218  H78   S    
C6    O16   A    
C4    O6    A    
O32   Zn8   S    
C18   O40   A    
C74   C122  A    
C209  H51   S    
O13   Zn4   S    
C224  H95   S    
C28   C76   A    
C194  H6    S    
C233  H122  S    
C202  H28   S    
C80   C124  A    
C172  N43   A    
C32   F8    S    
C115  C235  S    
C233  H123  S    
C7    O15   A    
C54   F30   S    
C54   C102  A    
C216  H72   S    
C13   O25   A    
C29   C147  A    
C235  H129  S    
C204  H36   S    
C32   C148  A    
O5    Zn2   S    
C42   F18   S    
C230  H114  S    
C197  H14   S    
C178  N39   A    
C49   F25   S    
C30   F6    S    
C188  N5    A    
C69   F45   S    
C97   C217  S    
C141  C170  S    
C18   C161  S    
C192  N11   A    
C80   C200  S    
C49   C97   A    
C90   C130  A    
C55   C157  A    
C187  N20   A    
O19   Zn5   S    
C56   C160  A    
C175  N44   A    
C239  H141  S    
C85   C205  S    
C95   C129  A    
C185  N18   A    
C95   C215  S    
C93   C131  A    
C21   O45   A    
C98   C218  S    
C11   O19   A    
C23   O47   A    
C189  N6    A    
C57   C105  A    
C25   F1    S    
C179  N28   A    
C181  N10   A    
C113  C233  S    
C177  N26   A    
C61   C109  A    
O41   Zn11  S    
C210  H52   S    
C216  H70   S    
C77   C197  S    
C204  H35   S    
C232  H118  S    
C5    C152  S    
N3    N36   A    
C75   C123  A    
C114  C142  A    
C37   C85   A    
C117  C143  A    
C84   C204  S    
C234  H124  S    
C225  H99   S    
C231  H117  S    
C70   C166  A    
C45   F21   S    
C106  C138  A    
C207  H44   S    
C55   C103  A    
N16   N29   A    
C230  H112  S    
C27   F3    S    
C217  H74   S    
C67   C115  A    
C60   F36   S    
O29   Zn8   S    
C139  C180  S    
C238  H137  S    
C22   C165  S    
C96   C216  S    
C28   F4    S    
C24   O44   A    
C9    O21   A    
C10   O18   A    
C102  C222  S    
C89   C209  S    
C45   C155  A    
C73   C193  S    
N2    N47   A    
C208  H47   S    
C228  H106  S    
C211  H57   S    
C96   C132  A    
C202  H30   S    
C172  N45   A    
C193  H2    S    
C61   F37   S    
O21   Zn6   S    
C16   C159  S    
C107  C139  A    
C183  N16   A    
C6    C149  S    
O46   Zn12  S    
C37   C151  A    
C15   O31   A    
C105  C225  S    
C30   C146  A    
C213  H62   S    
C51   C99   A    
C19   O35   A    
C104  C224  S    
C107  C227  S    
C176  N29   A    
C66   C166  A    
C99   C135  A    
C8    C151  S    
C108  C140  A    
C173  N46   A    
C224  H94   S    
C182  N17   A    
C37   F13   S    
O10   Zn3   S    
C58   C106  A    
C102  C134  A    
O15   Zn4   S    
C40   F16   S    
C201  H27   S    
C23   C166  S    
C62   C110  A    
C240  H142  S    
C129  C182  S    
C238  H136  S    
C222  H88   S    
C112  C232  S    
C174  N25   A    
C3    O3    A    
C200  H22   S    
C16   O28   A    
C1    O1    A    
C236  H131  S    
C214  H64   S    
C11   O23   A    
C231  H116  S    
C85   C127  A    
C12   C155  S    
C87   C125  A    
C210  H54   S    
C198  H16   S    
C133  C174  S    
C171  N40   A    
C232  H120  S    
N23   N26   A    
C61   C163  A    
C118  C142  A    
C190  N9    A    
C31   C79   A    
C196  H10   S    
C98   C134  A    
C127  C192  S    
O8    Zn2   S    
C109  C139  A    
C234  H126  S    
C55   F31   S    
O28   Zn7   S    
C229  H110  S    
C103  C133  A    
C88   C128  A    
C199  H19   S    
C64   C112  A    
C184  N21   A    
C203  H31   S    
C36   C84   A    
C72   F48   S    
C144  C175  S    
C51   C159  A    
C26   C74   A    
C215  H69   S    
C10   O24   A    
C62   C162  A    
C219  H79   S    
C78   C122  A    
C236  H132  S    
O31   Zn8   S    
C58   F34   S    
C30   C78   A    
C8    O14   A    
O20   Zn5   S    
C3    C146  S    
C27   C147  A    
C116  C236  S    
C59   F35   S    
C47   C95   A    
C1    C148  S    
C25   C145  A    
C12   O20   A    
C198  H17   S    
C237  H133  S    
C33   C81   A    
C38   C150  A    
C14   O26   A    
N15   N42   A    
C94   C214  S    
