data_mof_unit_34745.cif
_audit_creation_date              2013-03-05T16:19:19-0500
_audit_creation_method            fapswitch 2.2
_symmetry_space_group_name_H-M    P1
_symmetry_Int_Tables_number       1
_space_group_crystal_system       triclinic
_cell_length_a                    10.997308
_cell_length_b                    10.06899
_cell_length_c                    22.872173
_cell_angle_alpha                 88.495666
_cell_angle_beta                  90.646921
_cell_angle_gamma                 91.626155
_cell_volume                      2530.6430332

loop_
_atom_site_label
_atom_site_type_symbol
_atom_site_description
_atom_site_fract_x
_atom_site_fract_y
_atom_site_fract_z
_atom_type_partial_charge
O1    O     O_R   0.314910 0.616040 0.499990 -0.555068
O2    O     O_R   0.314910 0.383960 0.499990 -0.539543
C1    C     C_R   0.255582 0.497688 0.495799 0.899805
O3    O     O_R   0.500080 0.616070 0.416130 -0.607583
O4    O     O_R   0.500080 0.383930 0.416130 -0.615405
C2    C     C_R   0.504425 0.501899 0.389522 0.872663
Zn1   Zn    Zn3+2 0.500150 0.654960 0.499970 1.007501
Zn2   Zn    Zn3+2 0.500150 0.345040 0.499970 1.011605
O5    O     O_R   0.685320 0.616040 0.499970 -0.646972
O6    O     O_R   0.685320 0.383960 0.499970 -0.639210
O7    O     O_R   0.500150 0.616010 0.583820 -0.583465
O8    O     O_R   0.500150 0.383990 0.583820 -0.573955
C3    C     C_R   0.739444 0.502330 0.499939 0.847120
C4    C     C_R   0.500996 0.498579 0.610475 0.970788
C5    C     C_R   0.684124 0.414845 0.880123 0.590247
N1    N     N_R   0.643228 0.522606 0.848818 -0.345649
C6    C     C_R   0.621869 0.640026 0.875118 0.564459
C7    C     C_R   0.629586 0.648211 0.935980 -0.070433
C8    C     C_R   0.667645 0.537221 0.969190 -0.009507
C9    C     C_R   0.701582 0.421957 0.940743 -0.078460
C10   C     C_R   0.592222 0.761497 0.964064 -0.173125
C11   C     C_R   0.582905 0.762575 0.024808 0.334569
C12   C     C_R   0.620537 0.650698 0.059011 -0.119081
C13   C     C_R   0.666573 0.539202 0.030771 -0.074353
C14   C     C_R   0.706898 0.427366 0.063725 -0.117714
C15   C     C_R   0.757722 0.319645 0.034341 0.336131
C16   C     C_R   0.749143 0.315661 0.973372 -0.165985
C17   C     C_R   0.611674 0.644428 0.120306 0.565848
N2    N     N_R   0.638736 0.530232 0.150799 -0.367714
C18   C     C_R   0.687054 0.423883 0.124403 0.567288
O9    O     O_2   0.703795 0.300086 0.853012 -0.505816
O10   O     O_2   0.588994 0.747008 0.842441 -0.513166
H1    H     H_    0.561061 0.846668 0.938728 0.225793
O11   O     O_2   0.574222 0.750084 0.149567 -0.463281
O12   O     O_2   0.711091 0.313729 0.156827 -0.462903
H2    H     H_    0.782874 0.230298 0.951395 0.227958
C19   C     C_R   0.661739 0.606111 0.251397 -0.044896
H3    H     H_    0.731283 0.677982 0.237418 0.178414
C20   C     C_R   0.624511 0.602099 0.309186 -0.196209
H4    H     H_    0.667341 0.670137 0.339617 0.157517
C21   C     C_R   0.535212 0.508667 0.327907 -0.033242
C22   C     C_R   0.483667 0.418697 0.288526 -0.171207
H5    H     H_    0.415478 0.345480 0.302646 0.190324
C23   C     C_R   0.518678 0.425205 0.230164 -0.061003
H6    H     H_    0.475944 0.358238 0.199325 0.178397
C24   C     C_R   0.607848 0.519018 0.211434 0.253572
C25   C     C_R   0.483314 0.521004 0.774160 -0.173803
H7    H     H_    0.418777 0.537745 0.808450 0.199465
C26   C     C_R   0.444156 0.520543 0.715791 0.289173
C27   C     C_R   0.530451 0.496988 0.672411 -0.180400
C28   C     C_R   0.652778 0.479461 0.687572 -0.306871
H8    H     H_    0.718710 0.463842 0.653897 0.153110
C29   C     C_R   0.692245 0.488796 0.745251 0.263858
C30   C     C_R   0.606752 0.508493 0.788988 0.165835
C31   C     C_3   0.062634 0.636688 0.476792 0.035350
C32   C     C_3   0.060892 0.465894 0.556942 0.041685
H9    H     H_    0.106582 0.701941 0.507937 0.239630
H10   H     H_    0.081198 0.556972 0.582300 0.181999
C33   C     C_3   0.926338 0.647825 0.491147 -0.444339
C34   C     C_3   0.922000 0.445955 0.554887 -0.444446
H11   H     H_    0.914746 0.702322 0.532472 0.197046
H12   H     H_    0.883218 0.496028 0.592935 0.160522
H13   H     H_    0.876996 0.706014 0.456871 0.217731
H14   H     H_    0.894153 0.339345 0.559214 0.227760
H15   H     H_    0.893071 0.496815 0.403784 0.190639
H16   H     H_    0.847031 0.344660 0.433395 0.194563
C35   C     C_3   0.043262 0.392157 0.447942 0.342824
C36   C     C_3   0.112465 0.492754 0.492842 -0.180043
C37   C     C_3   0.871651 0.506422 0.497434 0.028355
C38   C     C_3   0.908720 0.431063 0.442822 -0.425761
C39   C     C_3   0.377198 0.079391 0.489094 0.362815
C40   C     C_3   0.383554 0.921540 0.476059 0.362349
H17   H     H_    0.550603 0.107337 0.408450 0.197354
H18   H     H_    0.606376 0.877688 0.418802 0.192936
C41   C     C_3   0.582675 0.083846 0.453527 -0.341816
C42   C     C_3   0.598596 0.925660 0.461528 -0.324162
C43   C     C_3   0.552422 0.075538 0.554069 -0.265732
C44   C     C_3   0.528841 0.918612 0.557461 -0.289196
N3    N     N_3   0.499750 0.138610 0.498760 -0.115231
N4    N     N_3   0.499750 0.861390 0.498760 -0.119052
H19   H     H_    0.652596 0.096084 0.556276 0.166183
H20   H     H_    0.611150 0.870953 0.576208 0.178159
H21   H     H_    0.524473 0.120390 0.595070 0.225762
H22   H     H_    0.457229 0.894896 0.589794 0.241286
H23   H     H_    0.673749 0.134408 0.456283 0.201838
H24   H     H_    0.689619 0.907407 0.481684 0.185728
N5    N     N_R   0.318919 0.546695 0.701868 0.217666
O13   O     O_R   0.289738 0.610030 0.653670 -0.357555
O14   O     O_R   0.235093 0.522860 0.740785 -0.326884
I1    I     I_    0.882062 0.484612 0.762430 -0.132995
I2    I     I_    0.078061 0.716030 0.387235 -0.182226
I3    I     I_    0.126361 0.326701 0.620638 -0.032485
I4    I     I_    0.100444 0.388633 0.356926 -0.216735
I5    I     I_    0.019228 0.185864 0.475350 -0.169859
I6    I     I_    0.304996 0.173867 0.412204 -0.168928
I7    I     I_    0.370932 0.864741 0.381805 -0.167599
N6    N     N_R   0.525131 0.873395 0.049792 0.257024
O15   O     O_R   0.418068 0.855817 0.072871 -0.286863
O16   O     O_R   0.562620 0.993633 0.035827 -0.316885
N7    N     N_R   0.302120 0.111911 0.541122 0.231623
O17   O     O_R   0.196678 0.058435 0.553450 -0.253358
O18   O     O_R   0.342073 0.198926 0.577772 -0.348413
N8    N     N_R   0.274923 0.860914 0.501151 0.209756
O19   O     O_R   0.272748 0.818846 0.555552 -0.343262
O20   O     O_R   0.173691 0.898585 0.476697 -0.354967
N9    N     N_R   0.823022 0.217075 0.064963 0.259508
O21   O     O_R   0.910870 0.249685 0.100872 -0.287895
O22   O     O_R   0.813852 0.094991 0.047781 -0.306829

loop_
_geom_bond_atom_site_label_1
_geom_bond_atom_site_label_2
_geom_bond_distance
_ccdc_geom_bond_type
N5    O13   1.300630 A    
C31   C33   1.545839 S    
C7    C10   1.397721 A    
C21   C22   1.398387 A    
C26   N5    1.440101 S    
C1    C36   1.574013 S    
C15   N9    1.437229 S    
C39   N3    1.474932 S    
N6    O15   1.301365 A    
C25   C26   1.398206 A    
C4    C27   1.449391 S    
C43   C44   1.593965 S    
Zn1   O7    1.947405 S    
C15   C16   1.398166 A    
N2    C18   1.366375 A    
H18   C42   1.106630 S    
C18   O12   1.348730 S    
C17   N2    1.367382 A    
O4    C2    1.320253 A    
O7    C4    1.316246 A    
C44   N4    1.502467 S    
C39   I6    2.133484 S    
N9    O21   1.301524 A    
C43   H21   1.102036 S    
H15   C38   1.112271 S    
C40   N4    1.510537 S    
C34   H12   1.112224 S    
C7    C8    1.405655 A    
O5    C3    1.305338 A    
C31   I2    2.185648 S    
C41   H23   1.112490 S    
C8    C9    1.406865 A    
N1    C6    1.367887 A    
C2    C21   1.452497 S    
C35   I5    2.163707 S    
C12   C13   1.418298 A    
C10   H1    1.083877 S    
N9    O22   1.301206 A    
C17   O11   1.348253 S    
C11   N6    1.434310 S    
C10   C11   1.394633 A    
H17   C41   1.107722 S    
C22   C23   1.392836 A    
O3    Zn1   1.967210 S    
N6    O16   1.300789 A    
C23   C24   1.404665 A    
C31   C36   1.596266 S    
C43   N3    1.517002 S    
C5    C9    1.401022 A    
C33   H11   1.115659 S    
C28   H8    1.081264 S    
C13   C14   1.417411 A    
C20   C21   1.403108 A    
C20   H4    1.083949 S    
C27   C28   1.400305 A    
C14   C15   1.421859 A    
C32   C36   1.591723 S    
C35   C36   1.628808 S    
C28   C29   1.388850 A    
C41   C42   1.612721 S    
C19   H3    1.082952 S    
Zn2   N3    2.079333 S    
C44   H20   1.112899 S    
C25   H7    1.083296 S    
C43   H19   1.115939 S    
Zn2   O8    1.967580 S    
N7    O18   1.292965 A    
C6    C7    1.398125 A    
N8    O20   1.301874 A    
C12   C17   1.406077 A    
C5    O9    1.349565 S    
C33   C37   1.533666 S    
C25   C30   1.403825 A    
O3    C2    1.317080 A    
C40   N8    1.443907 S    
O8    C4    1.318793 A    
N5    O14   1.301722 A    
C22   H5    1.082456 S    
C42   H24   1.115302 S    
C29   I1    2.121167 S    
C23   H6    1.082848 S    
C14   C18   1.406697 A    
Zn1   O5    2.084629 S    
O1    Zn1   2.063544 S    
O2    Zn2   2.085391 S    
C42   N4    1.509199 S    
O6    C3    1.317020 A    
O4    Zn2   1.947074 S    
C29   C30   1.402219 A    
C9    C16   1.398956 A    
C16   H2    1.083537 S    
C39   N7    1.504320 S    
C33   H13   1.112052 S    
N2    C24   1.432395 S    
C34   H14   1.110103 S    
C35   C38   1.543697 S    
C31   H9    1.082352 S    
C8    C13   1.409348 A    
C39   C40   1.628386 S    
C19   C20   1.387371 A    
H16   C38   1.112054 S    
C3    C37   1.455064 S    
C34   C37   1.537772 S    
N7    O17   1.295400 A    
C32   H10   1.113840 S    
O2    C1    1.334705 A    
C37   C38   1.543052 S    
N1    C30   1.431206 S    
C40   I7    2.246614 S    
C44   H22   1.103340 S    
C32   I3    2.128720 S    
C32   C34   1.535278 S    
Zn2   O6    2.062788 S    
C26   C27   1.409871 A    
N8    O19   1.304076 A    
C35   I4    2.182902 S    
C6    O10   1.350330 S    
C11   C12   1.423060 A    
O1    C1    1.347385 A    
C19   C24   1.398608 A    
C41   N3    1.511910 S    
C5    N1    1.368172 A    
Zn1   N4    2.078129 S    
