data_mof_unit_48670.cif
_audit_creation_date              2012-12-10T16:33:53-0500
_audit_creation_method            fapswitch 2.2
_symmetry_space_group_name_H-M    P1
_symmetry_Int_Tables_number       1
_space_group_crystal_system       triclinic
_cell_length_a                    28.163111
_cell_length_b                    18.50044
_cell_length_c                    17.027854
_cell_angle_alpha                 90.018354
_cell_angle_beta                  60.897753
_cell_angle_gamma                 90.01969
_cell_volume                      7751.95644604

loop_
_atom_site_label
_atom_site_type_symbol
_atom_type_description
_atom_site_fract_x
_atom_site_fract_y
_atom_site_fract_z
_atom_type_partial_charge
C1    C     C_R   0.701153 0.267258 0.676237 0.894297
C2    C     C_R   0.299107 0.733411 0.323667 0.908393
C3    C     C_R   0.299002 0.266868 0.323687 0.911494
C4    C     C_R   0.701000 0.733137 0.676311 0.933141
C5    C     C_R   0.201092 0.767144 0.676271 0.911326
C6    C     C_R   0.799108 0.233417 0.323669 0.933264
C7    C     C_R   0.798946 0.766970 0.323716 0.894760
C8    C     C_R   0.201007 0.233115 0.676308 0.908667
C9    C     C_R   0.015509 0.377116 0.618700 0.132880
C10   C     C_R   0.962423 0.622823 0.477738 0.122298
C11   C     C_R   0.923503 0.372246 0.572137 0.124079
C12   C     C_R   0.025843 0.630706 0.578156 0.128326
C13   C     C_R   0.576385 0.872225 0.428000 0.124350
C14   C     C_R   0.474137 0.130728 0.422115 0.128774
C15   C     C_R   0.484467 0.877154 0.381256 0.133437
C16   C     C_R   0.537528 0.122781 0.522564 0.121887
C17   C     C_R   0.720626 0.264518 0.953427 0.050617
C18   C     C_R   0.278519 0.734205 0.047793 0.066375
C19   C     C_R   0.279236 0.264406 0.046933 0.021771
C20   C     C_R   0.720628 0.735756 0.953219 0.021248
C21   C     C_R   0.220209 0.763894 0.953861 0.051462
C22   C     C_R   0.778808 0.234629 0.047485 0.065896
C23   C     C_R   0.778835 0.765022 0.047340 0.020654
C24   C     C_R   0.220916 0.235349 0.952908 0.021940
C25   C     C_R   0.731986 0.192275 0.966680 0.112947
C26   C     C_R   0.266306 0.806031 0.036170 0.113024
C27   C     C_R   0.271091 0.192376 0.027820 0.110460
C28   C     C_R   0.728268 0.807795 0.973034 0.110616
C29   C     C_R   0.231785 0.691697 0.966884 0.113294
C30   C     C_R   0.766872 0.306513 0.035537 0.113381
C31   C     C_R   0.771145 0.692980 0.027604 0.110212
C32   C     C_R   0.229068 0.307377 0.972012 0.110355
C33   C     C_R   0.761056 0.178284 0.012648 -0.219084
C34   C     C_R   0.237442 0.820222 0.989623 -0.262831
C35   C     C_R   0.242047 0.178722 0.981682 -0.195451
C36   C     C_R   0.757276 0.821567 0.019205 -0.193420
C37   C     C_R   0.260924 0.677809 0.012774 -0.218552
C38   C     C_R   0.738055 0.320809 0.988937 -0.263540
C39   C     C_R   0.742157 0.679215 0.981407 -0.195628
C40   C     C_R   0.258111 0.321030 0.018148 -0.192544
C41   C     C_R   0.643420 0.326423 0.945695 -0.235796
C42   C     C_R   0.355465 0.671922 0.055767 -0.248541
C43   C     C_R   0.356184 0.326763 0.054799 -0.237476
C44   C     C_R   0.643809 0.673233 0.945222 -0.237087
C45   C     C_R   0.143096 0.825918 0.945953 -0.236249
C46   C     C_R   0.855599 0.172128 0.055624 -0.249880
C47   C     C_R   0.855846 0.827297 0.055073 -0.236911
C48   C     C_R   0.143912 0.173077 0.945113 -0.235577
C49   C     C_R   0.613947 0.342918 0.900305 -0.115359
C50   C     C_R   0.385503 0.656353 0.100414 -0.112102
C51   C     C_R   0.385862 0.343073 0.099921 -0.112201
C52   C     C_R   0.614167 0.656870 0.900059 -0.113737
C53   C     C_R   0.113752 0.842652 0.900423 -0.113019
C54   C     C_R   0.885530 0.156373 0.100390 -0.113637
C55   C     C_R   0.885657 0.843356 0.100049 -0.114591
C56   C     C_R   0.114176 0.156876 0.900054 -0.112251
C57   C     C_R   0.627181 0.309968 0.818841 0.032742
C58   C     C_R   0.372822 0.690109 0.181248 0.035401
C59   C     C_R   0.372898 0.309787 0.181117 0.032977
C60   C     C_R   0.627147 0.690108 0.818840 0.030495
C61   C     C_R   0.127004 0.809753 0.818901 0.033240
C62   C     C_R   0.872800 0.190008 0.181302 0.033025
C63   C     C_R   0.872719 0.810005 0.181177 0.032414
C64   C     C_R   0.127120 0.190215 0.818895 0.032780
C65   C     C_R   0.677396 0.277170 0.772592 -0.047766
C66   C     C_R   0.323049 0.724034 0.227139 -0.069151
C67   C     C_R   0.322918 0.276342 0.227183 -0.056459
C68   C     C_R   0.677094 0.723639 0.772817 -0.060855
C69   C     C_R   0.177177 0.776811 0.772735 -0.055535
C70   C     C_R   0.823069 0.224048 0.227127 -0.074200
C71   C     C_R   0.822708 0.776675 0.227313 -0.048682
C72   C     C_R   0.177123 0.223592 0.772791 -0.055660
C73   C     C_R   0.707892 0.260945 0.816501 -0.261805
C74   C     C_R   0.292856 0.741174 0.182932 -0.204826
C75   C     C_R   0.292659 0.259395 0.183027 -0.249179
C76   C     C_R   0.707302 0.740692 0.817036 -0.250305
C77   C     C_R   0.207516 0.760295 0.816842 -0.253390
C78   C     C_R   0.792968 0.241365 0.182811 -0.204980
C79   C     C_R   0.792304 0.759985 0.183335 -0.257898
C80   C     C_R   0.207440 0.240426 0.816879 -0.250451
C81   C     C_R   0.689436 0.282221 0.905548 0.085637
C82   C     C_R   0.310091 0.717250 0.095185 0.110587
C83   C     C_R   0.310628 0.281734 0.094515 0.082338
C84   C     C_R   0.689320 0.718328 0.905548 0.082813
C85   C     C_R   0.189028 0.781552 0.905924 0.083806
C86   C     C_R   0.810273 0.217536 0.095000 0.111775
C87   C     C_R   0.810223 0.782401 0.094882 0.084006
C88   C     C_R   0.189499 0.218047 0.905363 0.081636
C89   C     C_R   0.692096 0.128647 0.530550 0.898192
C90   C     C_R   0.308673 0.870611 0.464795 0.896420
C91   C     C_R   0.308286 0.129402 0.465981 0.902275
C92   C     C_R   0.697715 0.871837 0.514037 0.910926
C93   C     C_R   0.191711 0.629411 0.534033 0.902479
C94   C     C_R   0.802274 0.371831 0.485996 0.911149
C95   C     C_R   0.807893 0.628635 0.469496 0.898022
C96   C     C_R   0.191328 0.370619 0.535199 0.896148
C97   C     C_R   0.073040 0.101111 0.934780 0.908022
C98   C     C_R   0.926898 0.898965 0.065266 0.905616
C99   C     C_R   0.926802 0.100890 0.065416 0.908105
C100  C     C_R   0.072814 0.898654 0.934980 0.906575
C101  C     C_R   0.573056 0.601085 0.934767 0.906798
C102  C     C_R   0.426965 0.398884 0.065217 0.905983
C103  C     C_R   0.426807 0.600902 0.065414 0.909376
C104  C     C_R   0.572875 0.398726 0.934937 0.906160
C105  C     C_R   0.560976 0.000630 0.462068 -0.082540
C106  C     C_R   0.471005 0.000639 0.432227 -0.086885
C107  C     C_R   0.028969 0.500621 0.567868 -0.086748
C108  C     C_R   0.938961 0.500652 0.538123 -0.082688
C109  C     C_R   0.531255 0.065097 0.473280 0.063121
C110  C     C_R   0.500714 0.935789 0.417431 0.058697
C111  C     C_R   0.491553 0.066454 0.445181 0.065011
C112  C     C_R   0.546637 0.935473 0.432761 0.057259
C113  C     C_R   0.008416 0.566448 0.555017 0.064857
C114  C     C_R   0.953294 0.435479 0.567362 0.056636
C115  C     C_R   0.968698 0.565115 0.526952 0.063158
C116  C     C_R   0.999245 0.435770 0.582624 0.058458
C117  C     C_R   0.634218 0.937894 0.473378 0.051802
C118  C     C_R   0.395868 0.066425 0.431570 0.054192
C119  C     C_R   0.397261 0.935379 0.425799 0.057286
C120  C     C_R   0.615774 0.063206 0.519359 0.065320
C121  C     C_R   0.102733 0.435356 0.574168 0.057589
C122  C     C_R   0.884168 0.563243 0.480871 0.065500
C123  C     C_R   0.865700 0.437930 0.526801 0.051794
C124  C     C_R   0.104120 0.566404 0.568546 0.054012
C125  C     C_R   0.672592 0.937074 0.505539 -0.102281
C126  C     C_R   0.341942 0.065190 0.444843 -0.113472
C127  C     C_R   0.342411 0.935502 0.443149 -0.115619
C128  C     C_R   0.662131 0.063349 0.533082 -0.116801
C129  C     C_R   0.157590 0.435499 0.556823 -0.116460
C130  C     C_R   0.837827 0.563357 0.467082 -0.116653
C131  C     C_R   0.827360 0.437085 0.494583 -0.102316
C132  C     C_R   0.158055 0.565187 0.555199 -0.113396
C133  C     C_R   0.686723 0.999570 0.532478 -0.309383
C134  C     C_R   0.316391 0.000241 0.450455 -0.299865
C135  C     C_R   0.183613 0.500251 0.549529 -0.300801
C136  C     C_R   0.813236 0.499566 0.467659 -0.308320
C137  C     C_R   0.603607 0.000611 0.484776 0.069199
C138  C     C_R   0.421218 0.000788 0.430329 0.071165
C139  C     C_R   0.078769 0.500764 0.569724 0.071412
C140  C     C_R   0.896323 0.500647 0.515430 0.069284
C141  C     C_R   0.068834 0.374557 0.605350 -0.252774
C142  C     C_R   0.920166 0.621762 0.456925 -0.243615
C143  C     C_R   0.876294 0.377377 0.565650 -0.256785
C144  C     C_R   0.072989 0.629932 0.585870 -0.246758
C145  C     C_R   0.623580 0.877328 0.434550 -0.256023
C146  C     C_R   0.427001 0.129964 0.414366 -0.246408
C147  C     C_R   0.431155 0.874595 0.394552 -0.252682
C148  C     C_R   0.579783 0.121712 0.543377 -0.243993
O1    O     O_R   0.746490 0.236330 0.638080 -0.662135
O2    O     O_R   0.253510 0.763670 0.361920 -0.643043
O3    O     O_R   0.253510 0.236330 0.361920 -0.642980
O4    O     O_R   0.746490 0.763670 0.638080 -0.641286
O5    O     O_R   0.246490 0.736330 0.638080 -0.643148
O6    O     O_R   0.753510 0.263670 0.361920 -0.641074
O7    O     O_R   0.753510 0.736330 0.361920 -0.662061
O8    O     O_R   0.246490 0.263670 0.638080 -0.643398
O9    O     O_R   0.674170 0.186160 0.516270 -0.634493
O10   O     O_R   0.325830 0.813840 0.483730 -0.628033
O11   O     O_R   0.325830 0.186160 0.483730 -0.635427
O12   O     O_R   0.674170 0.813840 0.516270 -0.643740
O13   O     O_R   0.174170 0.686160 0.516270 -0.635438
O14   O     O_R   0.825830 0.313840 0.483730 -0.643749
O15   O     O_R   0.825830 0.686160 0.483730 -0.634487
O16   O     O_R   0.174170 0.313840 0.516270 -0.627478
O17   O     O_R   0.739960 0.127620 0.525000 -0.626599
O18   O     O_R   0.260040 0.872380 0.475000 -0.631833
O19   O     O_R   0.260040 0.127620 0.475000 -0.633489
O20   O     O_R   0.739960 0.872380 0.525000 -0.634350
O21   O     O_R   0.239960 0.627620 0.525000 -0.633338
O22   O     O_R   0.760040 0.372380 0.475000 -0.633831
O23   O     O_R   0.760040 0.627620 0.475000 -0.626779
O24   O     O_R   0.239960 0.372380 0.525000 -0.632245
O25   O     O_R   0.680700 0.294870 0.629350 -0.615734
O26   O     O_R   0.319300 0.705130 0.370650 -0.613279
O27   O     O_R   0.319300 0.294870 0.370650 -0.613771
O28   O     O_R   0.680700 0.705130 0.629350 -0.603039
O29   O     O_R   0.180700 0.794870 0.629350 -0.614020
O30   O     O_R   0.819300 0.205130 0.370650 -0.602599
O31   O     O_R   0.819300 0.794870 0.370650 -0.615508
O32   O     O_R   0.180700 0.205130 0.629350 -0.613808
O33   O     O_R   0.062020 0.072840 0.007170 -0.623568
O34   O     O_R   0.937980 0.927160 0.992830 -0.624091
O35   O     O_R   0.937980 0.072840 0.992830 -0.623501
O36   O     O_R   0.062020 0.927160 0.007170 -0.624321
O37   O     O_R   0.562020 0.572840 0.007170 -0.624253
O38   O     O_R   0.437980 0.427160 0.992830 -0.623942
O39   O     O_R   0.437980 0.572840 0.992830 -0.622808
O40   O     O_R   0.562020 0.427160 0.007170 -0.624466
O41   O     O_R   0.947860 0.073950 0.109290 -0.631902
O42   O     O_R   0.052140 0.926050 0.890710 -0.630545
O43   O     O_R   0.052140 0.073950 0.890710 -0.630471
O44   O     O_R   0.947860 0.926050 0.109290 -0.631369
O45   O     O_R   0.447860 0.573950 0.109290 -0.631730
O46   O     O_R   0.552140 0.426050 0.890710 -0.630758
O47   O     O_R   0.552140 0.573950 0.890710 -0.630648
O48   O     O_R   0.447860 0.426050 0.109290 -0.631160
Zn1   Zn    Zn3+2 0.792340 0.208750 0.507670 0.930965
Zn2   Zn    Zn3+2 0.207660 0.791250 0.492330 0.940587
Zn3   Zn    Zn3+2 0.207660 0.208750 0.492330 0.945073
Zn4   Zn    Zn3+2 0.792340 0.791250 0.507670 0.942040
Zn5   Zn    Zn3+2 0.292340 0.708750 0.507670 0.945043
Zn6   Zn    Zn3+2 0.707660 0.291250 0.492330 0.943119
Zn7   Zn    Zn3+2 0.707660 0.708750 0.492330 0.930815
Zn8   Zn    Zn3+2 0.292340 0.291250 0.507670 0.939471
Zn9   Zn    Zn3+2 0.505960 0.500000 0.080520 0.908436
Zn10  Zn    Zn3+2 0.494040 0.500000 0.919480 0.913539
Zn11  Zn    Zn3+2 0.005960 1.000000 0.080520 0.911166
Zn12  Zn    Zn3+2 0.994040 0.000000 0.919480 0.910805
H1    H     H_    0.718698 0.999111 0.550641 0.194071
H2    H     H_    0.274477 0.000065 0.464574 0.199298
H3    H     H_    0.225532 0.500092 0.535378 0.199331
H4    H     H_    0.781278 0.499082 0.449456 0.194278
H5    H     H_    0.080868 0.327919 0.629851 0.169903
H6    H     H_    0.918548 0.665335 0.415978 0.171605
H7    H     H_    0.850395 0.330462 0.587231 0.183272
H8    H     H_    0.083247 0.679003 0.608610 0.177229
H9    H     H_    0.649438 0.830390 0.412993 0.183480
H10   H     H_    0.416763 0.179053 0.391676 0.177184
H11   H     H_    0.419121 0.827970 0.369984 0.170046
H12   H     H_    0.581417 0.165273 0.584358 0.171581
N1    N     N_3   0.976294 0.329121 0.684189 -0.447526
H13   H     H_    0.973273 0.341214 0.746456 0.180122
H14   H     H_    0.991104 0.276261 0.667847 0.187058
N2    N     N_3   0.003041 0.678031 0.437821 -0.450651
H15   H     H_    0.983679 0.728330 0.455310 0.183058
H16   H     H_    0.021145 0.673023 0.367963 0.179530
N3    N     N_3   0.944197 0.301096 0.569647 -0.447521
H17   H     H_    0.951744 0.276522 0.509336 0.184532
H18   H     H_    0.914109 0.270876 0.622286 0.182232
N4    N     N_3   0.992350 0.694141 0.605139 -0.450956
H19   H     H_    0.016457 0.738315 0.569741 0.184820
H20   H     H_    0.979204 0.703093 0.673294 0.176302
N5    N     N_3   0.555656 0.801087 0.430434 -0.447832
H21   H     H_    0.548066 0.776509 0.490750 0.184314
H22   H     H_    0.585740 0.770856 0.377805 0.182245
N6    N     N_3   0.507637 0.194176 0.395226 -0.451007
H23   H     H_    0.483530 0.238335 0.430658 0.184633
H24   H     H_    0.520805 0.203156 0.327074 0.176419
N7    N     N_3   0.523693 0.829186 0.315743 -0.446857
H25   H     H_    0.526753 0.841316 0.253466 0.179708
H26   H     H_    0.508869 0.776321 0.332001 0.186407
N8    N     N_3   0.496916 0.177972 0.562538 -0.450680
H27   H     H_    0.516285 0.228278 0.545104 0.183237
H28   H     H_    0.478811 0.172935 0.632390 0.179253
H29   H     H_    0.729732 0.376414 0.979652 0.149160
H30   H     H_    0.269174 0.622256 0.022396 0.159235
H31   H     H_    0.263741 0.376460 0.032546 0.160487
H32   H     H_    0.736880 0.623780 0.966504 0.157096
H33   H     H_    0.228947 0.875795 0.980554 0.149287
H34   H     H_    0.769130 0.122697 0.022474 0.159333
H35   H     H_    0.762551 0.876997 0.034123 0.160428
H36   H     H_    0.236412 0.123292 0.967287 0.156896
N9    N     N_3   0.712497 0.131860 0.937858 -0.460821
H37   H     H_    0.670663 0.137809 0.963007 0.195635
H38   H     H_    0.731684 0.131489 0.867779 0.181659
N10   N     N_3   0.284429 0.864926 0.069494 -0.462796
H39   H     H_    0.250343 0.894891 0.113724 0.178888
H40   H     H_    0.309085 0.898298 0.015236 0.193241
N11   N     N_3   0.293495 0.132119 0.051507 -0.470975
H41   H     H_    0.335210 0.140600 0.025068 0.194791
H42   H     H_    0.275476 0.129418 0.121425 0.182994
N12   N     N_3   0.705384 0.867902 0.950007 -0.459855
H43   H     H_    0.723207 0.870856 0.880120 0.184534
H44   H     H_    0.663696 0.858978 0.976682 0.194845
N13   N     N_3   0.212439 0.631212 0.937936 -0.460860
H45   H     H_    0.170600 0.637011 0.963048 0.194808
H46   H     H_    0.231650 0.630892 0.867863 0.182250
N14   N     N_3   0.785223 0.365342 0.068598 -0.462470
H47   H     H_    0.751251 0.395571 0.112682 0.179172
H48   H     H_    0.810019 0.398497 0.014179 0.192682
N15   N     N_3   0.793950 0.632849 0.050750 -0.470762
H49   H     H_    0.835636 0.641716 0.024173 0.195517
H50   H     H_    0.776059 0.629911 0.120647 0.182692
N16   N     N_3   0.206659 0.367635 0.948334 -0.460030
H51   H     H_    0.224682 0.370350 0.878416 0.183614
H52   H     H_    0.164946 0.359150 0.974766 0.196145
H53   H     H_    0.631237 0.348887 0.011578 0.159798
H54   H     H_    0.366937 0.648259 0.990727 0.161696
H55   H     H_    0.367865 0.349890 0.989424 0.160986
H56   H     H_    0.632124 0.650124 0.010609 0.159941
H57   H     H_    0.130896 0.848365 0.011849 0.159767
H58   H     H_    0.867113 0.148552 0.990523 0.160493
H59   H     H_    0.867500 0.850462 0.989726 0.161078
H60   H     H_    0.132246 0.149921 0.010467 0.161146
N17   N     N_3   0.590916 0.309974 0.781655 -0.448020
H61   H     H_    0.591168 0.360733 0.754593 0.222184
H62   H     H_    0.551662 0.296603 0.831765 0.179501
N18   N     N_3   0.409231 0.690011 0.218156 -0.453280
H63   H     H_    0.408925 0.639292 0.245347 0.222626
H64   H     H_    0.448469 0.703252 0.167877 0.178887
N19   N     N_3   0.409185 0.310046 0.218260 -0.453112
H65   H     H_    0.408819 0.360822 0.245405 0.222691
H66   H     H_    0.448461 0.296819 0.168117 0.179293
N20   N     N_3   0.590894 0.689728 0.781638 -0.439910
H67   H     H_    0.591339 0.638933 0.754470 0.222281
H68   H     H_    0.551594 0.702899 0.831745 0.184112
N21   N     N_3   0.090820 0.809976 0.781558 -0.452935
H69   H     H_    0.091163 0.860787 0.754543 0.222661
H70   H     H_    0.051527 0.796651 0.831567 0.179028
N22   N     N_3   0.909129 0.189662 0.218358 -0.438342
H71   H     H_    0.908671 0.138898 0.245572 0.221674
H72   H     H_    0.948415 0.202793 0.168162 0.184017
N23   N     N_3   0.909086 0.810054 0.218162 -0.448227
H73   H     H_    0.908807 0.860778 0.245358 0.222223
H74   H     H_    0.948325 0.796782 0.167921 0.179775
N24   N     N_3   0.090789 0.190091 0.781837 -0.454775
H75   H     H_    0.091075 0.139339 0.754701 0.223225
H76   H     H_    0.051539 0.203381 0.832024 0.178984
H77   H     H_    0.746992 0.234413 0.780588 0.158491
H78   H     H_    0.254743 0.770231 0.217772 0.168214
H79   H     H_    0.254042 0.231569 0.218376 0.163259
H80   H     H_    0.745863 0.768666 0.781773 0.163368
H81   H     H_    0.246569 0.733649 0.781003 0.162838
H82   H     H_    0.754889 0.270507 0.217590 0.168216
H83   H     H_    0.753665 0.732200 0.218718 0.159212
H84   H     H_    0.246076 0.268204 0.781502 0.163234

loop_
_geom_bond_atom_site_label_1
_geom_bond_atom_site_label_2
_ccdc_geom_bond_type
C134  H2    S    
N19   H65   S    
C79   C87   A    
C48   H60   S    
N23   H74   S    
C102  O38   A    
C143  H7    S    
O33   Zn11  S    
C13   C112  A    
O7    Zn7   S    
C59   N19   S    
N15   H49   S    
C15   N7    S    
C30   C38   A    
N16   H51   S    
C107  C113  A    
N8    H28   S    
C64   N24   S    
C10   N2    S    
C50   C103  S    
O28   Zn7   S    
C4    O4    A    
C41   C49   A    
C16   C109  A    
O5    Zn5   S    
C52   C101  S    
C61   N21   S    
C57   C65   A    
C20   C28   A    
C27   C35   A    
C38   H29   S    
C21   C29   A    
O26   Zn5   S    
C23   C31   A    
C24   C32   A    
O3    Zn3   S    
C92   O20   A    
N23   H73   S    
C93   O13   A    
C1    O25   A    
N24   H75   S    
N4    H20   S    
C105  C112  A    
C63   C71   A    
C120  C148  A    
N22   H71   S    
C144  H8    S    
C25   N9    S    
C9    C116  A    
C100  O42   A    
N11   H42   S    
C89   O9    A    
C99   O41   A    
C92   O12   A    
C61   C69   A    
C80   H84   S    
C17   C25   A    
C80   C88   A    
C94   O22   A    
C55   C98   S    
C35   H36   S    
C18   C82   S    
O34   Zn12  S    
C33   H34   S    
O22   Zn6   S    
C39   H32   S    
C146  H10   S    
C43   H55   S    
C126  C134  A    
N17   H62   S    
C23   C36   A    
C118  C138  A    
C11   C143  A    
C47   C87   A    
C96   C129  S    
C113  C115  A    
C16   N8    S    
C2    O2    A    
C78   H82   S    
C133  H1    S    
C124  C139  A    
C69   C77   A    
C127  C134  A    
C13   C145  A    
C75   C83   A    
C92   C125  S    
C49   C104  S    
C71   C79   A    
C58   N18   S    
C51   C102  S    
O4    Zn4   S    
O36   Zn11  S    
O13   Zn2   S    
C108  C115  A    
C91   O19   A    
N19   H66   S    
O27   Zn8   S    
C109  C111  A    
N9    H37   S    
O31   Zn4   S    
C66   C74   A    
C49   C57   A    
N6    H23   S    
C124  C132  A    
C52   C60   A    
C59   C67   A    
C129  C135  A    
C53   C61   A    
N10   H40   S    
C95   C130  S    
C1    C65   S    
C56   C64   A    
C93   C132  S    
N5    H21   S    
C99   O35   A    
O16   Zn3   S    
C75   H79   S    
C44   C52   A    
C77   C85   A    
N21   H70   S    
C56   C97   S    
C101  O37   A    
C106  C111  A    
C104  O40   A    
O45   Zn9   S    
O38   Zn10  S    
C131  C136  A    
C4    C68   S    
C57   N17   S    
C96   O16   A    
N18   H64   S    
N1    H13   S    
C89   O17   A    
C145  H9    S    
N7    H26   S    
N13   H46   S    
C60   C68   A    
C47   H59   S    
C42   C50   A    
N3    H18   S    
O30   Zn1   S    
C20   C84   S    
C46   H58   S    
O44   Zn11  S    
C54   C99   S    
C67   C75   A    
N15   H50   S    
C40   H31   S    
C13   N5    S    
C105  C109  A    
C22   C30   A    
C119  C138  A    
C2    C66   S    
C114  C116  A    
N12   H43   S    
C68   C76   A    
C121  C139  A    
C122  C140  A    
C72   C80   A    
O11   Zn8   S    
C44   H56   S    
O47   Zn10  S    
N16   H52   S    
C17   C38   A    
C107  C139  A    
C110  C112  A    
C107  C116  A    
C41   H53   S    
C19   C40   A    
C105  C137  A    
C97   O43   A    
C11   N3    S    
O10   Zn5   S    
C104  O46   A    
C117  C125  A    
C90   O18   A    
C25   C33   A    
C119  C127  A    
C135  H3    S    
C29   N13   S    
N7    H25   S    
C18   C26   A    
N2    H15   S    
C76   C84   A    
C93   O21   A    
N20   H67   S    
C42   H54   S    
C119  C147  A    
C43   C83   A    
C117  C145  A    
C10   C142  A    
C108  C114  A    
O24   Zn8   S    
C5    C69   S    
C76   H80   S    
N24   H76   S    
C90   C127  S    
C48   C88   A    
C1    O1    A    
C73   H77   S    
C91   O11   A    
C6    O30   A    
C15   C110  A    
C79   H83   S    
C74   C82   A    
C14   N6    S    
O6    Zn6   S    
N22   H72   S    
C53   C100  S    
O40   Zn9   S    
C21   C85   S    
C8    C72   S    
C50   C58   A    
C121  C141  A    
C142  H6    S    
C20   C39   A    
C21   C34   A    
C54   C62   A    
C37   H30   S    
N2    H16   S    
O25   Zn6   S    
C98   O34   A    
N17   H61   S    
O17   Zn1   S    
C108  C140  A    
C41   C81   A    
C46   C54   A    
N8    H27   S    
C103  O39   A    
C148  H12   S    
C6    O6    A    
C73   C81   A    
C3    O27   A    
C31   N15   S    
C30   N14   S    
C77   H81   S    
C6    C70   S    
O20   Zn4   S    
C123  C131  A    
C121  C129  A    
C44   C84   A    
C120  C128  A    
C12   N4    S    
C94   C131  S    
C26   N10   S    
C15   C147  A    
C43   C51   A    
O41   Zn11  S    
C28   N12   S    
N6    H24   S    
C34   H33   S    
C17   C81   S    
C22   C86   S    
O23   Zn7   S    
N4    H19   S    
C100  O36   A    
C19   C83   S    
O21   Zn5   S    
C9    N1    S    
C7    O7    A    
N14   H47   S    
C28   C36   A    
C4    O28   A    
C29   C37   A    
C120  C137  A    
C103  O45   A    
C95   O23   A    
O2    Zn2   S    
C101  O47   A    
C89   C128  S    
C63   N23   S    
C91   C126  S    
C70   C78   A    
C62   N22   S    
N21   H69   S    
C42   C82   A    
O18   Zn2   S    
O14   Zn1   S    
C18   C37   A    
C95   O15   A    
C7    C71   S    
C106  C138  A    
C36   H35   S    
C65   C73   A    
O48   Zn9   S    
C11   C114  A    
C8    O32   A    
C26   C34   A    
C60   N20   S    
N3    H17   S    
C19   C27   A    
N13   H45   S    
C94   O14   A    
C78   C86   A    
C64   C72   A    
C136  H4    S    
O35   Zn12  S    
C62   C70   A    
C130  C136  A    
C58   C66   A    
C14   C111  A    
O46   Zn10  S    
C24   C35   A    
C45   H57   S    
O37   Zn9   S    
C118  C146  A    
C147  H11   S    
C98   O44   A    
C141  H5    S    
N9    H38   S    
C9    C141  A    
N12   H44   S    
C117  C137  A    
C123  C140  A    
C12   C144  A    
C55   C63   A    
C90   O10   A    
C45   C85   A    
C74   H78   S    
C24   C88   S    
N10   H39   S    
C7    O31   A    
N5    H22   S    
C5    O29   A    
O42   Zn12  S    
O15   Zn4   S    
O29   Zn2   S    
C51   C59   A    
C122  C142  A    
N11   H41   S    
O8    Zn8   S    
C47   C55   A    
C12   C113  A    
C106  C110  A    
C125  C133  A    
C48   C56   A    
C22   C33   A    
O19   Zn3   S    
C3    C67   S    
N14   H48   S    
C102  O48   A    
C97   O33   A    
C27   N11   S    
C14   C146  A    
C3    O3    A    
C16   C148  A    
N18   H63   S    
N1    H14   S    
O32   Zn3   S    
C128  C133  A    
C2    O26   A    
N20   H68   S    
C132  C135  A    
C5    O5    A    
O39   Zn10  S    
C31   C39   A    
O43   Zn12  S    
C32   C40   A    
C8    O8    A    
C32   N16   S    
C45   C53   A    
O12   Zn7   S    
C96   O24   A    
C123  C143  A    
C124  C144  A    
C23   C87   S    
O9    Zn6   S    
C118  C126  A    
C122  C130  A    
C10   C115  A    
O1    Zn1   S    
C46   C86   A    
