data_mof_unit_56809.cif
_audit_creation_date              2012-12-10T16:54:07-0500
_audit_creation_method            fapswitch 2.2
_symmetry_space_group_name_H-M    P1
_symmetry_Int_Tables_number       1
_space_group_crystal_system       triclinic
_cell_length_a                    9.669538
_cell_length_b                    10.921725
_cell_length_c                    13.524593
_cell_angle_alpha                 90.247027
_cell_angle_beta                  72.888931
_cell_angle_gamma                 90.586516
_cell_volume                      1365.01065558

loop_
_atom_site_label
_atom_site_type_symbol
_atom_type_description
_atom_site_fract_x
_atom_site_fract_y
_atom_site_fract_z
_atom_type_partial_charge
C1    C     C_R   0.500667 0.734985 0.500852 0.884187
C2    C     C_R   0.440414 0.481740 0.976538 0.085183
C3    C     C_R   0.477555 0.455905 0.869297 0.004134
C4    C     C_R   0.544714 0.461785 0.029972 -0.102508
C5    C     C_R   0.690063 0.437105 0.973587 -0.004542
C6    C     C_R   0.722179 0.400539 0.870026 0.474840
C7    C     C_R   0.613710 0.402677 0.821123 -0.296022
C8    C     C_R   0.508081 0.461586 0.138497 0.445301
C9    C     C_R   0.762952 0.469673 0.128816 -0.296474
C10   C     C_R   0.378872 0.487107 0.813321 -0.072085
C11   C     C_2   0.607294 0.068809 0.513608 -0.267767
C12   C     C_R   0.423324 0.492425 0.699565 0.778713
C13   C     C_2   0.490131 0.133524 0.514586 -0.403100
C14   C     C_2   0.601520 0.934865 0.528863 0.538360
C15   C     C_2   0.504320 0.867689 0.497428 -0.415905
C16   C     C_2   0.051606 0.562603 0.565847 -0.034640
C17   C     C_2   0.896944 0.566530 0.563082 -0.008108
C18   C     C_R   0.498128 0.265206 0.502684 0.869320
C19   C     C_R   0.576454 0.494087 0.300366 0.818690
C20   C     C_R   0.798628 0.443324 0.023433 -0.177778
C21   C     C_R   0.617392 0.477260 0.187561 -0.138189
C22   C     C_R   0.240363 0.529456 0.866657 -0.174863
C23   C     C_R   0.204086 0.553801 0.971683 -0.206029
C24   C     C_R   0.304520 0.535481 0.025193 -0.105567
Cu1   Cu    Cu3+1 0.361370 0.499980 0.499980 0.966305
Cu2   Cu    Cu3+1 0.638630 0.500020 0.500020 0.959719
H1    H     H_    0.848639 0.477574 0.165142 0.181821
H2    H     H_    0.384131 0.091028 0.529498 0.153303
H3    H     H_    0.425591 0.909809 0.465784 0.113450
H4    H     H_    0.079304 0.615839 0.625329 0.147105
H5    H     H_    0.129274 0.454332 0.442137 0.204358
H6    H     H_    0.823776 0.627069 0.617376 0.172412
H7    H     H_    0.912939 0.440032 0.452453 0.187616
H8    H     H_    0.911089 0.428638 0.981066 0.191748
H9    H     H_    0.162784 0.551924 0.825956 0.167380
H10   H     H_    0.275560 0.569801 0.103416 0.186131
H11   H     H_    0.100080 0.593419 0.010824 0.145377
H12   H     H_    0.640130 0.363331 0.744660 0.190252
H13   H     H_    0.710744 0.114758 0.503099 0.182764
N1    N     N_2   0.152660 0.501340 0.501130 -0.278412
N2    N     N_2   0.846520 0.501370 0.501160 -0.289622
O1    O     O_R   0.382960 0.678040 0.499980 -0.588994
O2    O     O_R   0.617100 0.678080 0.500020 -0.512103
O3    O     O_R   0.325800 0.499940 0.650950 -0.579397
O4    O     O_R   0.559930 0.499980 0.650990 -0.585183
O5    O     O_R   0.382900 0.321920 0.499980 -0.581063
O6    O     O_R   0.617040 0.321960 0.500020 -0.587347
O7    O     O_R   0.440070 0.500020 0.349010 -0.523507
O8    O     O_R   0.674200 0.500060 0.349050 -0.592035
O9    O     O_3   0.705182 0.876297 0.564380 -0.553792
C25   C     C_3   0.727506 0.938412 0.650234 -0.347630
H14   H     H_    0.623763 0.965965 0.707364 0.156805
H15   H     H_    0.799940 0.019082 0.624798 0.160234
H16   H     H_    0.782466 0.875444 0.690380 0.179575
O10   O     O_3   0.860951 0.366536 0.814829 -0.582352
C26   C     C_3   0.868011 0.237645 0.813275 -0.350452
H17   H     H_    0.796743 0.196818 0.770326 0.151136
H18   H     H_    0.840173 0.199478 0.893029 0.160780
H19   H     H_    0.980686 0.210597 0.772414 0.196287
O11   O     O_3   0.367107 0.435776 0.196685 -0.586573
C27   C     C_3   0.347014 0.307584 0.201632 -0.303263
H20   H     H_    0.235406 0.287087 0.250739 0.179327
H21   H     H_    0.423017 0.262884 0.237886 0.154417
H22   H     H_    0.358754 0.267954 0.123671 0.158274

loop_
_geom_bond_atom_site_label_1
_geom_bond_atom_site_label_2
_ccdc_geom_bond_type
Cu1   O1    S    
C27   H22   S    
C2    C4    A    
O10   C26   S    
C13   H2    S    
C6    C7    A    
C1    C15   S    
C19   O8    A    
C9    C20   A    
C3    C7    A    
C14   C15   D    
C26   H19   S    
C6    O10   S    
C4    C8    A    
C25   H16   S    
H7    N2    S    
C18   O6    A    
O9    C25   S    
Cu1   Cu2   S    
C20   H8    S    
C12   O3    A    
C3    C10   A    
C14   O9    S    
C8    O11   S    
C11   H13   S    
C22   H9    S    
C11   C13   D    
Cu1   O7    S    
C9    C21   A    
C24   H10   S    
C10   C12   S    
C13   C18   S    
C16   N1    D    
C5    C6    A    
C18   O5    A    
Cu1   O3    S    
C19   C21   S    
C7    H12   S    
C26   H18   S    
Cu2   O2    S    
C15   H3    S    
C2    C3    A    
C5    C20   A    
Cu1   N1    S    
C2    C24   A    
C27   H20   S    
C11   C14   S    
C17   N2    D    
C16   C17   S    
C23   C24   A    
C16   H4    S    
C25   H14   S    
C1    O1    A    
C26   H17   S    
C9    H1    S    
Cu2   O8    S    
C27   H21   S    
C17   H6    S    
Cu2   O6    S    
C22   C23   A    
C4    C5    A    
C19   O7    A    
Cu2   O4    S    
C12   O4    A    
H5    N1    S    
C23   H11   S    
Cu1   O5    S    
C1    O2    A    
C10   C22   A    
Cu2   N2    S    
O11   C27   S    
C25   H15   S    
C8    C21   A    
