data_mof_unit_56239.cif
_audit_creation_date              2012-12-10T19:12:18-0500
_audit_creation_method            fapswitch 2.2
_symmetry_space_group_name_H-M    P1
_symmetry_Int_Tables_number       1
_space_group_crystal_system       triclinic
_cell_length_a                    7.783748
_cell_length_b                    9.094489
_cell_length_c                    17.151557
_cell_angle_alpha                 89.600084
_cell_angle_beta                  93.380385
_cell_angle_gamma                 89.98719
_cell_volume                      1212.00288639

loop_
_atom_site_label
_atom_site_type_symbol
_atom_type_description
_atom_site_fract_x
_atom_site_fract_y
_atom_site_fract_z
_atom_type_partial_charge
C1    C     C_R   0.499992 0.220022 0.500030 0.834277
C2    C     C_R   0.500006 0.779980 0.499988 0.848478
C3    C     C_R   0.519905 0.495715 0.651431 0.818133
C4    C     C_R   0.479845 0.503308 0.348900 0.835593
C5    C     C_R   0.528537 0.492869 0.737597 -0.124382
C6    C     C_R   0.470183 0.502176 0.263401 -0.093545
C7    C     C_R   0.377603 0.491216 0.779870 0.217351
C8    C     C_R   0.599529 0.568120 0.220797 0.204568
C9    C     C_R   0.391660 0.501860 0.860989 -0.274902
C10   C     C_R   0.587262 0.562145 0.139430 -0.293277
C11   C     C_R   0.553602 0.503881 0.901946 0.276706
C12   C     C_R   0.450517 0.486895 0.099731 0.324369
C13   C     C_R   0.703337 0.499010 0.860163 0.243178
C14   C     C_R   0.321802 0.421558 0.142437 0.249824
C15   C     C_R   0.689995 0.495109 0.778647 -0.299213
C16   C     C_R   0.331156 0.431542 0.223846 -0.367062
C17   C     C_1   0.500002 0.065374 0.500022 -0.181170
C18   C     C_1   0.499985 0.934633 0.500004 -0.178681
Cu1   Cu    Cu3+1 0.669080 0.500010 0.500000 1.000732
Cu2   Cu    Cu3+1 0.330920 0.499990 0.500000 0.997405
H1    H     H_    0.685185 0.616860 0.107532 0.169978
H2    H     H_    0.274672 0.506252 0.891911 0.184189
H3    H     H_    0.806800 0.493858 0.747450 0.186920
H4    H     H_    0.232345 0.379524 0.256430 0.172903
N1    N     N_1   0.076820 0.499970 0.500010 -0.047954
N2    N     N_1   0.923180 0.500030 0.499990 -0.049261
N3    N     N_2   0.570240 0.509134 0.984711 -0.261717
N4    N     N_2   0.435129 0.479397 0.017104 -0.231169
O1    O     O_R   0.642760 0.288400 0.500000 -0.581522
O2    O     O_R   0.357240 0.711600 0.500000 -0.578447
O3    O     O_R   0.357190 0.288380 0.500000 -0.583040
O4    O     O_R   0.642810 0.711620 0.500000 -0.571763
O5    O     O_R   0.658410 0.498660 0.613920 -0.596640
O6    O     O_R   0.341590 0.501340 0.386080 -0.601082
O7    O     O_R   0.372840 0.498650 0.613930 -0.545716
O8    O     O_R   0.627160 0.501350 0.386070 -0.555682
N5    N     N_2   0.737341 0.647143 0.259187 -0.413634
H5    H     H_    0.749319 0.752562 0.237591 0.243476
C19   C     C_3   0.900192 0.569885 0.263298 -0.626302
H6    H     H_    0.948656 0.558700 0.203988 0.199910
H7    H     H_    0.886254 0.459018 0.289821 0.239123
H8    H     H_    0.996054 0.632714 0.300174 0.233845
N6    N     N_2   0.210823 0.477236 0.741936 -0.397382
H9    H     H_    0.116711 0.534621 0.768781 0.258184
C20   C     C_3   0.160548 0.326646 0.725999 -0.621694
H10   H     H_    0.153509 0.263788 0.781454 0.205711
H11   H     H_    0.254422 0.272075 0.689344 0.231550
H12   H     H_    0.032400 0.324866 0.693959 0.221926
N7    N     N_2   0.869084 0.494095 0.899540 -0.439693
H13   H     H_    0.882836 0.563365 0.946861 0.264107
C21   C     C_3   0.927535 0.346514 0.918512 -0.686465
H14   H     H_    0.063482 0.349648 0.941560 0.252670
H15   H     H_    0.919135 0.276374 0.865680 0.228492
H16   H     H_    0.848203 0.297183 0.963725 0.238156
N8    N     N_2   0.183147 0.344214 0.103570 -0.428615
H17   H     H_    0.070839 0.346231 0.132624 0.248879
C22   C     C_3   0.226688 0.196875 0.080235 -0.696297
H18   H     H_    0.113288 0.145518 0.048957 0.221701
H19   H     H_    0.264439 0.128537 0.132462 0.224852
H20   H     H_    0.333821 0.199218 0.040242 0.249123

loop_
_geom_bond_atom_site_label_1
_geom_bond_atom_site_label_2
_ccdc_geom_bond_type
C1    O3    A    
N6    H9    S    
C4    O8    A    
N5    H5    S    
C7    N6    S    
C2    C18   S    
C9    C11   A    
C3    O7    A    
C1    C17   S    
Cu1   Cu2   S    
C11   N3    S    
N8    H17   S    
C21   H16   S    
Cu2   O6    S    
C3    C5    S    
N3    N4    D    
C1    O1    A    
C14   N8    S    
C16   H4    S    
N8    C22   S    
Cu2   O2    S    
C20   H10   S    
N6    C20   S    
C22   H18   S    
C10   C12   A    
C12   N4    S    
C13   N7    S    
Cu1   O4    S    
C15   H3    S    
C12   C14   A    
C17   C18   T    
C19   H8    S    
C4    O6    A    
Cu1   O8    S    
C13   C15   A    
C10   H1    S    
Cu1   O5    S    
N5    C19   S    
C14   C16   A    
C9    H2    S    
C22   H19   S    
C4    C6    S    
C5    C15   A    
C8    N5    S    
C3    O5    A    
C6    C16   A    
C21   H14   S    
Cu1   O1    S    
C7    C9    A    
C11   C13   A    
C2    O2    A    
C19   H7    S    
C2    O4    A    
N7    H13   S    
Cu2   N1    S    
C20   H11   S    
C19   H6    S    
C5    C7    A    
Cu1   N2    S    
C22   H20   S    
C6    C8    A    
C20   H12   S    
N7    C21   S    
N1    N2    T    
Cu2   O7    S    
C8    C10   A    
C21   H15   S    
Cu2   O3    S    
