data_mof_unit_46985.cif
_audit_creation_date              2012-12-10T20:41:54-0500
_audit_creation_method            fapswitch 2.2
_symmetry_space_group_name_H-M    P1
_symmetry_Int_Tables_number       1
_space_group_crystal_system       triclinic
_cell_length_a                    15.048561
_cell_length_b                    15.130656
_cell_length_c                    9.897182
_cell_angle_alpha                 90.085478
_cell_angle_beta                  89.642348
_cell_angle_gamma                 90.022737
_cell_volume                      2253.48831302

loop_
_atom_site_label
_atom_site_type_symbol
_atom_type_description
_atom_site_fract_x
_atom_site_fract_y
_atom_site_fract_z
_atom_type_partial_charge
C1    C     C_R   0.378015 0.881944 0.500089 0.872733
C2    C     C_R   0.921930 0.503521 0.072996 0.149167
C3    C     C_R   0.554288 0.945097 0.071063 -0.133277
C4    C     C_R   0.077144 0.503414 0.071046 -0.133635
C5    C     C_R   0.554451 0.945368 0.927550 -0.139408
C6    C     C_R   0.077162 0.502940 0.927369 -0.170558
C7    C     C_R   0.451143 0.060565 0.930129 0.199126
C8    C     C_R   0.921502 0.503505 0.930269 0.188261
C9    C     C_3   0.352101 0.074318 0.931413 0.146479
C10   C     C_3   0.847591 0.435987 0.933214 0.177544
C11   C     C_3   0.354032 0.074512 0.085247 -0.523818
C12   C     C_R   0.379110 0.118886 0.499868 0.870020
C13   C     C_3   0.848620 0.438551 0.086962 -0.580992
C14   C     C_R   0.619267 0.120297 0.499576 0.866239
C15   C     C_R   0.620908 0.881031 0.499695 0.869482
C16   C     C_R   0.117365 0.622563 0.499953 0.862198
C17   C     C_R   0.119103 0.379507 0.499469 0.868624
C18   C     C_R   0.305188 0.240483 0.390763 0.071844
C19   C     C_R   0.263369 0.800229 0.621286 0.092996
C20   C     C_R   0.784724 0.721235 0.622193 0.091934
C21   C     C_R   0.801339 0.263020 0.385919 0.075331
C22   C     C_R   0.308218 0.179952 0.496134 -0.065464
C23   C     C_R   0.879694 0.380516 0.499800 0.880931
C24   C     C_R   0.301504 0.827012 0.499734 -0.112703
C25   C     C_R   0.825902 0.696941 0.501845 -0.087403
C26   C     C_R   0.809074 0.319136 0.496593 -0.079055
C27   C     C_R   0.237807 0.174295 0.588692 -0.208915
C28   C     C_R   0.261789 0.803063 0.377091 -0.220437
C29   C     C_R   0.811947 0.746272 0.384044 -0.212199
C30   C     C_R   0.743921 0.319746 0.597819 -0.223752
C31   C     C_R   0.745708 0.809716 0.383499 -0.232605
C32   C     C_R   0.679404 0.254654 0.598671 -0.232133
C33   C     C_R   0.173891 0.240288 0.590204 -0.230496
C34   C     C_R   0.882401 0.622125 0.500266 0.877675
C35   C     C_R   0.196519 0.738803 0.377189 -0.223097
C36   C     C_R   0.694075 0.822329 0.500421 -0.082781
C37   C     C_R   0.680617 0.190557 0.496720 -0.093993
C38   C     C_R   0.180358 0.309084 0.496154 -0.068640
C39   C     C_R   0.171295 0.699734 0.500032 -0.138461
C40   C     C_R   0.718225 0.782299 0.621266 0.118206
C41   C     C_R   0.737686 0.198756 0.386313 0.079004
C42   C     C_R   0.241767 0.304806 0.390773 0.117737
C43   C     C_R   0.197535 0.738067 0.621815 0.154537
C44   C     C_3   0.664305 0.731640 0.723330 -0.125321
C45   C     C_3   0.375727 0.300720 0.337117 -0.483242
C46   C     C_3   0.799005 0.132781 0.320715 -0.098706
C47   C     C_3   0.305149 0.372781 0.336478 -0.123039
C48   C     C_3   0.230780 0.697190 0.749813 -0.129953
C49   C     C_3   0.305042 0.765250 0.747017 -0.463766
C50   C     C_3   0.739369 0.664828 0.725031 -0.468016
C51   C     C_3   0.869599 0.204747 0.320794 -0.480672
C52   C     C_R   0.451415 0.060453 0.072528 0.146559
H1    H     H_    0.397929 0.281345 0.233954 0.173660
H2    H     H_    0.744513 0.368394 0.677084 0.191053
H3    H     H_    0.338033 0.139477 0.131781 0.183534
H4    H     H_    0.319767 0.017259 0.133067 0.212488
H5    H     H_    0.788685 0.468516 0.134608 0.193825
H6    H     H_    0.870569 0.375855 0.134235 0.211593
H7    H     H_    0.732066 0.844998 0.290750 0.159929
H8    H     H_    0.630971 0.252724 0.680107 0.162926
H9    H     H_    0.121521 0.238994 0.665828 0.157828
H10   H     H_    0.171474 0.715379 0.281180 0.173214
H11   H     H_    0.654521 0.766132 0.821380 0.137525
H12   H     H_    0.371545 0.735619 0.727977 0.170669
H13   H     H_    0.777545 0.112341 0.217944 0.165834
H14   H     H_    0.287516 0.397324 0.234102 0.142514
H15   H     H_    0.252923 0.627285 0.739140 0.151387
H16   H     H_    0.535556 0.745231 0.663427 0.194633
H17   H     H_    0.558298 0.648100 0.735049 0.185286
H18   H     H_    0.832876 0.079623 0.506737 0.200379
H19   H     H_    0.768110 0.014713 0.410025 0.184990
H20   H     H_    0.270442 0.487156 0.432379 0.178584
H21   H     H_    0.378932 0.478044 0.398408 0.193618
H22   H     H_    0.110849 0.677728 0.843529 0.217526
H23   H     H_    0.776405 0.664786 0.821790 0.176261
H24   H     H_    0.197574 0.684338 0.948686 0.180158
H25   H     H_    0.430402 0.311508 0.410551 0.207795
H26   H     H_    0.302499 0.813840 0.831328 0.229188
H27   H     H_    0.721479 0.598447 0.684952 0.219238
H28   H     H_    0.927225 0.191626 0.387778 0.202281
H29   H     H_    0.597288 0.899775 0.123872 0.144899
H30   H     H_    0.139639 0.504493 0.124471 0.138248
H31   H     H_    0.260479 0.172859 0.904522 0.179033
H32   H     H_    0.365598 0.209931 0.911847 0.172132
H33   H     H_    0.235121 0.008472 0.900140 0.173457
H34   H     H_    0.887660 0.227275 0.217457 0.175092
H35   H     H_    0.307319 0.000882 0.771241 0.226376
H36   H     H_    0.747206 0.528620 0.923510 0.164678
H37   H     H_    0.714070 0.424501 0.900179 0.173501
H38   H     H_    0.825161 0.303489 0.905059 0.170887
H39   H     H_    0.933360 0.329317 0.918146 0.174129
H40   H     H_    0.598003 0.901062 0.873624 0.143354
H41   H     H_    0.139654 0.503668 0.872770 0.148796
H42   H     H_    0.233641 0.121020 0.660977 0.157988
H43   H     H_    0.285401 0.828379 0.281018 0.174735
H44   H     H_    0.847992 0.732445 0.291303 0.167558
N1    N     N_R   0.499140 0.000000 0.142800 -0.097165
N2    N     N_3   0.302324 0.999515 0.876351 -0.443281
N3    N     N_3   0.764650 0.469304 0.875976 -0.456328
N4    N     N_3   0.873115 0.349991 0.876409 -0.395739
N5    N     N_R   0.999140 0.500000 0.142800 -0.095772
N6    N     N_R   0.499160 0.000000 0.857150 -0.109252
N7    N     N_R   0.999160 0.500000 0.857150 -0.111326
N8    N     N_3   0.582856 0.694761 0.666505 -0.439576
N9    N     N_3   0.822232 0.057983 0.407629 -0.436782
N10   N     N_3   0.323752 0.442898 0.434029 -0.437050
N11   N     N_3   0.169482 0.712430 0.862465 -0.438836
N12   N     N_3   0.325604 0.159322 0.873308 -0.443369
O1    O     O_R   0.408400 0.908380 0.614690 -0.626089
O2    O     O_R   0.591610 0.908390 0.614650 -0.632548
O3    O     O_R   0.091610 0.591610 0.614650 -0.631251
O4    O     O_R   0.091610 0.408390 0.614650 -0.616027
O5    O     O_R   0.591590 0.091600 0.385310 -0.619294
O6    O     O_R   0.591590 0.908400 0.385310 -0.630811
O7    O     O_R   0.091590 0.591600 0.385310 -0.626678
O8    O     O_R   0.091590 0.408400 0.385310 -0.626023
O9    O     O_R   0.408400 0.091620 0.614690 -0.614089
O10   O     O_R   0.908400 0.408380 0.614690 -0.587431
O11   O     O_R   0.908400 0.591620 0.614690 -0.613135
O12   O     O_R   0.408370 0.908370 0.385350 -0.616505
O13   O     O_R   0.408370 0.091630 0.385350 -0.617887
O14   O     O_R   0.908370 0.408370 0.385350 -0.619524
O15   O     O_R   0.908370 0.591630 0.385350 -0.620656
O16   O     O_R   0.591610 0.091610 0.614650 -0.617017
Zn1   Zn    Zn3+2 0.500010 0.000000 0.653130 0.938385
Zn2   Zn    Zn3+2 0.000010 0.500000 0.653130 0.952531
Zn3   Zn    Zn3+2 0.499980 0.000000 0.346870 0.938779
Zn4   Zn    Zn3+2 0.999980 0.500000 0.346870 0.936873

loop_
_geom_bond_atom_site_label_1
_geom_bond_atom_site_label_2
_ccdc_geom_bond_type
C21   C26   A    
C17   O4    A    
C9    N2    S    
N1    Zn3   S    
N6    Zn1   S    
C50   H27   S    
C23   O10   A    
C44   N8    S    
O12   Zn3   S    
C16   O7    A    
C49   H26   S    
C9    N12   S    
C30   H2    S    
C34   O15   A    
H37   N3    S    
C28   H43   S    
C7    C52   A    
O13   Zn3   S    
C18   C42   A    
C20   C40   A    
C48   N11   S    
C13   H5    S    
C20   C25   A    
C46   N9    S    
C12   C22   S    
C52   N1    A    
N5    Zn4   S    
H31   N12   S    
C23   C26   S    
C31   H7    S    
C2    C13   S    
N7    Zn2   S    
C19   C49   S    
C51   H28   S    
C20   C50   S    
C11   C52   S    
C1    O1    A    
H22   N11   S    
C12   O13   A    
C28   C35   A    
C7    N6    A    
C3    H29   S    
C41   C46   S    
H33   N2    S    
H39   N4    S    
C43   C48   S    
C47   H14   S    
O4    Zn2   S    
C25   C34   S    
C17   C38   S    
H35   N2    S    
C47   N10   S    
C45   H1    S    
C49   H12   S    
O14   Zn4   S    
C15   O2    A    
C51   H34   S    
H38   N4    S    
C19   C43   A    
C23   O14   A    
C45   C47   S    
C44   H11   S    
C25   C29   A    
C14   O16   A    
H36   N3    S    
H16   N8    S    
C36   C40   A    
C46   H13   S    
C4    C6    A    
C39   C43   A    
C13   H6    S    
C16   C39   S    
C2    N5    A    
C32   C37   A    
C46   C51   S    
C10   C13   S    
C27   C33   A    
O7    Zn4   S    
C1    O12   A    
C35   C39   A    
C3    N1    A    
C6    H41   S    
C4    N5    A    
O3    Zn2   S    
C15   O6    A    
C6    N7    A    
C10   N4    S    
C9    C11   S    
C21   C41   A    
O1    Zn1   S    
C48   C49   S    
H20   N10   S    
C26   C30   A    
H24   N11   S    
C22   C27   A    
H19   N9    S    
C32   H8    S    
C18   C45   S    
C15   C36   S    
C21   C51   S    
C11   H3    S    
H17   N8    S    
C44   C50   S    
C34   O11   A    
C7    C9    S    
C5    N6    A    
C18   C22   A    
C8    C10   S    
C2    C8    A    
C24   C28   A    
C3    C5    A    
H18   N9    S    
C29   H44   S    
C38   C42   A    
O5    Zn3   S    
C14   O5    A    
C33   C38   A    
C19   C24   A    
C29   C31   A    
C50   H23   S    
C14   C37   S    
C30   C32   A    
O6    Zn3   S    
H21   N10   S    
H32   N12   S    
C35   H10   S    
C42   C47   S    
C48   H15   S    
C37   C41   A    
C10   N3    S    
C8    N7    A    
C5    H40   S    
O2    Zn1   S    
C12   O9    A    
O11   Zn2   S    
C40   C44   S    
C4    H30   S    
C16   O3    A    
C1    C24   S    
C33   H9    S    
O8    Zn4   S    
O15   Zn4   S    
C31   C36   A    
C27   H42   S    
C45   H25   S    
O10   Zn2   S    
O9    Zn1   S    
C11   H4    S    
C17   O8    A    
O16   Zn1   S    
