data_mof_unit_58341.cif
_audit_creation_date              2013-03-05T15:42:50-0500
_audit_creation_method            fapswitch 2.2
_symmetry_space_group_name_H-M    P1
_symmetry_Int_Tables_number       1
_space_group_crystal_system       triclinic
_cell_length_a                    28.887344
_cell_length_b                    17.348035
_cell_length_c                    18.295872
_cell_angle_alpha                 90.126634
_cell_angle_beta                  139.173116
_cell_angle_gamma                 89.928219
_cell_volume                      5994.30251664

loop_
_atom_site_label
_atom_site_type_symbol
_atom_site_description
_atom_site_fract_x
_atom_site_fract_y
_atom_site_fract_z
_atom_type_partial_charge
C1    C     C_R   0.668652 0.923511 0.818387 -0.081877
C2    C     C_R   0.331354 0.076488 0.181617 -0.081732
C3    C     C_R   0.312234 0.898949 0.196724 -0.114179
C4    C     C_R   0.687757 0.101022 0.803337 -0.114393
C5    C     C_R   0.187848 0.398805 0.802762 -0.114597
C6    C     C_R   0.812149 0.601191 0.197237 -0.114756
C7    C     C_R   0.832527 0.424146 0.182022 -0.083895
C8    C     C_R   0.167499 0.575874 0.817983 -0.083382
H1    H     H_    0.717138 0.955576 0.883520 0.105279
H2    H     H_    0.282876 0.044410 0.116485 0.105312
H3    H     H_    0.261556 0.926630 0.144257 0.128294
H4    H     H_    0.738440 0.073357 0.855794 0.128511
H5    H     H_    0.238521 0.426581 0.855349 0.129211
H6    H     H_    0.761478 0.573411 0.144651 0.129200
H7    H     H_    0.784269 0.456379 0.116619 0.105651
H8    H     H_    0.215752 0.543631 0.883373 0.105606
N1    N     N_R   0.625380 0.928280 0.709340 -0.044775
N2    N     N_R   0.374620 0.071720 0.290660 -0.044796
N3    N     N_R   0.374620 0.928280 0.290660 -0.055063
N4    N     N_R   0.625380 0.071720 0.709340 -0.055027
N5    N     N_R   0.125380 0.428280 0.709340 -0.055236
N6    N     N_R   0.874620 0.571720 0.290660 -0.055212
N7    N     N_R   0.874620 0.428280 0.290660 -0.044824
N8    N     N_R   0.125380 0.571720 0.709340 -0.044824
C9    C     C_R   0.366035 0.067508 0.498109 -0.096493
C10   C     C_R   0.634030 0.932463 0.501994 -0.096461
C11   C     C_R   0.671677 0.104573 0.588452 -0.150470
C12   C     C_R   0.328351 0.895575 0.411722 -0.151259
C13   C     C_R   0.828271 0.604740 0.411293 -0.149713
C14   C     C_R   0.171724 0.395293 0.588676 -0.150458
C15   C     C_R   0.133782 0.567049 0.501609 -0.097232
C16   C     C_R   0.865991 0.432767 0.498044 -0.097070
H9    H     H_    0.325961 0.030035 0.472649 0.158971
H10   H     H_    0.674060 0.970006 0.527416 0.159231
H11   H     H_    0.722537 0.076992 0.642167 0.184028
H12   H     H_    0.277487 0.923157 0.357995 0.183689
H13   H     H_    0.777386 0.577155 0.357473 0.183418
H14   H     H_    0.222609 0.422880 0.642491 0.183081
H15   H     H_    0.173940 0.529596 0.527208 0.158130
H16   H     H_    0.825929 0.470342 0.472563 0.158862
N9    N     N_R   0.386100 0.070250 0.452470 -0.054353
N10   N     N_R   0.613900 0.929750 0.547530 -0.054475
N11   N     N_R   0.613900 0.070250 0.547530 -0.073561
N12   N     N_R   0.386100 0.929750 0.452470 -0.073515
N13   N     N_R   0.886100 0.570250 0.452470 -0.073193
N14   N     N_R   0.113900 0.429750 0.547530 -0.073115
N15   N     N_R   0.113900 0.570250 0.547530 -0.054463
N16   N     N_R   0.886100 0.429750 0.452470 -0.054826
C17   C     C_R   0.410427 0.803573 0.496323 0.254349
C18   C     C_R   0.589568 0.196506 0.503949 0.253452
C19   C     C_R   0.558043 0.833029 0.422626 0.358643
C20   C     C_R   0.442034 0.166918 0.577483 0.359096
C21   C     C_R   0.941999 0.333367 0.577436 0.356049
C22   C     C_R   0.057704 0.666363 0.422103 0.357362
C23   C     C_R   0.089588 0.303388 0.504142 0.254965
C24   C     C_R   0.910416 0.696630 0.495800 0.254620
N17   N     N_R   0.437800 0.869550 0.507970 -0.080565
N18   N     N_R   0.562200 0.130450 0.492030 -0.080291
N19   N     N_R   0.562200 0.869550 0.492030 -0.071721
N20   N     N_R   0.437800 0.130450 0.507970 -0.071484
N21   N     N_R   0.937800 0.369550 0.507970 -0.071524
N22   N     N_R   0.062200 0.630450 0.492030 -0.071164
N23   N     N_R   0.062200 0.369550 0.492030 -0.080250
N24   N     N_R   0.937800 0.630450 0.507970 -0.080177
C25   C     C_R   0.606558 0.193330 0.714030 -0.081634
C26   C     C_R   0.393430 0.806637 0.286072 -0.081867
C27   C     C_R   0.416222 0.165966 0.271270 -0.094453
C28   C     C_R   0.583784 0.834047 0.728745 -0.094975
C29   C     C_R   0.082824 0.665776 0.727995 -0.096375
C30   C     C_R   0.917204 0.334256 0.272016 -0.096640
C31   C     C_R   0.893434 0.693398 0.286604 -0.082316
C32   C     C_R   0.106555 0.306601 0.713394 -0.082355
H17   H     H_    0.585374 0.250749 0.684724 0.193933
H18   H     H_    0.414623 0.749223 0.315481 0.193621
H19   H     H_    0.446100 0.214891 0.287784 0.156400
H20   H     H_    0.553920 0.785129 0.712267 0.156557
H21   H     H_    0.053384 0.715291 0.711445 0.157187
H22   H     H_    0.946642 0.284743 0.288561 0.157242
H23   H     H_    0.915057 0.750709 0.315586 0.194364
H24   H     H_    0.084928 0.249293 0.684403 0.194286
N25   N     N_R   0.573690 0.128980 0.653840 -0.058977
N26   N     N_R   0.426310 0.871020 0.346160 -0.059054
N27   N     N_R   0.426310 0.128980 0.346160 -0.036196
N28   N     N_R   0.573690 0.871020 0.653840 -0.036317
N29   N     N_R   0.073690 0.628980 0.653840 -0.036176
N30   N     N_R   0.926310 0.371020 0.346160 -0.036256
N31   N     N_R   0.926310 0.628980 0.346160 -0.059220
N32   N     N_R   0.073690 0.371020 0.653840 -0.059091
C33   C     C_R   0.642809 0.865822 0.831830 0.020477
C34   C     C_R   0.357193 0.134191 0.168180 0.020396
C35   C     C_R   0.323416 0.823442 0.193032 0.042954
C36   C     C_R   0.676565 0.176506 0.807099 0.042393
C37   C     C_R   0.176647 0.323273 0.806101 0.044098
C38   C     C_R   0.823343 0.676725 0.193898 0.043958
C39   C     C_R   0.858788 0.366511 0.168938 0.021815
C40   C     C_R   0.141261 0.633535 0.831075 0.021932
C41   C     C_R   0.399966 0.126669 0.575430 -0.038982
C42   C     C_R   0.600173 0.873240 0.424775 -0.038419
C43   C     C_R   0.656868 0.182500 0.561484 0.055783
C44   C     C_R   0.343188 0.817739 0.438916 0.056086
C45   C     C_R   0.843053 0.682787 0.438007 0.056795
C46   C     C_R   0.156934 0.317271 0.561904 0.057059
C47   C     C_R   0.099664 0.625807 0.423991 -0.040193
C48   C     C_R   0.899865 0.373777 0.575287 -0.038552
Ni1   Ni    Ni4+2 0.616560 0.000000 0.627280 0.247679
Ni2   Ni    Ni4+2 0.383440 0.000000 0.372720 0.247757
Ni3   Ni    Ni4+2 0.116560 0.500000 0.627280 0.247861
Ni4   Ni    Ni4+2 0.883440 0.500000 0.372720 0.247554
Ni5   Ni    Ni4+2 0.497990 0.870580 0.500000 0.284654
Ni6   Ni    Ni4+2 0.502010 0.129420 0.500000 0.285024
Ni7   Ni    Ni4+2 0.997990 0.370580 0.500000 0.287313
Ni8   Ni    Ni4+2 0.002010 0.629420 0.500000 0.287686
C49   C     C_3   0.711749 0.270941 0.948308 -0.129662
C50   C     C_3   0.288164 0.729348 0.051521 -0.129196
C51   C     C_3   0.331357 0.215814 0.014347 -0.068240
C52   C     C_3   0.668606 0.784126 0.985578 -0.068504
C53   C     C_3   0.167729 0.717156 0.984832 -0.066573
C54   C     C_3   0.832390 0.282507 0.015493 -0.067553
C55   C     C_3   0.788784 0.769027 0.052026 -0.129910
C56   C     C_3   0.211240 0.231041 0.948054 -0.129717
C57   C     C_3   0.242795 0.695126 0.102785 -0.065809
C58   C     C_3   0.757438 0.304615 0.897411 -0.066798
C59   C     C_3   0.714870 0.746510 0.936771 -0.135841
C60   C     C_3   0.285185 0.253540 0.063273 -0.135685
C61   C     C_3   0.785275 0.248013 0.063718 -0.134741
C62   C     C_3   0.214525 0.752201 0.936239 -0.134810
C63   C     C_3   0.256011 0.194136 0.896489 -0.068818
C64   C     C_3   0.743921 0.805822 0.103474 -0.069236
H25   H     H_    0.255943 0.673733 0.173998 0.179068
H26   H     H_    0.744471 0.325799 0.826295 0.177897
H27   H     H_    0.702705 0.722690 0.867232 0.166116
H28   H     H_    0.297400 0.277399 0.132845 0.166331
H29   H     H_    0.796933 0.225255 0.133069 0.166105
H30   H     H_    0.202693 0.775156 0.866793 0.166397
H31   H     H_    0.242584 0.171862 0.825225 0.177266
H32   H     H_    0.757296 0.828056 0.174704 0.176883
H33   H     H_    0.661641 0.265045 0.919735 0.167823
H34   H     H_    0.338187 0.735498 0.079891 0.167970
H35   H     H_    0.381570 0.207803 0.043727 0.185956
H36   H     H_    0.618366 0.792084 0.956133 0.186124
H37   H     H_    0.117391 0.710392 0.955340 0.185925
H38   H     H_    0.882812 0.289014 0.045185 0.186016
H39   H     H_    0.838696 0.761685 0.080293 0.167404
H40   H     H_    0.161353 0.238437 0.919849 0.167467
C65   C     C_3   0.271140 0.769988 0.103351 0.126007
C66   C     C_3   0.728854 0.229964 0.896765 0.126670
C67   C     C_3   0.686709 0.822757 0.934378 0.103808
C68   C     C_3   0.313288 0.177254 0.065630 0.103640
C69   C     C_3   0.814600 0.323106 0.066323 0.104106
C70   C     C_3   0.185440 0.676901 0.933716 0.103760
C71   C     C_3   0.228604 0.270013 0.896018 0.127190
C72   C     C_3   0.771385 0.729986 0.103980 0.127548
C73   C     C_3   0.741071 0.346281 0.950928 -0.155129
C74   C     C_3   0.259084 0.653805 0.048985 -0.155469
C75   C     C_3   0.302515 0.292700 0.010916 -0.136296
C76   C     C_3   0.697505 0.707282 0.989043 -0.136255
C77   C     C_3   0.197519 0.793024 0.988372 -0.138842
C78   C     C_3   0.802362 0.206852 0.011874 -0.138541
C79   C     C_3   0.760601 0.845523 0.049585 -0.153614
C80   C     C_3   0.239366 0.154506 0.950460 -0.153700
H41   H     H_    0.716854 0.404307 0.927261 0.149135
H42   H     H_    0.283429 0.595869 0.072544 0.149374
H43   H     H_    0.327665 0.350124 0.034496 0.156488
H44   H     H_    0.672377 0.649838 0.965430 0.156229
H45   H     H_    0.173002 0.850871 0.964628 0.155626
H46   H     H_    0.826761 0.148916 0.035753 0.155358
H47   H     H_    0.785582 0.903047 0.073063 0.149217
H48   H     H_    0.214359 0.097002 0.927008 0.149337
C81   C     C_R   0.629187 0.842203 0.393822 0.014388
C82   C     C_R   0.370881 0.157784 0.606215 0.014264
C83   C     C_R   0.304531 0.762154 0.434528 -0.014886
C84   C     C_R   0.695796 0.238627 0.566935 -0.015154
C85   C     C_R   0.195937 0.260812 0.567765 -0.015932
C86   C     C_R   0.803962 0.739400 0.431816 -0.015936
C87   C     C_R   0.870605 0.342789 0.605729 0.013702
C88   C     C_R   0.129178 0.657032 0.394127 0.013374
C89   C     C_R   0.377068 0.184675 0.742948 0.417067
C90   C     C_R   0.622629 0.814838 0.256740 0.416830
C91   C     C_R   0.690059 0.321203 0.455227 0.403568
C92   C     C_R   0.310238 0.681719 0.547641 0.403766
C93   C     C_R   0.809467 0.823157 0.542771 0.403627
C94   C     C_R   0.190426 0.177701 0.456358 0.403752
C95   C     C_R   0.124473 0.682339 0.258974 0.417957
C96   C     C_R   0.876629 0.315898 0.742149 0.417477
C97   C     C_R   0.409903 0.160602 0.717509 -0.267292
C98   C     C_R   0.589922 0.838919 0.282406 -0.266787
C99   C     C_R   0.656558 0.277762 0.466867 -0.246703
C100  C     C_R   0.343743 0.724539 0.535526 -0.247474
C101  C     C_R   0.843108 0.779537 0.531402 -0.246371
C102  C     C_R   0.156789 0.221119 0.467890 -0.246720
C103  C     C_R   0.091178 0.658003 0.283393 -0.267661
C104  C     C_R   0.909480 0.340222 0.716925 -0.266676
C105  C     C_R   0.299083 0.173374 0.519186 0.353850
C106  C     C_R   0.701070 0.827076 0.480673 0.353546
C107  C     C_R   0.768355 0.252877 0.663844 0.341365
C108  C     C_R   0.232239 0.746909 0.337511 0.343390
C109  C     C_R   0.731290 0.752988 0.334881 0.341050
C110  C     C_R   0.268536 0.246942 0.664731 0.341373
C111  C     C_R   0.200579 0.674739 0.481910 0.356606
C112  C     C_R   0.798873 0.326680 0.518513 0.354779
C113  C     C_R   0.264195 0.180802 0.543048 -0.191653
C114  C     C_R   0.735729 0.819670 0.456406 -0.191353
C115  C     C_R   0.803268 0.297878 0.652458 -0.145159
C116  C     C_R   0.197430 0.702012 0.349113 -0.145162
C117  C     C_R   0.696198 0.797904 0.346165 -0.145337
C118  C     C_R   0.303599 0.202072 0.653377 -0.145396
C119  C     C_R   0.236362 0.682795 0.459697 -0.192100
C120  C     C_R   0.763865 0.318765 0.542109 -0.191287
H49   H     H_    0.534660 0.855729 0.216470 0.186591
H50   H     H_    0.465066 0.143411 0.783517 0.186620
H51   H     H_    0.400593 0.731813 0.607586 0.191309
H52   H     H_    0.599632 0.271178 0.394933 0.192493
H53   H     H_    0.099848 0.227383 0.395918 0.192837
H54   H     H_    0.900065 0.773462 0.603342 0.193195
H55   H     H_    0.964569 0.357773 0.783053 0.186640
H56   H     H_    0.036466 0.639132 0.217068 0.186807
N33   N     N_R   0.849794 0.870716 0.640486 0.270716
O1    O     O_R   0.915802 0.854991 0.733327 -0.313810
O2    O     O_R   0.823219 0.935048 0.633123 -0.342095
N34   N     N_R   0.150054 0.130614 0.358229 0.270676
O3    O     O_R   0.084223 0.146896 0.265286 -0.313131
O4    O     O_R   0.176339 0.066158 0.365205 -0.342063
N35   N     N_R   0.086287 0.676997 0.145777 0.265834
O5    O     O_R   0.113815 0.639497 0.123917 -0.353256
O6    O     O_R   0.019535 0.695396 0.063733 -0.311269
N36   N     N_R   0.915940 0.319382 0.856091 0.266183
O7    O     O_R   0.890245 0.357217 0.880884 -0.352303
O8    O     O_R   0.982219 0.298922 0.936297 -0.309364
N37   N     N_R   0.416544 0.181525 0.856982 0.266296
O9    O     O_R   0.391142 0.143570 0.882057 -0.352005
O10   O     O_R   0.482736 0.202407 0.936993 -0.309164
N38   N     N_R   0.582851 0.817464 0.142516 0.266472
O11   O     O_R   0.607752 0.855475 0.116634 -0.351748
O12   O     O_R   0.516802 0.796035 0.063032 -0.307623
N39   N     N_R   0.649486 0.367885 0.356939 0.270637
O13   O     O_R   0.583818 0.350935 0.263923 -0.312384
O14   O     O_R   0.675341 0.432644 0.363814 -0.340973
N40   N     N_R   0.350930 0.636618 0.647246 0.270344
O15   O     O_R   0.415948 0.655426 0.740510 -0.311511
O16   O     O_R   0.326069 0.571454 0.641685 -0.340489
Br1   Br    Br    0.446774 0.704697 0.510868 -0.526490
Br2   Br    Br    0.553085 0.295138 0.489917 -0.527383
Br3   Br    Br    0.532701 0.726953 0.379329 -0.467431
Br4   Br    Br    0.467216 0.273048 0.620561 -0.467532
Br5   Br    Br    0.966943 0.227260 0.620188 -0.467268
Br6   Br    Br    0.032915 0.772508 0.379401 -0.466763
Br7   Br    Br    0.053018 0.204910 0.490172 -0.528112
Br8   Br    Br    0.947023 0.795041 0.509631 -0.528435
Br9   Br    Br    0.748020 0.799242 0.627907 -0.391987
Br10  Br    Br    0.252641 0.201601 0.372394 -0.391119
Br11  Br    Br    0.182763 0.798177 0.199660 -0.480216
Br12  Br    Br    0.817781 0.200417 0.800954 -0.478995
Br13  Br    Br    0.317721 0.299701 0.801783 -0.478945
Br14  Br    Br    0.682117 0.699879 0.198052 -0.477997
Br15  Br    Br    0.752813 0.298250 0.371886 -0.391218
Br16  Br    Br    0.244883 0.704487 0.626973 -0.389994

loop_
_geom_bond_atom_site_label_1
_geom_bond_atom_site_label_2
_geom_bond_distance
_ccdc_geom_bond_type
C16   N16   1.329724 A    
C25   C36   1.365176 A    
C54   C78   1.547566 S    
C27   N27   1.331595 A    
C110  C118  1.410950 A    
C94   C113  1.394445 A    
C55   H39   1.110833 S    
C85   C102  1.400417 A    
C29   H21   1.078142 S    
N35   O5    1.301677 A    
C8    C40   1.379932 A    
C96   N36   1.433877 S    
N29   Ni8   1.841122 S    
C67   C79   1.531193 S    
C55   C59   1.530602 S    
N15   N22   1.434554 A    
N34   O4    1.301937 A    
N16   N21   1.434556 A    
C27   H19   1.078256 S    
C105  C113  1.374115 A    
C31   C38   1.364597 A    
C46   C85   1.433576 S    
C94   N34   1.441465 S    
C84   C99   1.400228 A    
C24   Br8   1.922112 S    
C23   C46   1.359494 A    
C11   C43   1.391427 A    
C18   C43   1.359989 A    
C83   C100  1.399734 A    
N31   Ni8   1.841024 S    
C95   C116  1.420286 A    
C49   C73   1.539172 S    
C30   H22   1.078114 S    
C63   H31   1.110190 S    
C24   C45   1.359616 A    
C20   Br4   1.915572 S    
N11   Ni1   1.859581 S    
C50   C62   1.530504 S    
C100  H51   1.083612 S    
C95   C103  1.398249 A    
C111  Br16  1.950227 S    
N24   Ni8   1.967565 S    
C107  C115  1.410929 A    
C21   C48   1.378413 A    
C38   C72   1.441990 S    
C106  C114  1.374115 A    
C90   C117  1.420604 A    
C20   C41   1.377942 A    
C89   C97   1.398890 A    
C89   C118  1.420552 A    
C60   H28   1.111014 S    
C3    C35   1.362471 A    
C54   C58   1.557222 S    
C2    C34   1.378523 A    
C69   C73   1.531545 S    
N3    Ni2   1.811260 S    
C47   C88   1.423495 S    
C34   C68   1.445503 S    
C92   C100  1.365599 A    
N11   N18   1.434554 A    
C63   C71   1.531882 S    
C58   C66   1.531987 S    
N32   Ni7   1.841023 S    
C109  C117  1.411188 A    
C64   C72   1.531888 S    
C2    H2    1.079045 S    
N17   Ni5   1.851636 S    
C72   C76   1.529223 S    
C15   H15   1.079107 S    
C6    C38   1.362611 A    
N7    N30   1.397701 A    
C23   N23   1.313760 A    
N39   O13   1.301812 A    
C96   C104  1.398666 A    
N12   Ni2   1.859583 S    
C3    N3    1.330989 A    
C53   C70   1.531142 S    
C39   C69   1.445854 S    
C71   C75   1.529229 S    
C108  C116  1.410150 A    
C92   C119  1.395365 A    
C20   N20   1.339369 A    
N8    N29   1.397698 A    
C104  H55   1.083866 S    
C5    H5    1.081162 S    
C7    N7    1.332777 A    
N13   Ni4   1.855476 S    
C51   C75   1.547783 S    
C12   C44   1.390438 A    
N22   Ni8   1.851634 S    
C22   Br6   1.915810 S    
N5    N32   1.397167 A    
C52   C64   1.556972 S    
N20   Ni6   1.967565 S    
C8    H8    1.079077 S    
C96   C115  1.420581 A    
C23   Br7   1.921935 S    
N4    N25   1.397698 A    
C107  Br12  1.935464 S    
C44   C83   1.431785 S    
N39   O14   1.301941 A    
C45   C86   1.434117 S    
C102  H53   1.083344 S    
C21   N21   1.339424 A    
C62   H30   1.111043 S    
C31   H23   1.076007 S    
N34   O3    1.301795 A    
C32   N32   1.332163 A    
C10   H10   1.079012 S    
C28   C33   1.378144 A    
C48   C87   1.424275 S    
N40   O16   1.301921 A    
C59   C76   1.535954 S    
C95   N35   1.434094 S    
C87   C112  1.383322 A    
C93   C101  1.365154 A    
N27   Ni6   1.841024 S    
C93   C114  1.394250 A    
C52   C76   1.547775 S    
C57   C74   1.549552 S    
C36   C66   1.442076 S    
C28   N28   1.331630 A    
N26   Ni5   1.841123 S    
C22   C47   1.378432 A    
C92   N40   1.441204 S    
C1    H1    1.079038 S    
C50   C65   1.529730 S    
C91   N39   1.441416 S    
C111  C119  1.374608 A    
N9    Ni2   1.855476 S    
C25   H17   1.076337 S    
C77   H45   1.109924 S    
C87   C104  1.394534 A    
C42   C81   1.424399 S    
C61   C78   1.535537 S    
C83   C108  1.404003 A    
C88   C103  1.394371 A    
C114  C117  1.423636 A    
C43   C84   1.433590 S    
C86   C101  1.400568 A    
C58   H26   1.110166 S    
C75   H43   1.109924 S    
N33   O1    1.301782 A    
C105  Br10  1.950366 S    
C53   C77   1.547615 S    
C51   C68   1.531375 S    
C12   N12   1.344841 A    
C27   C34   1.378192 A    
C41   C82   1.424146 S    
C32   H24   1.076002 S    
C51   C63   1.556970 S    
C73   H41   1.109930 S    
C5    N5    1.331548 A    
C15   C47   1.383035 A    
C49   C66   1.529738 S    
C29   C40   1.379673 A    
C53   H37   1.109998 S    
N2    Ni2   1.815374 S    
C90   N38   1.433854 S    
N37   O9    1.301735 A    
N1    Ni1   1.815378 S    
C103  H56   1.083829 S    
C6    H6    1.081165 S    
C26   H18   1.076421 S    
C60   C68   1.535234 S    
C25   N25   1.332395 A    
N19   Ni5   1.967563 S    
C116  C119  1.424047 A    
C52   C67   1.531399 S    
N12   N17   1.434556 A    
C113  C118  1.423697 A    
C40   C70   1.445836 S    
N14   Ni3   1.855477 S    
C14   C46   1.391515 A    
C16   C48   1.383127 A    
N2    N27   1.397170 A    
C106  Br9   1.950396 S    
C13   C45   1.391796 A    
N8    Ni3   1.811261 S    
N6    N31   1.397170 A    
N25   Ni6   1.841122 S    
C12   H12   1.081051 S    
N5    Ni3   1.815378 S    
C26   C35   1.365162 A    
C61   C69   1.535694 S    
C10   C42   1.383131 A    
C30   N30   1.331422 A    
C31   N31   1.332194 A    
C32   C37   1.364611 A    
C110  Br13  1.935298 S    
C9    C41   1.383099 A    
C18   N18   1.313773 A    
C59   C67   1.535235 S    
C109  Br14  1.935241 S    
N36   O8    1.301441 A    
C93   N33   1.441539 S    
C54   C69   1.531177 S    
C49   H33   1.110803 S    
C37   C71   1.441966 S    
C82   C105  1.383035 A    
C4    H4    1.081092 S    
C98   H49   1.083832 S    
C88   C111  1.383537 A    
C9    N9    1.329734 A    
N21   Ni7   1.851636 S    
C35   C65   1.442050 S    
C16   H16   1.079124 S    
C29   N29   1.331411 A    
C10   N10   1.329623 A    
N4    Ni1   1.811261 S    
C56   H40   1.110832 S    
C62   C77   1.535551 S    
C61   H29   1.111046 S    
C55   C72   1.530200 S    
C33   C67   1.445521 S    
N40   O15   1.301774 A    
C86   C109  1.405017 A    
C1    C33   1.378483 A    
N3    N26   1.397701 A    
C59   H27   1.111012 S    
C85   C110  1.404781 A    
N18   Ni6   1.851634 S    
C1    N1    1.332698 A    
C74   H42   1.109922 S    
C55   C79   1.538966 S    
C19   Br3   1.915488 S    
N9    N20   1.434012 A    
C57   H25   1.110155 S    
C2    N2    1.332676 A    
C54   H38   1.109992 S    
N38   O12   1.301414 A    
N10   N19   1.434011 A    
C81   C98   1.394852 A    
C17   N17   1.314119 A    
C5    C37   1.362631 A    
C82   C97   1.394749 A    
N35   O6    1.301352 A    
C81   C106  1.383001 A    
C66   C78   1.529332 S    
C4    N4    1.330991 A    
C53   C57   1.557238 S    
C28   H20   1.078142 S    
C68   C80   1.531205 S    
C7    C39   1.379987 A    
C115  C120  1.423852 A    
N13   N24   1.434012 A    
N15   Ni3   1.859581 S    
N28   Ni5   1.841023 S    
C14   N14   1.345624 A    
N14   N23   1.434011 A    
N1    N28   1.397167 A    
C11   H11   1.080983 S    
C49   C61   1.530492 S    
C91   C99   1.365392 A    
C64   H32   1.110193 S    
C30   C39   1.379644 A    
C91   C120  1.394757 A    
N37   O10   1.301401 A    
C18   Br2   1.921535 S    
C17   C44   1.359715 A    
C89   N37   1.433883 S    
C17   Br1   1.920986 S    
C62   C70   1.535671 S    
C24   N24   1.313676 A    
N16   Ni4   1.859583 S    
C19   C42   1.378000 A    
C65   C77   1.529356 S    
N6    Ni4   1.815374 S    
N7    Ni4   1.811260 S    
C108  Br11  1.935524 S    
C7    H7    1.079086 S    
N38   O11   1.301741 A    
C8    N8    1.332716 A    
C56   C60   1.530610 S    
C79   H47   1.109921 S    
N30   Ni7   1.841123 S    
C57   C65   1.531977 S    
C50   H34   1.110817 S    
N23   Ni7   1.967563 S    
N33   O2    1.301935 A    
N10   Ni1   1.855477 S    
C80   H48   1.109921 S    
C58   C73   1.549637 S    
C56   C71   1.530185 S    
C3    H3    1.081090 S    
C101  H54   1.083257 S    
C112  Br15  1.950429 S    
C90   C98   1.399021 A    
C78   H46   1.109932 S    
C11   N11   1.345425 A    
C19   N19   1.339454 A    
C99   H52   1.083421 S    
C76   H44   1.109924 S    
C21   Br5   1.915580 S    
C112  C120  1.374524 A    
N36   O7    1.301748 A    
C70   C74   1.531571 S    
C60   C75   1.535957 S    
C13   H13   1.080967 S    
C56   C80   1.538954 S    
C97   H50   1.083841 S    
C22   N22   1.339271 A    
C84   C107  1.404732 A    
C15   N15   1.329961 A    
C94   C102  1.365196 A    
C14   H14   1.080995 S    
C4    C36   1.362454 A    
C51   H35   1.110003 S    
C63   C80   1.549623 S    
C50   C74   1.539104 S    
C13   N13   1.345775 A    
C26   N26   1.332380 A    
C64   C79   1.549648 S    
C9    H9    1.078964 S    
C52   H36   1.110002 S    
C6    N6    1.331559 A    
