data_mof_unit_7648.cif
_audit_creation_date              2012-12-11T15:53:51-0500
_audit_creation_method            fapswitch 2.2
_symmetry_space_group_name_H-M    P1
_symmetry_Int_Tables_number       1
_space_group_crystal_system       triclinic
_cell_length_a                    10.67199
_cell_length_b                    10.640568
_cell_length_c                    16.823142
_cell_angle_alpha                 81.227183
_cell_angle_beta                  99.146645
_cell_angle_gamma                 118.042858
_cell_volume                      1658.00006649

loop_
_atom_site_label
_atom_site_type_symbol
_atom_type_description
_atom_site_fract_x
_atom_site_fract_y
_atom_site_fract_z
_atom_type_partial_charge
C1    C     C_R   0.360817 0.227731 0.626975 0.551311
C2    C     C_R   0.389078 0.833092 0.672812 -0.145760
C3    C     C_R   0.372165 0.854565 0.749484 -0.158122
C4    C     C_3   0.129071 0.461376 0.791051 -0.246512
C5    C     C_3   0.149275 0.437242 0.708458 -0.250972
C6    C     C_R   0.312737 0.695674 0.645007 0.014455
C7    C     C_1   0.853963 0.671041 0.701786 -0.036687
C8    C     C_1   0.901564 0.704929 0.768915 -0.038310
C9    C     C_1   0.345325 0.187008 0.709616 -0.051651
C10   C     C_1   0.320919 0.160333 0.778426 -0.055865
C11   C     C_1   0.372675 0.635809 0.274399 -0.046967
C12   C     C_R   0.369191 0.656072 0.585141 0.556701
C13   C     C_1   0.346143 0.654728 0.203442 -0.060780
C14   C     C_R   0.786430 0.652946 0.142750 0.019635
C15   C     C_R   0.734322 0.518779 0.184309 0.025016
C16   C     C_R   0.704946 0.497133 0.261563 0.002527
C17   C     C_R   0.738319 0.734957 0.256785 -0.159381
C18   C     C_R   0.772719 0.758378 0.176521 -0.152971
C19   C     C_3   0.702240 0.367987 0.179937 -0.262048
C20   C     C_3   0.661732 0.342818 0.266604 -0.276753
C21   C     C_R   0.715539 0.604474 0.303208 -0.000349
C22   C     C_R   0.257077 0.047628 0.182005 -0.003086
C23   C     C_R   0.782918 0.622030 0.625536 0.565807
C24   C     C_R   0.158973 0.072996 0.213016 0.002814
C25   C     C_R   0.164030 0.088094 0.292744 0.038171
C26   C     C_R   0.375773 0.056236 0.319845 -0.169165
C27   C     C_R   0.357972 0.023204 0.238881 -0.169910
C28   C     C_3   0.058737 0.133207 0.182048 -0.254280
C29   C     C_3   0.040181 0.126587 0.271052 -0.126698
C30   C     C_R   0.292224 0.113312 0.342506 0.004568
C31   C     C_R   0.949741 0.725155 0.851778 0.541153
C32   C     C_R   0.281419 0.751185 0.883060 0.553292
C33   C     C_R   0.284804 0.115509 0.858212 0.545200
C34   C     C_R   0.344939 0.214937 0.404387 0.528657
C35   C     C_R   0.876909 0.687828 0.078900 0.555056
C36   C     C_R   0.317080 0.697350 0.122111 0.550150
C37   C     C_R   0.245720 0.037253 0.095184 0.575569
C38   C     C_R   0.403602 0.624476 0.359056 0.548468
C39   C     C_R   0.699636 0.582746 0.389204 0.551235
C40   C     C_R   0.277400 0.739579 0.797639 -0.001618
C41   C     C_R   0.179471 0.615433 0.761041 0.007677
C42   C     C_R   0.197279 0.593387 0.685793 0.011457
Cr1   Cr    Cr6+3 0.608440 0.389080 0.519680 0.995879
Cr2   Cr    Cr6+3 0.288640 0.400090 0.490760 1.001158
Cr3   Cr    Cr6+3 0.602940 0.710800 0.489510 0.999292
Cr4   Cr    Cr6+3 0.052530 0.947560 0.964210 1.009263
Cr5   Cr    Cr6+3 0.059970 0.626800 0.992920 0.995552
Cr6   Cr    Cr6+3 0.373320 0.938440 0.995370 1.002818
H1    H     H_    0.473448 0.918700 0.640271 0.143215
H2    H     H_    0.609670 0.313417 0.135279 0.158521
H3    H     H_    0.546407 0.288336 0.269107 0.153828
H4    H     H_    0.725875 0.305711 0.312935 0.155633
H5    H     H_    0.466972 0.057985 0.359504 0.138832
H6    H     H_    0.431178 0.992670 0.219645 0.151422
H7    H     H_    0.963495 0.062809 0.145131 0.129555
H8    H     H_    0.119166 0.240842 0.151270 0.142952
H9    H     H_    0.940061 0.029460 0.285329 0.108152
H10   H     H_    0.442275 0.956242 0.773709 0.142462
H11   H     H_    0.015377 0.408450 0.803572 0.152759
H12   H     H_    0.203600 0.443655 0.840270 0.163641
H13   H     H_    0.235742 0.406161 0.710399 0.161429
H14   H     H_    0.047340 0.369883 0.673430 0.145017
H15   H     H_    0.732702 0.819090 0.282499 0.135121
H16   H     H_    0.791232 0.857936 0.141930 0.124887
H17   H     H_    0.797944 0.355434 0.174956 0.155704
O1    O     O_R   0.754020 0.497590 0.609930 -0.504111
O2    O     O_R   0.295080 0.533620 0.397890 -0.475945
O3    O     O_R   0.485280 0.746620 0.388440 -0.525940
O4    O     O_R   0.720550 0.696220 0.420010 -0.520841
O5    O     O_3   0.500010 0.499990 0.499980 -0.284316
O6    O     O_R   0.163320 0.092900 0.874450 -0.510339
O7    O     O_R   0.934650 0.822080 0.882840 -0.481013
O8    O     O_R   0.915520 0.604140 0.893670 -0.506394
O9    O     O_R   0.191760 0.638110 0.923230 -0.509030
O10   O     O_R   0.406180 0.826930 0.920660 -0.499803
O11   O     O_R   0.358620 0.062870 0.901950 -0.512616
O12   O     O_R   0.481420 0.271390 0.600630 -0.493150
O13   O     O_R   0.163910 0.085460 0.050210 -0.513957
O14   O     O_R   0.935200 0.815170 0.045770 -0.514278
O15   O     O_R   0.916120 0.596690 0.069430 -0.518246
O16   O     O_R   0.192310 0.631200 0.086170 -0.505345
O17   O     O_R   0.406770 0.819480 0.096420 -0.516837
O18   O     O_R   0.359170 0.055960 0.064880 -0.503773
O19   O     O_3   0.161940 0.837600 0.984160 -0.312216
O20   O     O_R   0.263810 0.254550 0.589590 -0.520642
O21   O     O_R   0.300820 0.531200 0.560890 -0.497093
O22   O     O_R   0.491480 0.744020 0.564270 -0.514463
O23   O     O_R   0.726290 0.693800 0.583010 -0.486482
O24   O     O_R   0.747830 0.500190 0.434090 -0.522237
O25   O     O_R   0.475680 0.273800 0.437630 -0.523282
O26   O     O_R   0.257620 0.257160 0.413750 -0.514885
C43   C     C_R   0.036593 0.251991 0.302144 0.060415
C44   C     C_R   0.989823 0.230750 0.379229 -0.053786
C45   C     C_R   0.974746 0.337596 0.409616 -0.083128
C46   C     C_R   0.999436 0.464893 0.362005 -0.071715
C47   C     C_R   0.035691 0.483676 0.283476 -0.103730
C48   C     C_R   0.053444 0.377971 0.253385 -0.101446
H18   H     H_    0.967435 0.131555 0.416564 0.101724
H19   H     H_    0.943112 0.321308 0.469851 0.096065
H20   H     H_    0.989048 0.548341 0.385406 0.146265
H21   H     H_    0.050505 0.580713 0.245769 0.130520
H22   H     H_    0.078242 0.396304 0.191825 0.117932

loop_
_geom_bond_atom_site_label_1
_geom_bond_atom_site_label_2
_ccdc_geom_bond_type
C5    C42   S    
C16   C21   A    
C1    O12   A    
C41   C42   A    
C14   C18   A    
C19   C20   S    
C32   O10   A    
C28   H8    S    
C27   H6    S    
C7    C8    T    
C15   C19   S    
C26   C27   A    
C44   C45   A    
C23   O1    A    
C28   C29   S    
Cr3   O22   S    
C20   H3    S    
C6    C12   S    
Cr4   O14   S    
C31   O8    A    
C4    C41   S    
C15   C16   A    
C35   O15   A    
Cr6   O11   S    
C34   O26   A    
C46   C47   A    
C36   O17   A    
Cr2   O5    S    
C9    C10   T    
Cr4   O7    S    
C48   H22   S    
C32   C40   S    
C47   H21   S    
C25   C29   S    
Cr6   O10   S    
C2    C6    A    
Cr5   O15   S    
Cr2   O21   S    
C28   H7    S    
C43   C48   A    
C1    O20   A    
Cr1   O25   S    
C30   C34   S    
Cr3   O4    S    
Cr3   O23   S    
C1    C9    S    
C24   C25   A    
Cr5   O8    S    
C13   C36   S    
C14   C35   S    
Cr4   O13   S    
C46   H20   S    
C22   C37   S    
C17   C21   A    
Cr6   O19   S    
C11   C38   S    
C34   O25   A    
C2    H1    S    
C33   O11   A    
C21   C39   S    
C36   O16   A    
C16   C20   S    
C47   C48   A    
C4    H12   S    
Cr3   O3    S    
C17   C18   A    
C39   O4    A    
C5    H13   S    
Cr1   O24   S    
Cr5   O19   S    
Cr4   O6    S    
Cr2   O26   S    
Cr4   O19   S    
C31   O7    A    
C29   H9    S    
C3    C40   A    
C26   C30   A    
Cr1   O5    S    
C23   O23   A    
C22   C24   A    
Cr2   O20   S    
C26   H5    S    
C25   C30   A    
C40   C41   A    
C12   O22   A    
Cr3   O5    S    
C8    C31   S    
C24   C28   S    
Cr5   O9    S    
C38   O3    A    
C4    C5    S    
Cr1   O12   S    
C37   O13   A    
Cr6   O18   S    
C12   O21   A    
C22   C27   A    
C2    C3    A    
C20   H4    S    
C17   H15   S    
C32   O9    A    
C11   C13   T    
C19   H2    S    
C18   H16   S    
C45   H19   S    
Cr1   O1    S    
C7    C23   S    
C4    H11   S    
C35   O14   A    
C43   C44   A    
Cr6   O17   S    
C5    H14   S    
C19   H17   S    
C10   C33   S    
Cr5   O16   S    
C45   C46   A    
C33   O6    A    
C3    H10   S    
C38   O2    A    
C6    C42   A    
C14   C15   A    
C37   O18   A    
Cr2   O2    S    
C44   H18   S    
C39   O24   A    
C29   C43   S    
