data_mof_unit_44176.cif
_audit_creation_date              2012-12-10T18:47:00-0500
_audit_creation_method            fapswitch 2.2
_symmetry_space_group_name_H-M    P1
_symmetry_Int_Tables_number       1
_space_group_crystal_system       triclinic
_cell_length_a                    10.601678
_cell_length_b                    9.920367
_cell_length_c                    14.964174
_cell_angle_alpha                 90.214861
_cell_angle_beta                  90.963166
_cell_angle_gamma                 90.082416
_cell_volume                      1573.58493073

loop_
_atom_site_label
_atom_site_type_symbol
_atom_type_description
_atom_site_fract_x
_atom_site_fract_y
_atom_site_fract_z
_atom_type_partial_charge
C1    C     C_R   0.260856 0.499961 0.498719 0.998054
C2    C     C_R   0.739408 0.500113 0.500714 0.978584
C3    C     C_R   0.387431 0.282164 0.043745 0.217245
C4    C     C_R   0.624823 0.711355 0.956902 0.211223
C5    C     C_R   0.068829 0.485436 0.578752 0.320941
C6    C     C_R   0.932694 0.511188 0.415389 0.380829
C7    C     C_R   0.937619 0.492664 0.579924 0.259443
C8    C     C_R   0.062671 0.513962 0.414955 0.345644
C9    C     C_R   0.871958 0.500287 0.498186 -0.333148
C10   C     C_R   0.128607 0.500188 0.496932 -0.340462
C11   C     C_R   0.564646 0.072936 0.564696 0.153048
C12   C     C_R   0.430920 0.926729 0.437213 0.163640
C13   C     C_R   0.429261 0.071881 0.438265 0.172829
C14   C     C_R   0.564413 0.928743 0.564956 0.165898
C15   C     C_R   0.500270 0.499784 0.326910 0.830668
C16   C     C_R   0.500901 0.500039 0.673092 0.951136
C17   C     C_R   0.561176 0.605413 0.815169 -0.251295
C18   C     C_R   0.445090 0.392740 0.184713 -0.228071
C19   C     C_R   0.503858 0.499191 0.768847 -0.046639
C20   C     C_R   0.501879 0.499117 0.231178 -0.056589
C21   C     C_R   0.450691 0.390837 0.813479 -0.217515
C22   C     C_R   0.560512 0.604294 0.186722 -0.228603
C23   C     C_R   0.450856 0.389647 0.905817 0.078764
C24   C     C_R   0.562223 0.604340 0.094383 0.081675
C25   C     C_R   0.507614 0.497219 0.953553 0.031037
C26   C     C_R   0.505033 0.496911 0.046491 0.028458
C27   C     C_R   0.566037 0.605357 0.908105 0.047540
C28   C     C_R   0.444899 0.389811 0.091800 0.049989
C29   C     C_R   0.392793 0.283311 0.950247 -0.247062
C30   C     C_R   0.621333 0.709852 0.049811 -0.223163
H1    H     H_    0.601539 0.686974 0.777833 0.167221
H2    H     H_    0.400569 0.313404 0.221890 0.157686
H3    H     H_    0.406340 0.309038 0.776150 0.155871
H4    H     H_    0.605741 0.685370 0.224191 0.165674
H5    H     H_    0.349267 0.203466 0.911023 0.157899
H6    H     H_    0.666343 0.790968 0.087312 0.166657
N1    N     N_R   0.500000 0.857200 0.500000 -0.128662
N2    N     N_R   0.500000 0.142800 0.500000 -0.126877
O1    O     O_R   0.316770 0.614620 0.499990 -0.616386
O2    O     O_R   0.683230 0.385380 0.500010 -0.603834
O3    O     O_R   0.683230 0.614620 0.500010 -0.611611
O4    O     O_R   0.316770 0.385380 0.499990 -0.593997
O5    O     O_R   0.499980 0.614680 0.367850 -0.605937
O6    O     O_R   0.500020 0.385320 0.632150 -0.603678
O7    O     O_R   0.500020 0.614680 0.632150 -0.601072
O8    O     O_R   0.499980 0.385320 0.367850 -0.612198
Zn1   Zn    Zn3+2 0.500000 0.653120 0.500000 0.984937
Zn2   Zn    Zn3+2 0.500000 0.346880 0.500000 0.989798
N3    N     N_2   0.322813 0.177130 0.090287 -0.315074
H7    H     H_    0.255117 0.210798 0.133713 0.232189
C31   C     C_3   0.288566 0.053492 0.044118 -0.787773
H8    H     H_    0.254431 0.978718 0.093114 0.245206
H9    H     H_    0.371773 0.009890 0.010573 0.248532
H10   H     H_    0.211339 0.072569 0.994718 0.242352
N4    N     N_2   0.691422 0.817914 0.914791 -0.300723
H11   H     H_    0.742334 0.791456 0.859383 0.224728
C32   C     C_3   0.620847 0.941677 0.904677 -0.813855
H12   H     H_    0.534831 0.924217 0.862724 0.228914
H13   H     H_    0.680265 0.018728 0.871897 0.242382
H14   H     H_    0.593639 0.981119 0.971159 0.259239
O9    O     O_3   0.141227 0.464058 0.655206 -0.777504
H15   H     H_    0.091155 0.411447 0.698181 0.341113
O10   O     O_3   0.869625 0.520672 0.333795 -0.698176
H16   H     H_    0.777573 0.512505 0.341391 0.312625
O11   O     O_3   0.871203 0.494961 0.658697 -0.821786
H17   H     H_    0.925400 0.533775 0.706836 0.346006
O12   O     O_3   0.120602 0.527646 0.333127 -0.708769
H18   H     H_    0.213407 0.526442 0.340376 0.311849
N5    N     N_2   0.625041 0.145881 0.635135 -0.255495
H19   H     H_    0.592871 0.125128 0.698260 0.199733
C33   C     C_3   0.760454 0.160962 0.630126 -0.669858
H20   H     H_    0.784250 0.268652 0.636281 0.295799
H21   H     H_    0.797882 0.121999 0.566009 0.225272
H22   H     H_    0.807523 0.109148 0.687060 0.198638
N6    N     N_2   0.351489 0.851777 0.377750 -0.250018
H23   H     H_    0.258548 0.843973 0.396110 0.231801
C34   C     C_3   0.372697 0.862274 0.282745 -0.735191
H24   H     H_    0.302745 0.931464 0.251708 0.220012
H25   H     H_    0.358518 0.761917 0.251357 0.259285
H26   H     H_    0.470008 0.897567 0.268922 0.229201
N7    N     N_2   0.353202 0.145462 0.376711 -0.255557
H27   H     H_    0.374300 0.129110 0.310775 0.219424
C35   C     C_3   0.219316 0.147208 0.394109 -0.738870
H28   H     H_    0.176054 0.235561 0.360285 0.253623
H29   H     H_    0.201550 0.155293 0.466933 0.249858
H30   H     H_    0.173062 0.055007 0.367217 0.216628
N8    N     N_2   0.622773 0.858411 0.636931 -0.266274
H31   H     H_    0.600239 0.893521 0.699522 0.197057
C36   C     C_3   0.754944 0.825998 0.627825 -0.689862
H32   H     H_    0.813079 0.884074 0.676668 0.197643
H33   H     H_    0.789041 0.845549 0.559165 0.240860
H34   H     H_    0.768503 0.718607 0.644110 0.279227

loop_
_geom_bond_atom_site_label_1
_geom_bond_atom_site_label_2
_ccdc_geom_bond_type
N8    H31   S    
N4    H11   S    
C6    C9    A    
N7    H27   S    
C3    N3    S    
C34   H24   S    
C23   C29   A    
C3    C28   A    
C19   C21   A    
C24   C26   A    
C14   N8    S    
C11   C14   A    
C32   H13   S    
C21   H3    S    
C2    O3    A    
C13   N7    S    
N5    C33   S    
C12   N1    A    
C3    C29   A    
O2    Zn2   S    
N3    C31   S    
N1    Zn1   S    
C16   O6    A    
N2    Zn2   S    
O7    Zn1   S    
O9    H15   S    
N7    C35   S    
C34   H25   S    
C15   C20   S    
C22   H4    S    
O8    Zn2   S    
C31   H8    S    
C17   C27   A    
C18   C28   A    
C5    C7    A    
C32   H14   S    
C6    C8    A    
C25   C26   A    
O12   H18   S    
C31   H9    S    
C6    O10   S    
C11   N2    A    
N6    H23   S    
C7    O11   S    
C35   H28   S    
O3    Zn1   S    
C5    O9    S    
O4    Zn2   S    
C36   H34   S    
N6    C34   S    
C13   N2    A    
C35   H29   S    
C20   C22   A    
O11   H17   S    
N4    C32   S    
C4    N4    S    
C17   H1    S    
C22   C24   A    
C36   H33   S    
C4    C27   A    
O1    Zn1   S    
C34   H26   S    
C7    C9    A    
C1    C10   S    
C16   O7    A    
C33   H22   S    
C11   N5    S    
C25   C27   A    
C29   H5    S    
C26   C28   A    
C30   H6    S    
C31   H10   S    
C21   C23   A    
C15   O5    A    
C33   H20   S    
C14   N1    A    
C32   H12   S    
C16   C19   S    
C17   C19   A    
C18   C20   A    
C23   C25   A    
N5    H19   S    
C24   C30   A    
C1    O1    A    
O10   H16   S    
C2    O2    A    
C1    O4    A    
C5    C10   A    
C35   H30   S    
C18   H2    S    
C12   C13   A    
C8    O12   S    
C8    C10   A    
N3    H7    S    
C12   N6    S    
C33   H21   S    
N8    C36   S    
C15   O8    A    
C36   H32   S    
C2    C9    S    
O5    Zn1   S    
C4    C30   A    
O6    Zn2   S    
