data_mof_unit_7856.cif
_audit_creation_date              2012-12-10T17:32:16-0500
_audit_creation_method            fapswitch 2.2
_symmetry_space_group_name_H-M    P1
_symmetry_Int_Tables_number       1
_space_group_crystal_system       triclinic
_cell_length_a                    12.334073
_cell_length_b                    13.256292
_cell_length_c                    15.046528
_cell_angle_alpha                 77.445853
_cell_angle_beta                  101.850311
_cell_angle_gamma                 116.541493
_cell_volume                      2131.70866384

loop_
_atom_site_label
_atom_site_type_symbol
_atom_type_description
_atom_site_fract_x
_atom_site_fract_y
_atom_site_fract_z
_atom_type_partial_charge
C1    C     C_R   0.854830 0.287938 0.502027 0.813430
C2    C     C_R   0.108530 0.518894 0.107736 0.137305
C3    C     C_R   0.779586 0.445710 0.019463 0.484716
C4    C     C_R   0.781722 0.450631 0.925934 -0.297447
C5    C     C_R   0.890237 0.474568 0.893157 0.033050
C6    C     C_R   0.999059 0.495829 0.954028 0.059296
C7    C     C_R   0.108465 0.518724 0.921515 0.125330
C8    C     C_R   0.216598 0.541200 0.982200 -0.213877
C9    C     C_R   0.216748 0.541794 0.074766 -0.215180
C10   C     C_R   0.891706 0.477568 0.800277 -0.221162
C11   C     C_R   0.999892 0.499047 0.768102 -0.064751
C12   C     C_R   0.999984 0.499799 0.671181 0.796277
C13   C     C_R   0.107816 0.519070 0.828708 -0.247342
C14   C     C_R   0.270328 0.031624 0.473492 -0.177835
C15   C     C_R   0.229779 0.833546 0.487323 -0.038026
C16   C     C_R   0.820752 0.086812 0.518571 -0.201756
C17   C     C_R   0.744860 0.971296 0.527223 -0.145541
C18   C     C_R   0.618924 0.934314 0.513666 -0.146008
C19   C     C_R   0.565653 0.012957 0.484241 0.010465
C20   C     C_R   0.643155 0.130716 0.464536 -0.013398
C21   C     C_R   0.437910 0.979010 0.477808 0.063980
C22   C     C_R   0.392560 0.062804 0.464387 0.102382
C23   C     C_R   0.145366 0.712959 0.490761 0.801445
C24   C     C_R   0.467249 0.175491 0.435226 -0.353757
C25   C     C_R   0.587716 0.205806 0.420120 0.502504
C26   C     C_R   0.353591 0.864739 0.484401 -0.229622
C27   C     C_R   0.190236 0.917040 0.488113 -0.202790
C28   C     C_R   0.771917 0.167885 0.491501 -0.086002
C29   C     C_R   0.347461 0.327835 0.646064 -0.305940
C30   C     C_R   0.752330 0.644237 0.374046 0.183597
C31   C     C_R   0.652602 0.671859 0.349181 -0.296994
C32   C     C_R   0.553038 0.617138 0.396946 -0.232936
C33   C     C_R   0.549773 0.532092 0.471528 -0.013944
C34   C     C_R   0.999886 0.499447 0.328916 0.828861
C35   C     C_R   0.653405 0.504504 0.496108 0.280243
C36   C     C_R   0.446485 0.473418 0.521993 -0.030939
C37   C     C_R   0.447241 0.386943 0.595697 0.174994
C38   C     C_R   0.547552 0.360243 0.618840 -0.300230
C39   C     C_R   0.648169 0.417817 0.570569 -0.183656
C40   C     C_R   0.341534 0.496898 0.502593 0.013634
C41   C     C_R   0.247441 0.354954 0.623559 0.064589
C42   C     C_R   0.108311 0.520281 0.200061 -0.242866
C43   C     C_R   0.999695 0.496881 0.232541 -0.077593
C44   C     C_R   0.890524 0.469263 0.173259 -0.219337
C45   C     C_R   0.888816 0.469876 0.080177 -0.015147
C46   C     C_R   0.998730 0.494840 0.047315 -0.006090
Cu1   Cu    Cu3+1 0.098270 0.475420 0.521130 0.932804
Cu2   Cu    Cu3+1 0.901730 0.524580 0.478870 0.962499
H1    H     H_    0.192766 0.540608 0.246427 0.141878
H2    H     H_    0.427949 0.236815 0.417389 0.152720
H3    H     H_    0.236292 0.095686 0.467440 0.136074
H4    H     H_    0.381869 0.799023 0.483396 0.144036
H5    H     H_    0.918160 0.112522 0.536483 0.154226
H6    H     H_    0.566084 0.843876 0.529884 0.128381
H7    H     H_    0.783903 0.909884 0.549738 0.138701
H8    H     H_    0.170301 0.309482 0.662268 0.126677
H9    H     H_    0.548649 0.294038 0.675406 0.151056
H10   H     H_    0.346920 0.261189 0.702599 0.137628
H11   H     H_    0.806931 0.446263 0.200270 0.192728
H12   H     H_    0.332807 0.561334 0.448048 0.118261
H13   H     H_    0.479914 0.643505 0.373117 0.139269
H14   H     H_    0.652149 0.737272 0.291667 0.156121
H15   H     H_    0.719714 0.390856 0.594423 0.198502
H16   H     H_    0.698216 0.435357 0.879127 0.162664
H17   H     H_    0.808198 0.461310 0.753340 0.149978
H18   H     H_    0.191612 0.536509 0.803407 0.154954
H19   H     H_    0.301098 0.558930 0.957965 0.149174
H20   H     H_    0.301393 0.560079 0.120572 0.142091
H21   H     H_    0.097360 0.894049 0.497845 0.141110
N1    N     N_R   0.246280 0.438190 0.553160 -0.180927
N2    N     N_R   0.754320 0.561190 0.447410 -0.208264
O1    O     O_R   0.972510 0.318130 0.526570 -0.597161
O2    O     O_R   0.806530 0.359650 0.490890 -0.554997
O3    O     O_R   0.082980 0.479210 0.647590 -0.583697
O4    O     O_R   0.917000 0.520730 0.611900 -0.609101
O5    O     O_R   0.193470 0.640350 0.509110 -0.595506
O6    O     O_R   0.027490 0.681870 0.473430 -0.582268
O7    O     O_R   0.083000 0.479270 0.388100 -0.595073
O8    O     O_R   0.917020 0.520790 0.352410 -0.562876
O9    O     O_3   0.651343 0.301973 0.359733 -0.558810
C47   C     C_3   0.574909 0.345022 0.296259 -0.305104
H22   H     H_    0.543870 0.392645 0.329725 0.166467
H23   H     H_    0.496433 0.276559 0.262052 0.148625
H24   H     H_    0.627559 0.406647 0.241673 0.192206
C48   C     C_R   0.852649 0.710809 0.317186 0.162727
C49   C     C_R   0.936851 0.820207 0.335319 -0.138930
C50   C     C_R   0.024408 0.889961 0.276198 -0.140987
C51   C     C_R   0.024487 0.853009 0.196064 -0.129056
C52   C     C_R   0.934319 0.748233 0.173477 -0.138130
C53   C     C_R   0.846619 0.678996 0.232561 -0.130495
H25   H     H_    0.932313 0.851849 0.394248 0.112748
H26   H     H_    0.090685 0.973401 0.291622 0.139655
H27   H     H_    0.091959 0.907029 0.150142 0.129127
H28   H     H_    0.931068 0.721539 0.109542 0.147783
H29   H     H_    0.773359 0.601091 0.212250 0.131919
O10   O     O_3   0.672489 0.425795 0.050067 -0.592725
C54   C     C_3   0.599270 0.307433 0.061298 -0.362563
H30   H     H_    0.513969 0.291201 0.086921 0.187071
H31   H     H_    0.645997 0.261078 0.113053 0.174703
H32   H     H_    0.572837 0.273246 0.994966 0.166178

loop_
_geom_bond_atom_site_label_1
_geom_bond_atom_site_label_2
_ccdc_geom_bond_type
C16   C28   A    
C21   C26   A    
C40   H12   S    
C12   O3    A    
C25   O9    S    
C19   C20   A    
C31   H14   S    
C23   O5    A    
C50   C51   A    
C47   H24   S    
C30   N2    A    
C7    C8    A    
C41   H8    S    
C45   C46   A    
C2    C46   A    
C40   N1    A    
C29   H10   S    
Cu2   O8    S    
C36   C37   A    
C19   C21   A    
C32   H13   S    
C49   H25   S    
C5    C6    A    
C20   C25   A    
C44   H11   S    
C33   C36   A    
C18   C19   A    
C52   H28   S    
C16   H5    S    
C47   H23   S    
Cu1   Cu2   S    
C8    C9    A    
C1    C28   S    
C3    O10   S    
C14   C27   A    
C17   H7    S    
C27   H21   S    
C15   C23   S    
C35   N2    A    
C21   C22   A    
Cu2   O4    S    
C54   H31   S    
C54   H30   S    
C13   H18   S    
C24   H2    S    
C38   C39   A    
C1    O1    A    
C36   C40   A    
C24   C25   A    
C49   C50   A    
C16   C17   A    
C15   C26   A    
C20   C28   A    
C48   C49   A    
C3    C45   A    
C47   H22   S    
Cu2   O6    S    
C35   C39   A    
C43   C44   A    
Cu1   N1    S    
C37   C38   A    
C26   H4    S    
C34   O8    A    
C38   H9    S    
C15   C27   A    
C14   H3    S    
C7    C13   A    
C48   C53   A    
O10   C54   S    
C17   C18   A    
C23   O6    A    
C30   C48   S    
C22   C24   A    
C42   C43   A    
Cu2   N2    S    
C3    C4    A    
C54   H32   S    
C44   C45   A    
C10   H17   S    
C51   H27   S    
C6    C46   A    
C29   C41   A    
Cu2   O2    S    
C31   C32   A    
C34   C43   S    
Cu1   O3    S    
O9    C47   S    
C53   H29   S    
Cu1   O5    S    
C11   C12   S    
C6    C7    A    
C39   H15   S    
C4    H16   S    
C1    O2    A    
C32   C33   A    
C14   C22   A    
C9    H20   S    
C5    C10   A    
C34   O7    A    
C11   C13   A    
C30   C31   A    
C2    C42   A    
C33   C35   A    
Cu1   O1    S    
C10   C11   A    
C18   H6    S    
C42   H1    S    
C4    C5    A    
C51   C52   A    
C8    H19   S    
C12   O4    A    
C29   C37   A    
Cu1   O7    S    
C52   C53   A    
C50   H26   S    
C2    C9    A    
C41   N1    A    
