data_mof_unit_35273.cif
_audit_creation_date              2013-03-05T16:07:57-0500
_audit_creation_method            fapswitch 2.2
_symmetry_space_group_name_H-M    P1
_symmetry_Int_Tables_number       1
_space_group_crystal_system       triclinic
_cell_length_a                    6.946124
_cell_length_b                    14.661323
_cell_length_c                    15.932843
_cell_angle_alpha                 90.249442
_cell_angle_beta                  89.689559
_cell_angle_gamma                 90.232183
_cell_volume                      1622.53829217

loop_
_atom_site_label
_atom_site_type_symbol
_atom_site_description
_atom_site_fract_x
_atom_site_fract_y
_atom_site_fract_z
_atom_type_partial_charge
O1    O     O_R   0.494380 0.415640 0.412830 -0.594532
O2    O     O_R   0.823960 0.405540 0.586560 -0.560422
O3    O     O_R   0.994270 0.584360 0.587170 -0.599149
C1    C     C_R   0.654423 0.383129 0.614988 0.967090
O4    O     O_R   0.824090 0.404620 0.413450 -0.605096
O5    O     O_R   0.994400 0.583430 0.412820 -0.597832
C2    C     C_R   0.655324 0.382395 0.384497 0.927644
O6    O     O_R   0.494250 0.416570 0.587180 -0.599883
O7    O     O_3   0.660800 0.558670 0.500000 -0.291061
V1    V     V_3+5 0.935650 0.489120 0.500000 1.172180
O8    O     O_R   0.324110 0.594460 0.413440 -0.595695
C3    C     C_R   0.155429 0.616188 0.384278 0.928490
O9    O     O_R   0.323980 0.595380 0.586550 -0.600591
C4    C     C_R   0.154282 0.617407 0.615862 0.920135
V2    V     V_3+5 0.435660 0.510880 0.500000 1.152160
O10   O     O_3   0.160640 0.441330 0.500000 -0.264759
C5    C     C_3   0.926227 0.700320 0.718683 -0.171041
H1    H     H_    0.839267 0.724444 0.664637 0.077418
C6    C     C_3   0.915935 0.775381 0.787563 -0.361135
H2    H     H_    0.841959 0.750042 0.845137 0.177939
H3    H     H_    0.827350 0.833040 0.764218 0.132058
H4    H     H_    0.122760 0.806519 0.604392 0.150654
H5    H     H_    0.126488 0.913467 0.710337 0.177320
C7    C     C_3   0.213922 0.781935 0.656797 -0.396227
C8    C     C_3   0.267370 0.659686 0.762412 -0.263047
C9    C     C_3   0.139870 0.687294 0.687013 0.013265
H6    H     H_    0.420894 0.657471 0.742475 0.122144
H7    H     H_    0.229079 0.590623 0.783987 0.241724
C10   C     C_3   0.120359 0.810864 0.810360 0.075104
C11   C     C_3   0.210412 0.852857 0.729788 -0.339004
C12   C     C_3   0.245048 0.728106 0.836295 -0.342351
H8    H     H_    0.177340 0.693200 0.890932 0.179158
H9    H     H_    0.390451 0.751492 0.856279 0.152870
H10   H     H_    0.363494 0.776038 0.632011 0.157257
H11   H     H_    0.359813 0.876466 0.742842 0.152640
C13   C     C_R   0.272203 0.815866 0.240170 0.163082
C14   C     C_R   0.117762 0.815859 0.183842 -0.230454
C15   C     C_R   0.966640 0.753749 0.199389 -0.147732
H12   H     H_    0.844239 0.751133 0.157906 0.141918
C16   C     C_R   0.978331 0.689864 0.265091 -0.148904
H13   H     H_    0.863714 0.640364 0.272425 0.133504
C17   C     C_R   0.141862 0.685817 0.317105 -0.226414
C18   C     C_R   0.284196 0.752432 0.304948 0.165752
C19   C     C_3   0.495509 0.741274 0.292615 -0.475282
C20   C     C_3   0.482631 0.810778 0.222428 -0.454038
H14   H     H_    0.532617 0.671668 0.270071 0.191055
H15   H     H_    0.579168 0.766076 0.347496 0.194353
H16   H     H_    0.513207 0.781752 0.159204 0.197119
H17   H     H_    0.558024 0.875953 0.236909 0.185516
C21   C     C_R   0.505329 0.316253 0.745842 0.097185
C22   C     C_R   0.645517 0.313735 0.682358 -0.277791
C23   C     C_R   0.782656 0.243356 0.685229 -0.081046
H18   H     H_    0.891345 0.240028 0.636295 0.157366
C24   C     C_R   0.770569 0.172678 0.745629 -0.011704
C25   C     C_R   0.626172 0.176666 0.809526 -0.312915
C26   C     C_R   0.497057 0.249308 0.807782 0.172841
C27   C     C_3   0.283112 0.243281 0.805713 -0.551982
C28   C     C_3   0.290481 0.316238 0.738584 0.190010
H19   H     H_    0.216230 0.264534 0.866214 0.232647
H20   H     H_    0.233135 0.176148 0.782005 0.208810
H21   H     H_    0.237308 0.293394 0.676116 0.095840
C29   C     C_R   0.493815 0.315686 0.256764 0.170663
C30   C     C_R   0.647420 0.316463 0.313486 -0.227035
C31   C     C_R   0.798323 0.254522 0.298233 -0.151670
H22   H     H_    0.920172 0.252530 0.340013 0.139510
C32   C     C_R   0.787159 0.190059 0.232427 -0.152549
H23   H     H_    0.901373 0.140683 0.225384 0.131647
C33   C     C_R   0.624410 0.185251 0.179981 -0.234212
C34   C     C_R   0.482317 0.251652 0.191902 0.190090
C35   C     C_3   0.270776 0.240082 0.203714 -0.474492
C36   C     C_3   0.283171 0.310196 0.274004 -0.463579
H24   H     H_    0.232987 0.170564 0.226090 0.185387
H25   H     H_    0.187971 0.264223 0.148652 0.207239
H26   H     H_    0.251735 0.281607 0.337129 0.194113
H27   H     H_    0.208318 0.375056 0.259420 0.193180
O11   O     O_R   0.771490 0.080820 0.910070 -0.603050
O12   O     O_R   0.441590 0.092730 0.083780 -0.593711
O13   O     O_R   0.271350 0.913900 0.084390 -0.592091
C37   C     C_R   0.610584 0.114806 0.112899 0.948366
O14   O     O_R   0.441780 0.091820 0.910670 -0.585033
O15   O     O_R   0.271540 0.912980 0.910040 -0.596976
C38   C     C_R   0.611279 0.109815 0.878939 0.941670
O16   O     O_R   0.771300 0.081740 0.084420 -0.591546
O17   O     O_3   0.604960 0.938700 0.997240 -0.283230
V3    V     V_3+5 0.330090 0.008230 0.997220 1.149851
O18   O     O_R   0.941820 0.901930 0.910640 -0.606397
C39   C     C_R   0.110618 0.880590 0.881066 0.866938
O19   O     O_R   0.941630 0.902840 0.083750 -0.599088
C40   C     C_R   0.110072 0.880937 0.112743 0.938258
V4    V     V_3+5 0.830090 0.986410 0.997190 1.140846
O20   O     O_3   0.105080 0.055990 0.997200 -0.267823
C41   C     C_2   0.831158 0.612868 0.748617 0.590411
H28   H     H_    0.731741 0.576930 0.707719 0.016832
O21   O     O_2   0.866016 0.581062 0.817590 -0.542382
C42   C     C_2   0.893478 0.090676 0.734071 0.434679
H29   H     H_    0.872970 0.030590 0.772385 0.023083
O22   O     O_2   0.016217 0.087848 0.678932 -0.629919
N1    N     N_R   0.206133 0.401788 0.767413 0.245571
O23   O     O_R   0.071823 0.439526 0.723312 -0.414205
O24   O     O_R   0.250434 0.435987 0.840419 -0.403508

loop_
_geom_bond_atom_site_label_1
_geom_bond_atom_site_label_2
_geom_bond_distance
_ccdc_geom_bond_type
C8    C12   1.550814 S    
C32   C33   1.410777 A    
C25   C26   1.395590 A    
C42   H29   1.082463 S    
C28   N1    1.457908 S    
C1    O6    1.298531 A    
V3    O20   1.715224 S    
C23   H18   1.083431 S    
C8    H7    1.101829 S    
C10   C11   1.553510 S    
C11   H11   1.113022 S    
C5    C9    1.576916 S    
C13   C14   1.402400 A    
C6    H3    1.114013 S    
C14   C15   1.408500 A    
C7    C9    1.555326 S    
O5    C3    1.296382 A    
C15   H12   1.080177 S    
C27   H19   1.111672 S    
V2    O10   2.161787 S    
C26   C27   1.488889 S    
C3    C17   1.485885 S    
O8    V2    2.009480 S    
C6    H2    1.113473 S    
C23   C24   1.419169 A    
C33   C34   1.400762 A    
C37   O16   1.297743 A    
C12   H9    1.112979 S    
C35   C36   1.519420 S    
O1    V2    2.006660 S    
C21   C26   1.395682 A    
O7    V1    2.168036 S    
C19   H15   1.111546 S    
C33   C37   1.486258 S    
C16   C17   1.411304 A    
C32   H23   1.081207 S    
O12   V3    2.006398 S    
C15   C16   1.410600 A    
O9    C4    1.306766 A    
C5    C41   1.517413 S    
O17   V4    1.710505 S    
C35   H25   1.111555 S    
C19   H14   1.111228 S    
C21   C22   1.400700 A    
O12   C37   1.303630 A    
O13   C40   1.297937 A    
C1    C22   1.483038 S    
C22   C23   1.408213 A    
C21   C28   1.497461 S    
H5    C11   1.110883 S    
O17   V3    2.168022 S    
O14   C38   1.305212 A    
O18   V4    2.004833 S    
O11   C38   1.294917 A    
O4    C2    1.301786 A    
O18   C39   1.300132 A    
C27   H20   1.107862 S    
C8    C9    1.552424 S    
C7    H10   1.113033 S    
C29   C34   1.395568 A    
C31   C32   1.410754 A    
O2    C1    1.300881 A    
C18   C19   1.489425 S    
O14   V3    2.000214 S    
C12   H8    1.112828 S    
C20   H17   1.111702 S    
C29   C30   1.401974 A    
C41   O21   1.221471 D    
C5    H1    1.114217 S    
C13   C20   1.489342 S    
C4    C9    1.527922 S    
C25   C38   1.483867 S    
C2    C30   1.486013 S    
C24   C42   1.487572 S    
O15   C39   1.299012 A    
O3    C4    1.295489 A    
O13   V3    2.003530 S    
C16   H13   1.081311 S    
O19   V4    2.009362 S    
O6    V2    2.008560 S    
N1    O24   1.302562 A    
O9    V2    2.004876 S    
H4    C7    1.112767 S    
C17   C18   1.400210 A    
V4    O20   2.161809 S    
C6    C10   1.554606 S    
C19   C20   1.519445 S    
C20   H16   1.111578 S    
O16   V4    2.008330 S    
C24   C25   1.426450 A    
O1    C2    1.299298 A    
O5    V1    2.003453 S    
C36   H26   1.111525 S    
O8    C3    1.304000 A    
C42   O22   1.221573 D    
C8    H6    1.111609 S    
C14   C40   1.485578 S    
C31   H22   1.080183 S    
O7    V2    1.711045 S    
O4    V1    2.006450 S    
C10   C12   1.552365 S    
O3    V1    2.007277 S    
V1    O10   1.715276 S    
C36   H27   1.111696 S    
C27   C28   1.516454 S    
C28   H21   1.113238 S    
C41   H28   1.085371 S    
C5    C6    1.552386 S    
C29   C36   1.489174 S    
C34   C35   1.489484 S    
C7    C11   1.556798 S    
C10   C39   1.519360 S    
C30   C31   1.409081 A    
O19   C40   1.302167 A    
N1    O23   1.298034 A    
C13   C18   1.395363 A    
C35   H24   1.111218 S    
O15   V3    2.007389 S    
O11   V4    2.008925 S    
O2    V1    2.000234 S    
