data_mof_unit_18058.cif
_audit_creation_date              2012-12-11T14:54:25-0500
_audit_creation_method            fapswitch 2.2
_symmetry_space_group_name_H-M    P1
_symmetry_Int_Tables_number       1
_space_group_crystal_system       triclinic
_cell_length_a                    18.970878
_cell_length_b                    10.947006
_cell_length_c                    18.897143
_cell_angle_alpha                 90.241344
_cell_angle_beta                  89.85565
_cell_angle_gamma                 89.914437
_cell_volume                      3924.39952456

loop_
_atom_site_label
_atom_site_type_symbol
_atom_type_description
_atom_site_fract_x
_atom_site_fract_y
_atom_site_fract_z
_atom_type_partial_charge
C1    C     C_R   0.729560 0.373804 0.645253 0.598868
C2    C     C_R   0.271770 0.375255 0.355438 0.566730
C3    C     C_R   0.229560 0.873804 0.645253 0.598868
C4    C     C_R   0.771770 0.875255 0.355438 0.566731
C5    C     C_3   0.545949 0.331647 0.443944 -0.257838
C6    C     C_3   0.567265 0.335743 0.521152 -0.267020
C7    C     C_3   0.045950 0.831647 0.443944 -0.257838
C8    C     C_3   0.067265 0.835743 0.521152 -0.267020
C9    C     C_R   0.688508 0.913145 0.533083 -0.226375
C10   C     C_R   0.277889 0.835660 0.455722 -0.167866
C11   C     C_R   0.188508 0.413145 0.533083 -0.226375
C12   C     C_R   0.777889 0.335660 0.455722 -0.167867
C13   C     C_R   0.695058 0.900064 0.460449 -0.181512
C14   C     C_R   0.274844 0.815151 0.528025 -0.227131
C15   C     C_R   0.195058 0.400064 0.460449 -0.181512
C16   C     C_R   0.774844 0.315151 0.528025 -0.227132
C17   C     C_R   0.761404 0.909202 0.429332 0.046511
C18   C     C_R   0.247655 0.905634 0.573576 0.026575
C19   C     C_R   0.261404 0.409202 0.429332 0.046511
C20   C     C_R   0.747655 0.405634 0.573576 0.026575
C21   C     C_R   0.821762 0.936887 0.471388 0.242559
C22   C     C_R   0.224475 0.017184 0.547605 0.225679
C23   C     C_R   0.321762 0.436887 0.471388 0.242559
C24   C     C_R   0.724476 0.517184 0.547605 0.225678
C25   C     C_R   0.815773 0.934263 0.544680 0.216302
C26   C     C_R   0.221114 0.033587 0.474343 0.222632
C27   C     C_R   0.315773 0.434263 0.544680 0.216302
C28   C     C_R   0.721114 0.533587 0.474343 0.222632
C29   C     C_R   0.748937 0.927797 0.575310 0.018370
C30   C     C_R   0.251112 0.944435 0.428615 0.061489
C31   C     C_R   0.248937 0.427797 0.575310 0.018370
C32   C     C_R   0.751112 0.444435 0.428615 0.061489
C33   C     C_R   0.466452 0.076693 0.954114 -0.081188
C34   C     C_R   0.456197 0.071627 0.026271 -0.099770
C35   C     C_R   0.966452 0.576694 0.954114 -0.081190
C36   C     C_R   0.956197 0.571627 0.026271 -0.099770
C37   C     C_R   0.484528 0.161680 0.071007 0.049526
C38   C     C_R   0.507136 0.170205 0.925686 0.036673
C39   C     C_R   0.984528 0.661680 0.071007 0.049526
C40   C     C_R   0.007136 0.670205 0.925686 0.036671
C41   C     C_R   0.522378 0.259149 0.042587 -0.107651
C42   C     C_R   0.534466 0.262675 0.969921 -0.147136
C43   C     C_R   0.022379 0.759149 0.042587 -0.107652
C44   C     C_R   0.034466 0.762675 0.969921 -0.147137
C45   C     C_R   0.531519 0.155112 0.646802 0.577201
C46   C     C_R   0.437118 0.150855 0.361051 0.595897
C47   C     C_R   0.031519 0.655112 0.646802 0.577201
C48   C     C_R   0.937118 0.650855 0.361051 0.595897
C49   C     C_R   0.816563 0.916883 0.953261 0.196728
C50   C     C_R   0.218508 0.050006 0.021309 0.191499
C51   C     C_R   0.316563 0.416883 0.953261 0.196729
C52   C     C_R   0.718508 0.550006 0.021309 0.191499
C53   C     C_R   0.824887 0.913125 0.026827 0.234644
C54   C     C_R   0.215726 0.029118 0.948245 0.206136
C55   C     C_R   0.324887 0.413126 0.026827 0.234643
C56   C     C_R   0.715726 0.529118 0.948245 0.206136
C57   C     C_R   0.764548 0.899224 0.070712 0.021491
C58   C     C_R   0.252188 0.929332 0.919209 -0.020689
C59   C     C_R   0.264548 0.399224 0.070712 0.021491
C60   C     C_R   0.752188 0.429332 0.919209 -0.020689
C61   C     C_R   0.697668 0.895123 0.041789 -0.129516
C62   C     C_R   0.295979 0.857359 0.961356 -0.172971
C63   C     C_R   0.197668 0.395123 0.041789 -0.129516
C64   C     C_R   0.795979 0.357359 0.961356 -0.172971
C65   C     C_R   0.689034 0.902442 0.969435 0.183403
C66   C     C_R   0.301223 0.879193 0.033219 0.141736
C67   C     C_R   0.189034 0.402442 0.969435 0.183403
C68   C     C_R   0.801223 0.379193 0.033219 0.141736
C69   C     C_R   0.748575 0.921450 0.925187 0.063427
C70   C     C_R   0.263038 0.977386 0.063677 0.021462
C71   C     C_R   0.248575 0.421449 0.925187 0.063428
C72   C     C_R   0.763038 0.477386 0.063677 0.021462
C73   C     C_R   0.741050 0.969717 0.647366 0.589331
C74   C     C_R   0.259026 0.973432 0.354065 0.577628
C75   C     C_R   0.241049 0.469717 0.647366 0.589331
C76   C     C_R   0.759026 0.473432 0.354065 0.577629
C77   C     C_R   0.730711 0.381244 0.850970 0.585216
C78   C     C_R   0.273465 0.372897 0.145240 0.578027
C79   C     C_R   0.230711 0.881244 0.850970 0.585216
C80   C     C_R   0.773465 0.872897 0.145240 0.578027
C81   C     C_R   0.533146 0.157881 0.853846 0.566034
C82   C     C_R   0.465772 0.156333 0.145390 0.538674
C83   C     C_R   0.033146 0.657881 0.853846 0.566034
C84   C     C_R   0.965773 0.656332 0.145390 0.538674
C85   C     C_R   0.740555 0.970860 0.854370 0.619058
C86   C     C_R   0.270291 0.012381 0.138001 0.600445
C87   C     C_R   0.240555 0.470860 0.854370 0.619058
C88   C     C_R   0.770291 0.512381 0.138001 0.600445
C89   C     C_R   0.453271 0.156498 0.436760 0.026444
C90   C     C_R   0.492122 0.164316 0.580728 0.048704
C91   C     C_R   0.953271 0.656498 0.436760 0.026444
C92   C     C_R   0.992122 0.664316 0.580728 0.048704
C93   C     C_R   0.482095 0.261758 0.466599 0.026437
C94   C     C_R   0.501810 0.265145 0.536820 0.009474
C95   C     C_R   0.982096 0.761758 0.466599 0.026438
C96   C     C_R   0.001810 0.765146 0.536820 0.009474
C97   C     C_R   0.453310 0.063840 0.554881 0.212770
C98   C     C_R   0.437902 0.056449 0.481283 0.184020
C99   C     C_R   0.953310 0.563840 0.554881 0.212770
C100  C     C_R   0.937902 0.556449 0.481283 0.184021
Cr1   Cr    Cr6+3 0.771950 0.169480 0.750100 1.073675
Cr2   Cr    Cr6+3 0.228050 0.169480 0.249900 1.083407
Cr3   Cr    Cr6+3 0.271950 0.669480 0.750100 1.073675
Cr4   Cr    Cr6+3 0.728050 0.669480 0.249900 1.083407
Cr5   Cr    Cr6+3 0.614930 0.323340 0.749170 1.084399
Cr6   Cr    Cr6+3 0.385070 0.323340 0.250830 1.101342
Cr7   Cr    Cr6+3 0.114930 0.823340 0.749170 1.084400
Cr8   Cr    Cr6+3 0.885070 0.823340 0.250830 1.101342
Cr9   Cr    Cr6+3 0.616590 0.010620 0.750610 1.122380
Cr10  Cr    Cr6+3 0.383410 0.010620 0.249390 1.103460
Cr11  Cr    Cr6+3 0.116590 0.510620 0.750610 1.122380
Cr12  Cr    Cr6+3 0.883410 0.510620 0.249390 1.103460
H1    H     H_    0.652028 0.882085 0.075595 0.186890
H2    H     H_    0.322628 0.778094 0.939407 0.196343
H3    H     H_    0.152028 0.382085 0.075595 0.186891
H4    H     H_    0.822628 0.278094 0.939407 0.196343
H5    H     H_    0.032654 0.923008 0.422297 0.179792
H6    H     H_    0.116034 0.782855 0.532265 0.126983
H7    H     H_    0.532655 0.423008 0.422297 0.179792
H8    H     H_    0.616034 0.282856 0.532266 0.126984
H9    H     H_    0.582433 0.276435 0.410482 0.137859
H10   H     H_    0.565612 0.429293 0.544209 0.176458
H11   H     H_    0.082433 0.776435 0.410482 0.137859
H12   H     H_    0.065613 0.929293 0.544209 0.176458
H13   H     H_    0.636165 0.912421 0.556133 0.167207
H14   H     H_    0.300260 0.766684 0.421010 0.158512
H15   H     H_    0.136165 0.412421 0.556133 0.167207
H16   H     H_    0.800260 0.266684 0.421010 0.158512
H17   H     H_    0.648653 0.882750 0.428663 0.161815
H18   H     H_    0.291831 0.727397 0.548136 0.141986
H19   H     H_    0.148653 0.382750 0.428663 0.161815
H20   H     H_    0.791831 0.227397 0.548136 0.141986
H21   H     H_    0.445516 0.004407 0.920940 0.163738
H22   H     H_    0.425597 0.997036 0.047216 0.178677
H23   H     H_    0.945516 0.504407 0.920940 0.163738
H24   H     H_    0.925597 0.497037 0.047216 0.178677
H25   H     H_    0.543275 0.330489 0.076403 0.149387
H26   H     H_    0.567245 0.334857 0.948760 0.137981
H27   H     H_    0.043275 0.830489 0.076403 0.149387
H28   H     H_    0.067246 0.834857 0.948760 0.137982
O1    O     O_R   0.787510 0.042610 0.670410 -0.487522
O2    O     O_R   0.212490 0.042610 0.329590 -0.463137
O3    O     O_R   0.287510 0.542610 0.670410 -0.487522
O4    O     O_R   0.712490 0.542610 0.329590 -0.463137
O5    O     O_R   0.556450 0.252890 0.823790 -0.510128
O6    O     O_R   0.443550 0.252890 0.176210 -0.473137
O7    O     O_R   0.056450 0.752890 0.823790 -0.510128
O8    O     O_R   0.943550 0.752890 0.176210 -0.473137
O9    O     O_R   0.545750 0.051070 0.830560 -0.454672
O10   O     O_R   0.454250 0.051070 0.169440 -0.509862
O11   O     O_R   0.045750 0.551070 0.830560 -0.454672
O12   O     O_R   0.954250 0.551070 0.169440 -0.509862
O13   O     O_R   0.681210 0.959150 0.825320 -0.447371
O14   O     O_R   0.318790 0.959150 0.174680 -0.456737
O15   O     O_R   0.181210 0.459150 0.825320 -0.447371
O16   O     O_R   0.818790 0.459150 0.174680 -0.456737
O17   O     O_3   0.667820 0.167810 0.749960 -0.306641
O18   O     O_3   0.332180 0.167810 0.250040 -0.334568
O19   O     O_3   0.167820 0.667810 0.749960 -0.306641
O20   O     O_3   0.832180 0.667810 0.250040 -0.334568
O21   O     O_R   0.765670 0.292090 0.675090 -0.521362
O22   O     O_R   0.234330 0.292090 0.324910 -0.482422
O23   O     O_R   0.265670 0.792090 0.675090 -0.521362
O24   O     O_R   0.734330 0.792090 0.324910 -0.482422
O25   O     O_R   0.670220 0.409020 0.668560 -0.459521
O26   O     O_R   0.329780 0.409020 0.331440 -0.455176
O27   O     O_R   0.170220 0.909020 0.668560 -0.459521
O28   O     O_R   0.829780 0.909020 0.331440 -0.455176
O29   O     O_R   0.556580 0.251590 0.674980 -0.507880
O30   O     O_R   0.443420 0.251590 0.325020 -0.495933
O31   O     O_R   0.056580 0.751590 0.674980 -0.507880
O32   O     O_R   0.943420 0.751590 0.325020 -0.495933
O33   O     O_R   0.545890 0.049670 0.670030 -0.463787
O34   O     O_R   0.454110 0.049670 0.329970 -0.467015
O35   O     O_R   0.045890 0.549670 0.670030 -0.463787
O36   O     O_R   0.954110 0.549670 0.329970 -0.467015
O37   O     O_R   0.681340 0.957860 0.676500 -0.511661
O38   O     O_R   0.318660 0.957860 0.323500 -0.480678
O39   O     O_R   0.181340 0.457860 0.676500 -0.511661
O40   O     O_R   0.818660 0.457860 0.323500 -0.480678
O41   O     O_R   0.787380 0.044010 0.830940 -0.462124
O42   O     O_R   0.212620 0.044010 0.169060 -0.456780
O43   O     O_R   0.287380 0.544010 0.830940 -0.462125
O44   O     O_R   0.712620 0.544010 0.169060 -0.456780
O45   O     O_R   0.765540 0.293390 0.823910 -0.517544
O46   O     O_R   0.234460 0.293390 0.176090 -0.504242
O47   O     O_R   0.265540 0.793390 0.823910 -0.517544
O48   O     O_R   0.734460 0.793390 0.176090 -0.504242
O49   O     O_R   0.670090 0.410410 0.829090 -0.472448
O50   O     O_R   0.329910 0.410410 0.170910 -0.431991
O51   O     O_R   0.170090 0.910410 0.829090 -0.472448
O52   O     O_R   0.829910 0.910410 0.170910 -0.431990
O53   O     O_3   0.435053 0.972082 0.601397 -0.675859
H29   H     H_    0.394393 0.926796 0.582057 0.334996
O54   O     O_3   0.414070 0.949760 0.450711 -0.693455
H30   H     H_    0.431902 0.879575 0.478352 0.330037
O55   O     O_3   0.935053 0.472083 0.601397 -0.675860
H31   H     H_    0.894392 0.426797 0.582057 0.334995
O56   O     O_3   0.914070 0.449760 0.450711 -0.693453
H32   H     H_    0.931901 0.379575 0.478353 0.330036
O57   O     O_3   0.873539 0.916835 0.907458 -0.673430
H33   H     H_    0.913710 0.875604 0.930418 0.334455
O58   O     O_3   0.178322 0.140106 0.053119 -0.679337
H34   H     H_    0.138815 0.163588 0.022121 0.361774
O59   O     O_3   0.373539 0.416835 0.907458 -0.673434
H35   H     H_    0.413711 0.375610 0.930418 0.334458
O60   O     O_3   0.678323 0.640106 0.053119 -0.679337
H36   H     H_    0.638815 0.663588 0.022121 0.361774
O61   O     O_3   0.891128 0.922833 0.056515 -0.659249
H37   H     H_    0.919922 0.978938 0.027307 0.349459
O62   O     O_3   0.178025 0.105554 0.904643 -0.635887
H38   H     H_    0.127594 0.093973 0.916763 0.342729
O63   O     O_3   0.391128 0.422833 0.056515 -0.659251
H39   H     H_    0.419921 0.478941 0.027309 0.349459
O64   O     O_3   0.678025 0.605554 0.904643 -0.635887
H40   H     H_    0.627594 0.593973 0.916763 0.342729
Cl1   Cl    Cl    0.602327 0.880874 0.938912 -0.577568
Cl2   Cl    Cl    0.351281 0.772370 0.081855 -0.565623
Cl3   Cl    Cl    0.102327 0.380874 0.938912 -0.577567
Cl4   Cl    Cl    0.851281 0.272370 0.081855 -0.565620
O65   O     O_3   0.886025 0.962583 0.439860 -0.676189
H41   H     H_    0.918814 0.000501 0.473970 0.322685
O66   O     O_3   0.203642 0.106572 0.595046 -0.677960
H42   H     H_    0.210057 0.186867 0.572552 0.340804
O67   O     O_3   0.386025 0.462584 0.439860 -0.676189
H43   H     H_    0.418814 0.500500 0.473970 0.322685
O68   O     O_3   0.703642 0.606572 0.595046 -0.677960
H44   H     H_    0.710056 0.686867 0.572552 0.340804
O69   O     O_3   0.874887 0.937266 0.586936 -0.673885
H45   H     H_    0.894034 0.021347 0.583814 0.319099
O70   O     O_3   0.187861 0.134654 0.446663 -0.689440
H46   H     H_    0.147230 0.155569 0.477555 0.322757
O71   O     O_3   0.374887 0.437267 0.586936 -0.673887
H47   H     H_    0.394034 0.521348 0.583814 0.319099
O72   O     O_3   0.687861 0.634653 0.446663 -0.689440
H48   H     H_    0.647230 0.655569 0.477555 0.322757

loop_
_geom_bond_atom_site_label_1
_geom_bond_atom_site_label_2
_ccdc_geom_bond_type
C58   C62   A    
C65   Cl1   S    
O58   H34   S    
C93   C94   A    
C64   H4    S    
C55   C59   A    
C42   H26   S    
C34   C37   A    
C77   O45   A    
C41   C42   A    
C7    H5    S    
C19   C23   A    
C95   C96   A    
C78   O50   A    
C43   C44   A    
Cr9   O17   S    
Cr2   O18   S    
C97   C98   A    
C8    H6    S    
C7    C8    S    
C46   C89   S    
Cr7   O31   S    
C50   O58   S    
C15   C19   A    
C25   O69   S    
Cr2   O46   S    
C79   O47   A    
C5    H7    S    
C37   C41   A    
Cr11  O35   S    
C64   C68   A    
C11   H15   S    
C68   Cl4   S    
O67   H43   S    
C39   C84   S    
C62   H2    S    
C87   O43   A    
C5    C6    S    
C30   C74   S    
Cr9   O33   S    
C88   O44   A    
C29   C73   S    
C34   H22   S    
C47   O35   A    
C52   O60   S    
C5    H9    S    
Cr10  O14   S    
C92   C96   A    
C3    C18   S    
C46   O34   A    
C47   C92   S    
C97   O53   S    
C14   C18   A    
C56   O64   S    
C9    C13   A    
C23   O67   S    
C48   O32   A    
C11   C15   A    
Cr5   O17   S    
O66   H42   S    
C6    C94   S    
C48   C91   S    
C8    C96   S    
O72   H48   S    
C4    O24   A    
C43   H27   S    
C78   O46   A    
C23   C27   A    
C91   C100  A    
C24   O68   S    
C75   O39   A    
O71   H47   S    
C2    O26   A    
C90   C97   A    
C51   C55   A    
Cr10  O18   S    
C68   C72   A    
Cr12  O40   S    
C73   O37   A    
C83   O7    A    
C84   O8    A    
Cr8   O28   S    
Cr1   O17   S    
O56   H32   S    
C44   H28   S    
C79   O51   A    
C12   C32   A    
Cr11  O39   S    
C80   O52   A    
C40   C83   S    
C2    O22   A    
Cr1   O1    S    
Cr4   O20   S    
Cr1   O45   S    
C36   H24   S    
C59   C78   S    
C6    H8    S    
C72   C88   S    
C90   C94   A    
C49   O57   S    
Cr10  O34   S    
C83   O11   A    
C25   C29   A    
Cr4   O48   S    
Cr7   O27   S    
C60   C77   S    
C59   C63   A    
C62   C66   A    
C27   C31   A    
O60   H36   S    
Cr2   O42   S    
C12   C16   A    
C28   C32   A    
Cr3   O47   S    
C22   C26   A    
O61   H37   S    
C10   C14   A    
C35   H23   S    
C53   C57   A    
C8    H12   S    
C39   C43   A    
Cr9   O13   S    
Cr10  O10   S    
O59   H35   S    
C91   C95   A    
C89   C93   A    
C9    H13   S    
C4    O28   A    
Cr3   O3    S    
C35   C36   A    
Cr9   O9    S    
O64   H40   S    
C100  O56   S    
C63   C67   A    
C32   C76   S    
O69   H45   S    
C52   C72   A    
C69   C85   S    
C45   O33   A    
O65   H41   S    
Cr7   O7    S    
C10   C30   A    
C47   O31   A    
O68   H44   S    
C74   O38   A    
O63   H39   S    
C16   C20   A    
Cr5   O5    S    
Cr7   O19   S    
C99   O55   S    
Cr12  O12   S    
C33   C34   A    
C80   O48   A    
Cr11  O11   S    
C11   C31   A    
C85   O13   A    
C45   C90   S    
C82   O10   A    
C46   O30   A    
C75   O3    A    
C58   C79   S    
C71   C87   S    
C4    C17   S    
C84   O12   A    
C54   O62   S    
Cr12  O36   S    
C57   C80   S    
C26   C30   A    
C81   O5    A    
Cr8   O32   S    
C38   C81   S    
Cr12  O16   S    
Cr5   O29   S    
Cr3   O43   S    
C37   C82   S    
C73   O1    A    
C82   O6    A    
C70   C86   S    
C88   O16   A    
C31   C75   S    
C50   C54   A    
Cr1   O41   S    
Cr2   O22   S    
Cr6   O50   S    
C54   C58   A    
C2    C19   S    
C65   C69   A    
C14   H18   S    
C21   C25   A    
C1    C20   S    
C85   O41   A    
C21   O65   S    
Cr12  O20   S    
Cr4   O44   S    
C1    O25   A    
C18   C22   A    
C41   H25   S    
C36   C39   A    
C24   C28   A    
C81   O9    A    
C7    H11   S    
C76   O40   A    
C45   O29   A    
C55   O63   S    
C5    C93   S    
C51   C71   A    
Cr10  O38   S    
C57   C61   A    
Cr8   O20   S    
C87   O15   A    
C3    O23   A    
C26   O70   S    
O54   H30   S    
C7    C95   S    
C22   O66   S    
C66   C70   A    
C12   H16   S    
Cr3   O23   S    
C33   C38   A    
Cr6   O6    S    
C99   C100  A    
C13   C17   A    
C89   C98   A    
C60   C64   A    
C77   O49   A    
Cr1   O21   S    
C35   C40   A    
C86   O14   A    
C63   H3    S    
C66   Cl2   S    
Cr6   O18   S    
C56   C60   A    
C61   H1    S    
C9    C29   A    
Cr3   O19   S    
Cr4   O24   S    
C50   C70   A    
Cr6   O26   S    
C49   C53   A    
C51   O59   S    
C76   O4    A    
C67   Cl3   S    
Cr5   O49   S    
Cr5   O25   S    
C98   O54   S    
C67   C71   A    
C61   C65   A    
C74   O2    A    
O55   H31   S    
C16   H20   S    
C17   C21   A    
Cr4   O4    S    
C27   O71   S    
C28   O72   S    
C1    O21   A    
O62   H38   S    
C38   C42   A    
C33   H21   S    
C3    O27   A    
C40   C44   A    
C15   H19   S    
O57   H33   S    
C53   O61   S    
O53   H29   S    
Cr6   O30   S    
Cr7   O51   S    
O70   H46   S    
C86   O42   A    
Cr9   O37   S    
C6    H10   S    
Cr8   O52   S    
C49   C69   A    
Cr2   O2    S    
C48   O36   A    
C10   H14   S    
Cr11  O15   S    
C20   C24   A    
C13   H17   S    
C52   C56   A    
C92   C99   A    
Cr8   O8    S    
Cr11  O19   S    
