data_mof_unit_57102.cif
_audit_creation_date              2012-12-10T16:51:33-0500
_audit_creation_method            fapswitch 2.2
_symmetry_space_group_name_H-M    P1
_symmetry_Int_Tables_number       1
_space_group_crystal_system       triclinic
_cell_length_a                    7.828552
_cell_length_b                    8.57089
_cell_length_c                    12.12531
_cell_angle_alpha                 92.292775
_cell_angle_beta                  101.225147
_cell_angle_gamma                 94.19711
_cell_volume                      794.65091079

loop_
_atom_site_label
_atom_site_type_symbol
_atom_type_description
_atom_site_fract_x
_atom_site_fract_y
_atom_site_fract_z
_atom_type_partial_charge
C1    C     C_R   0.044702 0.794747 0.497389 0.969560
C2    C     C_R   0.159119 0.503832 0.831856 -0.120223
C3    C     C_2   0.068036 0.958520 0.496134 -0.393690
C4    C     C_R   0.106030 0.503634 0.710234 0.852163
C5    C     C_2   0.932451 0.041592 0.504871 -0.386865
C6    C     C_R   0.955466 0.205286 0.502961 0.956274
C7    C     C_R   0.892306 0.488224 0.289762 0.867770
C8    C     C_R   0.810468 0.287886 0.003519 -0.187361
C9    C     C_R   0.829591 0.456573 0.170329 -0.068921
C10   C     C_R   0.072938 0.594340 0.899378 -0.179470
C11   C     C_R   0.143839 0.624094 0.012922 -0.129346
C12   C     C_R   0.395809 0.483200 0.989941 0.080837
C13   C     C_R   0.305569 0.572082 0.057970 -0.200658
C14   C     C_R   0.310498 0.433126 0.879972 0.077948
C15   C     C_R   0.568267 0.443019 0.027078 0.080652
C16   C     C_R   0.641671 0.332670 0.963228 0.166653
C17   C     C_R   0.544181 0.266896 0.861507 -0.245348
C18   C     C_R   0.380421 0.316699 0.820011 -0.202549
C19   C     C_R   0.671022 0.512473 0.125434 -0.269796
C20   C     C_R   0.902874 0.346920 0.108713 -0.182615
H1    H     H_    0.026687 0.302285 0.143731 0.157291
H2    H     H_    0.308290 0.262001 0.741011 0.169691
H3    H     H_    0.195759 0.010128 0.487889 0.178244
H4    H     H_    0.530288 0.624721 0.583642 0.191104
H5    H     H_    0.804772 0.990003 0.513215 0.178888
H6    H     H_    0.469708 0.375244 0.416380 0.189037
H7    H     H_    0.595688 0.179154 0.813031 0.148284
H8    H     H_    0.867350 0.202780 0.956110 0.136470
H9    H     H_    0.626925 0.606112 0.172224 0.148796
H10   H     H_    0.953957 0.646408 0.863645 0.157301
H11   H     H_    0.354751 0.599710 0.146582 0.140649
H12   H     H_    0.076439 0.692538 0.065329 0.144893
N1    N     N_2   0.434800 0.456690 0.470850 -0.174693
N2    N     N_2   0.565200 0.543310 0.529150 -0.171040
O1    O     O_R   0.893060 0.738880 0.507150 -0.611092
O2    O     O_R   0.172250 0.711130 0.488470 -0.624709
O3    O     O_R   0.944700 0.520730 0.667600 -0.612383
O4    O     O_R   0.223890 0.492980 0.648920 -0.616686
O5    O     O_R   0.827750 0.288870 0.511530 -0.624151
O6    O     O_R   0.106940 0.261120 0.492850 -0.617385
O7    O     O_R   0.776110 0.507020 0.351080 -0.617653
O8    O     O_R   0.055300 0.479270 0.332400 -0.619376
Zn1   Zn    Zn3+2 0.813580 0.518530 0.512470 0.934866
Zn2   Zn    Zn3+2 0.186420 0.481470 0.487530 0.928638

loop_
_geom_bond_atom_site_label_1
_geom_bond_atom_site_label_2
_ccdc_geom_bond_type
O3    Zn1   S    
C2    C4    S    
O4    Zn2   S    
O1    Zn1   S    
C10   H10   S    
C9    C20   A    
C3    H3    S    
C12   C15   A    
O6    Zn2   S    
N1    N2    D    
C8    C16   A    
C20   H1    S    
C15   C19   A    
C12   C13   A    
O7    Zn1   S    
C8    C20   A    
O8    Zn2   S    
C5    H5    S    
C12   C14   A    
C11   H12   S    
C17   C18   A    
C13   H11   S    
C7    O7    A    
C5    C6    S    
C2    C14   A    
C6    O6    A    
O2    Zn2   S    
C10   C11   A    
C15   C16   A    
C17   H7    S    
C11   C13   A    
C4    O3    A    
C1    O1    A    
C8    H8    S    
C7    O8    A    
C7    C9    S    
C14   C18   A    
C6    O5    A    
O5    Zn1   S    
H6    N1    S    
C3    C5    D    
C18   H2    S    
N1    Zn2   S    
C9    C19   A    
C2    C10   A    
H4    N2    S    
N2    Zn1   S    
C1    O2    A    
C4    O4    A    
C16   C17   A    
C1    C3    S    
C19   H9    S    
