data_mof_unit_27037.cif
_audit_creation_date              2013-03-05T15:42:55-0500
_audit_creation_method            fapswitch 2.2
_symmetry_space_group_name_H-M    P1
_symmetry_Int_Tables_number       1
_space_group_crystal_system       triclinic
_cell_length_a                    15.066894
_cell_length_b                    10.930373
_cell_length_c                    9.695332
_cell_angle_alpha                 89.960816
_cell_angle_beta                  89.871001
_cell_angle_gamma                 90.283312
_cell_volume                      1596.6689722

loop_
_atom_site_label
_atom_site_type_symbol
_atom_site_description
_atom_site_fract_x
_atom_site_fract_y
_atom_site_fract_z
_atom_type_partial_charge
O1    O     O_R   0.500020 0.321960 0.617040 -0.574846
O2    O     O_R   0.499980 0.321920 0.382900 -0.570607
C1    C     C_R   0.498023 0.265354 0.500062 0.877049
O3    O     O_R   0.370270 0.499990 0.617090 -0.582304
O4    O     O_R   0.370240 0.499950 0.382940 -0.545131
C2    C     C_R   0.329025 0.499947 0.500169 0.860606
Cu1   Cu    Cu3+1 0.500020 0.500020 0.638630 1.027814
Cu2   Cu    Cu3+1 0.499980 0.499980 0.361370 1.011628
O5    O     O_R   0.500020 0.678080 0.617100 -0.528108
O6    O     O_R   0.499980 0.678040 0.382960 -0.596226
O7    O     O_R   0.629760 0.500050 0.617060 -0.564171
O8    O     O_R   0.629730 0.500010 0.382910 -0.576962
C3    C     C_R   0.504393 0.734689 0.500082 0.764075
C4    C     C_R   0.670747 0.498645 0.499831 0.793597
C5    C     C_R   0.813362 0.592148 0.549945 -0.177097
C6    C     C_R   0.766865 0.492122 0.499530 -0.099238
C7    C     C_R   0.811242 0.388129 0.449682 -0.074284
C8    C     C_R   0.905665 0.384010 0.454483 -0.065835
C9    C     C_R   0.952452 0.489973 0.500372 0.050016
C10   C     C_R   0.905350 0.593216 0.547671 0.072777
C11   C     C_R   0.955023 0.278227 0.418610 0.220614
C12   C     C_R   0.048120 0.281203 0.420033 0.255298
C13   C     C_R   0.094076 0.390965 0.451404 -0.125192
C14   C     C_R   0.046181 0.493544 0.499683 -0.046787
C15   C     C_R   0.091885 0.599838 0.547801 -0.005246
C16   C     C_R   0.042183 0.705502 0.583600 0.308027
C17   C     C_R   0.950054 0.698981 0.588026 -0.197719
C18   C     C_R   0.187197 0.400021 0.438597 0.332113
C19   C     C_R   0.232167 0.498195 0.500775 -0.214759
C20   C     C_R   0.185258 0.595084 0.561449 -0.125926
H1    H     H_    0.777223 0.671412 0.586903 0.166772
H2    H     H_    0.912774 0.779791 0.616619 0.211786
C21   C     C_2   0.495413 0.933262 0.391797 -0.231686
C22   C     C_2   0.522307 0.865695 0.500184 0.182634
H3    H     H_    0.463783 0.889799 0.303795 0.175959
C23   C     C_2   0.502143 0.066804 0.387632 -0.057562
C24   C     C_2   0.490386 0.133489 0.501779 -0.168900
H4    H     H_    0.512408 0.110299 0.288055 0.181130
H5    H     H_    0.473831 0.090638 0.599611 0.181719
C25   C     C_2   0.447842 0.430549 0.922350 -0.027562
N1    N     N_2   0.499020 0.498660 0.846910 -0.278441
H6    H     H_    0.401037 0.370161 0.871179 0.174667
H7    H     H_    0.544949 0.554206 0.893719 0.213861
C26   C     C_2   0.449333 0.428444 0.078059 -0.021674
N2    N     N_2   0.499000 0.498630 0.153040 -0.287272
H8    H     H_    0.405335 0.364166 0.129644 0.199408
H9    H     H_    0.539455 0.561752 0.105848 0.207337
N3    N     N_R   0.577569 0.915796 0.607854 0.112710
O9    O     O_R   0.566539 0.881564 0.735328 -0.326254
O10   O     O_R   0.646028 0.983443 0.576331 -0.308706
C27   C     C_1   0.757753 0.289476 0.393007 0.362627
N4    N     N_1   0.714360 0.211544 0.347924 -0.188989
N5    N     N_R   0.912298 0.162874 0.394517 0.144625
O11   O     O_R   0.890259 0.093539 0.498342 -0.272892
O12   O     O_R   0.903886 0.121669 0.269332 -0.269577
N6    N     N_R   0.094971 0.167495 0.410040 0.196376
O13   O     O_R   0.088320 0.099794 0.300205 -0.203028
O14   O     O_R   0.139758 0.127821 0.515407 -0.231767
N7    N     N_R   0.236077 0.312849 0.357999 0.139544
O15   O     O_R   0.218829 0.299823 0.227386 -0.316793
O16   O     O_R   0.298696 0.248169 0.413867 -0.350376
C28   C     C_1   0.233952 0.685290 0.641716 0.361700
N8    N     N_1   0.273163 0.756602 0.705802 -0.186942
N9    N     N_R   0.082753 0.823657 0.599440 0.138747
O17   O     O_R   0.132892 0.866617 0.501069 -0.260194
O18   O     O_R   0.055490 0.897402 0.695784 -0.266163

loop_
_geom_bond_atom_site_label_1
_geom_bond_atom_site_label_2
_geom_bond_distance
_ccdc_geom_bond_type
C7    C8    1.424452 A    
C3    C22   1.455844 S    
O4    Cu2   1.965464 S    
Cu1   O7    1.965465 S    
C13   C14   1.415693 A    
C14   C15   1.426867 A    
C25   N1    1.294159 D    
C19   C20   1.404815 A    
C27   N4    1.157759 T    
C10   C17   1.391866 A    
C8    C11   1.420859 A    
C9    C10   1.412297 A    
O8    C4    1.292432 A    
Cu2   O8    1.966519 S    
N9    O17   1.301314 A    
C2    C19   1.459383 S    
C25   H6    1.084693 S    
C9    C14   1.412558 A    
C17   H2    1.084943 S    
N7    O15   1.301061 A    
C24   H5    1.085566 S    
O1    Cu1   1.957629 S    
N5    O11   1.301098 A    
C26   N2    1.294039 D    
C11   N5    1.432391 S    
N1    H7    1.025224 S    
C7    C27   1.452041 S    
C16   C17   1.390139 A    
C28   N8    1.157770 T    
C18   N7    1.437454 S    
C23   C24   1.337512 D    
O3    Cu1   1.966517 S    
O4    C2    1.293917 A    
N3    O10   1.301831 A    
C18   C19   1.403396 A    
C21   H3    1.086695 S    
N6    O14   1.300934 A    
C21   C22   1.348229 D    
O2    C1    1.293124 A    
N5    O12   1.301106 A    
C20   C28   1.453454 S    
C5    C10   1.386084 A    
Cu2   O6    1.957629 S    
O7    C4    1.292420 A    
C4    C6    1.450310 S    
N7    O16   1.300675 A    
Cu1   Cu2   2.688130 S    
C13   C18   1.411231 A    
O5    C3    1.293317 A    
C23   H4    1.086265 S    
C25   C26   1.510027 S    
C21   C23   1.463206 S    
C22   N3    1.443282 S    
N6    O13   1.300942 A    
C1    C24   1.445431 S    
O3    C2    1.293976 A    
C8    C9    1.424911 A    
N2    H9    1.025209 S    
C15   C20   1.414552 A    
Cu1   O5    1.957281 S    
C16   N9    1.434593 S    
Cu2   N2    2.019979 S    
N3    O9    1.301116 A    
C12   N6    1.435588 S    
C15   C16   1.422351 A    
C11   C12   1.403001 A    
C5    H1    1.086146 S    
C12   C13   1.415823 A    
O2    Cu2   1.957281 S    
C5    C6    1.385556 A    
Cu1   N1    2.019409 S    
C26   H8    1.084724 S    
C6    C7    1.406944 A    
O1    C1    1.292646 A    
O6    C3    1.295440 A    
N9    O18   1.301367 A    
