data_mof_unit_65098.cif
_audit_creation_date              2012-12-10T18:53:35-0500
_audit_creation_method            fapswitch 2.2
_symmetry_space_group_name_H-M    P1
_symmetry_Int_Tables_number       1
_space_group_crystal_system       triclinic
_cell_length_a                    30.232517
_cell_length_b                    30.232939
_cell_length_c                    21.718054
_cell_angle_alpha                 89.967771
_cell_angle_beta                  89.967033
_cell_angle_gamma                 89.999149
_cell_volume                      19850.682427

loop_
_atom_site_label
_atom_site_type_symbol
_atom_type_description
_atom_site_fract_x
_atom_site_fract_y
_atom_site_fract_z
_atom_type_partial_charge
C1    C     C_R   0.500001 0.086160 0.000003 0.834969
C2    C     C_R   0.086180 0.500000 0.000005 0.906494
C3    C     C_R   0.500000 0.913819 0.999996 0.906382
C4    C     C_R   0.913840 0.499999 0.999997 0.834955
C5    C     C_R   0.000001 0.586160 0.500003 0.834970
C6    C     C_R   0.586180 1.000000 0.500004 0.906502
C7    C     C_R   0.000000 0.413819 0.499995 0.906373
C8    C     C_R   0.413840 0.999999 0.499997 0.834955
C9    C     C_R   0.500010 0.225771 0.000044 0.024917
C10   C     C_R   0.225802 0.499983 0.000092 0.089476
C11   C     C_R   0.500017 0.774193 0.999909 0.089487
C12   C     C_R   0.774229 0.499990 0.999955 0.024921
C13   C     C_R   0.000010 0.725771 0.500044 0.024918
C14   C     C_R   0.725803 0.999984 0.500093 0.089475
C15   C     C_R   0.000015 0.274193 0.499907 0.089488
C16   C     C_R   0.274229 0.999990 0.499955 0.024921
C17   C     C_R   0.466125 0.296679 0.031071 -0.024986
C18   C     C_R   0.296742 0.534050 0.030682 -0.028300
C19   C     C_R   0.534109 0.703233 0.030472 -0.028459
C20   C     C_R   0.703296 0.466079 0.030925 -0.025171
C21   C     C_R   0.533918 0.296703 0.969067 -0.025172
C22   C     C_R   0.703321 0.533878 0.968935 -0.024984
C23   C     C_R   0.465954 0.703254 0.969309 -0.028306
C24   C     C_R   0.296763 0.465887 0.969538 -0.028456
C25   C     C_R   0.966124 0.796679 0.531071 -0.024986
C26   C     C_R   0.796742 0.034050 0.530684 -0.028300
C27   C     C_R   0.034108 0.203234 0.530471 -0.028459
C28   C     C_R   0.203296 0.966079 0.530925 -0.025171
C29   C     C_R   0.033918 0.796703 0.469066 -0.025172
C30   C     C_R   0.203321 0.033878 0.468936 -0.024984
C31   C     C_R   0.965953 0.203253 0.469308 -0.028306
C32   C     C_R   0.796763 0.965888 0.469538 -0.028455
C33   C     C_R   0.466069 0.342951 0.031065 -0.067482
C34   C     C_R   0.343007 0.534092 0.030674 -0.067460
C35   C     C_R   0.534142 0.656969 0.030499 -0.067897
C36   C     C_R   0.657024 0.466020 0.030912 -0.067893
C37   C     C_R   0.533977 0.342975 0.969080 -0.067888
C38   C     C_R   0.657048 0.533933 0.968941 -0.067485
C39   C     C_R   0.465911 0.656990 0.969318 -0.067457
C40   C     C_R   0.343028 0.465854 0.969510 -0.067900
C41   C     C_R   0.966069 0.842951 0.531065 -0.067482
C42   C     C_R   0.843007 0.034092 0.530676 -0.067460
C43   C     C_R   0.034142 0.156969 0.530498 -0.067897
C44   C     C_R   0.157024 0.966020 0.530912 -0.067893
C45   C     C_R   0.033977 0.842975 0.469080 -0.067888
C46   C     C_R   0.157048 0.033934 0.468941 -0.067486
C47   C     C_R   0.965910 0.156989 0.469318 -0.067456
C48   C     C_R   0.843028 0.965855 0.469510 -0.067901
C49   C     C_R   0.500016 0.365909 0.000056 -0.130248
C50   C     C_R   0.365947 0.499984 0.000064 -0.130475
C51   C     C_R   0.500016 0.634051 0.999936 -0.130474
C52   C     C_R   0.634090 0.499984 0.999942 -0.130245
C53   C     C_R   0.000016 0.865909 0.500056 -0.130249
C54   C     C_R   0.865947 0.999984 0.500065 -0.130475
C55   C     C_R   0.000015 0.134051 0.499936 -0.130473
C56   C     C_R   0.134090 0.999984 0.499943 -0.130245
C57   C     C_R   0.500016 0.273862 0.000058 -0.024188
C58   C     C_R   0.273907 0.499971 0.000109 -0.021113
C59   C     C_R   0.500029 0.726089 0.999892 -0.021074
C60   C     C_R   0.726137 0.499984 0.999941 -0.024189
C61   C     C_R   0.000016 0.773862 0.500058 -0.024188
C62   C     C_R   0.773907 0.999972 0.500110 -0.021115
C63   C     C_R   0.000028 0.226089 0.499891 -0.021071
C64   C     C_R   0.226137 0.999984 0.499941 -0.024189
C65   C     C_R   0.586061 0.499999 0.999983 0.887484
C66   C     C_R   0.500001 0.413938 0.000017 0.887479
C67   C     C_R   0.413952 0.499999 0.000018 0.887843
C68   C     C_R   0.500001 0.586048 0.999982 0.887847
C69   C     C_R   0.086061 0.999999 0.499983 0.887484
C70   C     C_R   0.000001 0.913938 0.500017 0.887479
C71   C     C_R   0.913952 0.999999 0.500018 0.887842
C72   C     C_R   0.000001 0.086047 0.499982 0.887848
C73   C     C_R   0.499971 0.000047 0.119999 0.869050
C74   C     C_R   0.999897 0.499966 0.119999 0.868976
C75   C     C_R   0.500034 0.000103 0.880000 0.868954
C76   C     C_R   0.999952 0.500029 0.880001 0.869070
C77   C     C_R   0.999971 0.500047 0.619999 0.869047
C78   C     C_R   0.499897 0.999966 0.619999 0.868979
C79   C     C_R   0.000034 0.500103 0.380000 0.868951
C80   C     C_R   0.499952 0.000029 0.380001 0.869073
C81   C     C_R   0.551889 0.936340 0.187137 -0.143285
C82   C     C_R   0.936809 0.447229 0.187374 -0.153038
C83   C     C_R   0.447466 0.063446 0.186988 -0.152797
C84   C     C_R   0.063953 0.551592 0.186751 -0.142784
C85   C     C_R   0.448396 0.936056 0.813247 -0.142761
C86   C     C_R   0.063671 0.448127 0.812864 -0.143309
C87   C     C_R   0.552784 0.063180 0.812624 -0.153035
C88   C     C_R   0.936545 0.552523 0.813015 -0.152801
C89   C     C_R   0.051889 0.436340 0.687137 -0.143285
C90   C     C_R   0.436810 0.947229 0.687374 -0.153038
C91   C     C_R   0.947466 0.563446 0.686988 -0.152798
C92   C     C_R   0.563954 0.051591 0.686750 -0.142786
C93   C     C_R   0.948395 0.436056 0.313246 -0.142758
C94   C     C_R   0.563671 0.948127 0.312864 -0.143308
C95   C     C_R   0.052783 0.563181 0.312624 -0.153036
C96   C     C_R   0.436546 0.052524 0.313015 -0.152802
C97   C     C_R   0.582605 0.910604 0.218765 -0.138032
C98   C     C_R   0.911194 0.416498 0.219200 -0.129240
C99   C     C_R   0.416950 0.089371 0.218671 -0.128588
C100  C     C_R   0.090000 0.582092 0.218232 -0.137576
C101  C     C_R   0.417891 0.910016 0.781765 -0.137549
C102  C     C_R   0.089416 0.417417 0.781237 -0.138062
C103  C     C_R   0.583521 0.088788 0.780796 -0.129246
C104  C     C_R   0.910615 0.583035 0.781333 -0.128580
C105  C     C_R   0.082605 0.410604 0.718765 -0.138031
C106  C     C_R   0.411195 0.916497 0.719201 -0.129240
C107  C     C_R   0.916950 0.589371 0.718671 -0.128586
C108  C     C_R   0.590001 0.082091 0.718232 -0.137578
C109  C     C_R   0.917890 0.410017 0.281764 -0.137546
C110  C     C_R   0.589416 0.917417 0.281237 -0.138064
C111  C     C_R   0.083520 0.588789 0.280797 -0.129247
C112  C     C_R   0.410615 0.083035 0.281333 -0.128579
C113  C     C_R   0.530333 0.972768 0.282125 0.075673
C114  C     C_R   0.972913 0.469410 0.282290 0.078987
C115  C     C_R   0.469608 0.027554 0.282167 0.076369
C116  C     C_R   0.027701 0.530129 0.281998 0.073008
C117  C     C_R   0.469866 0.972304 0.718000 0.073003
C118  C     C_R   0.027240 0.469673 0.717876 0.075656
C119  C     C_R   0.530595 0.027081 0.717708 0.078997
C120  C     C_R   0.972441 0.530387 0.717835 0.076383
C121  C     C_R   0.030333 0.472767 0.782125 0.075672
C122  C     C_R   0.472913 0.969410 0.782290 0.078989
C123  C     C_R   0.969608 0.527554 0.782167 0.076369
C124  C     C_R   0.527702 0.030129 0.781998 0.073006
C125  C     C_R   0.969866 0.472305 0.218000 0.073004
C126  C     C_R   0.527240 0.969673 0.217876 0.075656
C127  C     C_R   0.030595 0.527081 0.217708 0.078995
C128  C     C_R   0.472441 0.030387 0.217835 0.076383
C129  C     C_R   0.499973 0.000135 0.313841 -0.204144
C130  C     C_R   0.000166 0.499937 0.313840 -0.204127
C131  C     C_R   0.500063 0.999834 0.686159 -0.204103
C132  C     C_R   0.999866 0.500027 0.686160 -0.204168
C133  C     C_R   0.999973 0.500135 0.813841 -0.204145
C134  C     C_R   0.500166 0.999937 0.813840 -0.204127
C135  C     C_R   0.000063 0.499834 0.186159 -0.204104
C136  C     C_R   0.499866 0.000027 0.186160 -0.204167
C137  C     C_R   0.521944 0.203123 0.046851 -0.123222
C138  C     C_R   0.203115 0.472566 0.040964 -0.197372
C139  C     C_R   0.472498 0.796815 0.040684 -0.197122
C140  C     C_R   0.796821 0.521929 0.046774 -0.122752
C141  C     C_R   0.478079 0.203178 0.953218 -0.122745
C142  C     C_R   0.796877 0.478049 0.953155 -0.123227
C143  C     C_R   0.527522 0.796880 0.959153 -0.197416
C144  C     C_R   0.203181 0.527412 0.959200 -0.197077
C145  C     C_R   0.021944 0.703123 0.546850 -0.123222
C146  C     C_R   0.703115 0.972573 0.540973 -0.197368
C147  C     C_R   0.972490 0.296815 0.540672 -0.197126
C148  C     C_R   0.296821 0.021929 0.546775 -0.122752
C149  C     C_R   0.978078 0.703178 0.453219 -0.122746
C150  C     C_R   0.296877 0.978049 0.453154 -0.123226
C151  C     C_R   0.027530 0.296880 0.459162 -0.197422
C152  C     C_R   0.703181 0.027407 0.459193 -0.197074
C153  C     C_R   0.522307 0.157226 0.047215 0.064099
C154  C     C_R   0.157088 0.472383 0.041264 0.046365
C155  C     C_R   0.472298 0.842841 0.041037 0.045866
C156  C     C_R   0.842718 0.522292 0.047170 0.063728
C157  C     C_R   0.477716 0.157281 0.952823 0.063730
C158  C     C_R   0.842774 0.477685 0.952791 0.064097
C159  C     C_R   0.527706 0.842906 0.958851 0.046449
C160  C     C_R   0.157154 0.527611 0.958847 0.045787
C161  C     C_R   0.022308 0.657226 0.547214 0.064099
C162  C     C_R   0.657088 0.972390 0.541272 0.046359
C163  C     C_R   0.972290 0.342841 0.541027 0.045876
C164  C     C_R   0.342718 0.022291 0.547171 0.063728
C165  C     C_R   0.977715 0.657281 0.452823 0.063730
C166  C     C_R   0.342774 0.977686 0.452791 0.064097
C167  C     C_R   0.027714 0.342906 0.458862 0.046455
C168  C     C_R   0.657154 0.027606 0.458840 0.045781
C169  C     C_R   0.500005 0.134041 0.000016 -0.108659
C170  C     C_R   0.134080 0.499998 0.000038 -0.035544
C171  C     C_R   0.500002 0.865916 0.999962 -0.035720
C172  C     C_R   0.865959 0.499995 0.999983 -0.108658
C173  C     C_R   0.000005 0.634041 0.500016 -0.108661
C174  C     C_R   0.634080 0.999998 0.500038 -0.035532
C175  C     C_R   0.000002 0.365916 0.499962 -0.035736
C176  C     C_R   0.365959 0.999995 0.499983 -0.108657
H1    H     H_    0.397714 0.113988 0.194306 0.147644
H2    H     H_    0.114840 0.601011 0.193797 0.148177
H3    H     H_    0.601641 0.885789 0.194494 0.148594
H4    H     H_    0.886585 0.397169 0.195003 0.148073
H5    H     H_    0.602855 0.113394 0.804993 0.148072
H6    H     H_    0.885995 0.602267 0.805699 0.147644
H7    H     H_    0.398966 0.885180 0.806200 0.148169
H8    H     H_    0.114235 0.398387 0.805508 0.148602
H9    H     H_    0.897714 0.613988 0.694306 0.147643
H10   H     H_    0.614841 0.101010 0.693796 0.148177
H11   H     H_    0.101641 0.385789 0.694494 0.148593
H12   H     H_    0.386586 0.897168 0.695003 0.148073
H13   H     H_    0.102853 0.613395 0.304993 0.148072
H14   H     H_    0.385996 0.102268 0.305699 0.147644
H15   H     H_    0.898965 0.385181 0.306199 0.148168
H16   H     H_    0.614235 0.898387 0.305508 0.148603
H17   H     H_    0.547639 0.929424 0.138694 0.153463
H18   H     H_    0.930035 0.451057 0.138838 0.148421
H19   H     H_    0.451235 0.070025 0.138385 0.148347
H20   H     H_    0.070687 0.547371 0.138244 0.153288
H21   H     H_    0.452615 0.929321 0.861752 0.153270
H22   H     H_    0.070585 0.452378 0.861308 0.153479
H23   H     H_    0.548957 0.069956 0.861159 0.148431
H24   H     H_    0.929967 0.548755 0.861619 0.148337
H25   H     H_    0.047639 0.429424 0.638695 0.153461
H26   H     H_    0.430036 0.951056 0.638838 0.148421
H27   H     H_    0.951235 0.570025 0.638385 0.148347
H28   H     H_    0.570687 0.047370 0.638244 0.153289
H29   H     H_    0.952615 0.429321 0.361752 0.153268
H30   H     H_    0.570585 0.952378 0.361308 0.153481
H31   H     H_    0.048956 0.569957 0.361159 0.148431
H32   H     H_    0.429968 0.048755 0.361619 0.148338
H33   H     H_    0.538721 0.221241 0.083019 0.158389
H34   H     H_    0.221191 0.451594 0.072683 0.146736
H35   H     H_    0.451462 0.778689 0.072294 0.147063
H36   H     H_    0.778660 0.538703 0.082932 0.158727
H37   H     H_    0.461311 0.221338 0.917054 0.158726
H38   H     H_    0.778759 0.461265 0.916992 0.158389
H39   H     H_    0.548564 0.778804 0.927521 0.146735
H40   H     H_    0.221307 0.548379 0.927501 0.147063
H41   H     H_    0.038722 0.721241 0.583018 0.158389
H42   H     H_    0.721190 0.951606 0.572699 0.146736
H43   H     H_    0.951447 0.278689 0.572273 0.147063
H44   H     H_    0.278660 0.038702 0.582933 0.158727
H45   H     H_    0.961309 0.721338 0.417056 0.158726
H46   H     H_    0.278759 0.961267 0.416991 0.158389
H47   H     H_    0.048578 0.278803 0.427540 0.146735
H48   H     H_    0.721307 0.048369 0.427489 0.147064
O1    O     O_R   0.463050 0.065470 0.999990 -0.629073
O2    O     O_R   0.065470 0.536950 0.999990 -0.611021
O3    O     O_R   0.536950 0.934530 0.999990 -0.611250
O4    O     O_R   0.934530 0.463050 0.999990 -0.629316
O5    O     O_R   0.536950 0.065470 0.000010 -0.629312
O6    O     O_R   0.934530 0.536950 0.000010 -0.629079
O7    O     O_R   0.463050 0.934530 0.000010 -0.610972
O8    O     O_R   0.065470 0.463050 0.000010 -0.611298
O9    O     O_R   0.963050 0.565470 0.499990 -0.629073
O10   O     O_R   0.565470 0.036950 0.499990 -0.611025
O11   O     O_R   0.036950 0.434530 0.499990 -0.611245
O12   O     O_R   0.434530 0.963050 0.499990 -0.629316
O13   O     O_R   0.036950 0.565470 0.500010 -0.629312
O14   O     O_R   0.434530 0.036950 0.500010 -0.629079
O15   O     O_R   0.963050 0.434530 0.500010 -0.610968
O16   O     O_R   0.565470 0.963050 0.500010 -0.611301
O17   O     O_R   0.463050 0.999990 0.091600 -0.613576
O18   O     O_R   0.999990 0.536950 0.091600 -0.626300
O19   O     O_R   0.536950 0.000010 0.091600 -0.627140
O20   O     O_R   0.000010 0.463050 0.091600 -0.614355
O21   O     O_R   0.536950 0.999990 0.908400 -0.614368
O22   O     O_R   0.000010 0.536950 0.908400 -0.613566
O23   O     O_R   0.463050 0.000010 0.908400 -0.626298
O24   O     O_R   0.999990 0.463050 0.908400 -0.627137
O25   O     O_R   0.963050 0.499990 0.591600 -0.613576
O26   O     O_R   0.499990 0.036950 0.591600 -0.626300
O27   O     O_R   0.036950 0.500010 0.591600 -0.627140
O28   O     O_R   0.500010 0.963050 0.591600 -0.614355
O29   O     O_R   0.036950 0.499990 0.408400 -0.614368
O30   O     O_R   0.500010 0.036950 0.408400 -0.613566
O31   O     O_R   0.963050 0.500010 0.408400 -0.626298
O32   O     O_R   0.499990 0.963050 0.408400 -0.627138
O33   O     O_R   0.565470 0.500020 0.051710 -0.611763
O34   O     O_R   0.500020 0.434530 0.051710 -0.611851
O35   O     O_R   0.434530 0.499980 0.051710 -0.612031
O36   O     O_R   0.499980 0.565470 0.051710 -0.611940
O37   O     O_R   0.434530 0.500020 0.948290 -0.611938
O38   O     O_R   0.499980 0.434530 0.948290 -0.611762
O39   O     O_R   0.565470 0.499980 0.948290 -0.611852
O40   O     O_R   0.500020 0.565470 0.948290 -0.612033
O41   O     O_R   0.065470 0.000020 0.551710 -0.611763
O42   O     O_R   0.000020 0.934530 0.551710 -0.611850
O43   O     O_R   0.934530 0.999980 0.551710 -0.612031
O44   O     O_R   0.999980 0.065470 0.551710 -0.611940
O45   O     O_R   0.934530 0.000020 0.448290 -0.611937
O46   O     O_R   0.999980 0.934530 0.448290 -0.611762
O47   O     O_R   0.065470 0.999980 0.448290 -0.611852
O48   O     O_R   0.000020 0.065470 0.448290 -0.612033
Zn1   Zn    Zn3+2 0.450650 0.000000 0.000000 0.964792
Zn2   Zn    Zn3+2 0.000000 0.549350 0.000000 0.964797
Zn3   Zn    Zn3+2 0.549350 0.000000 0.000000 0.962131
Zn4   Zn    Zn3+2 0.000000 0.450650 0.000000 0.962147
Zn5   Zn    Zn3+2 0.950650 0.500000 0.500000 0.964792
Zn6   Zn    Zn3+2 0.500000 0.049350 0.500000 0.964797
Zn7   Zn    Zn3+2 0.049350 0.500000 0.500000 0.962130
Zn8   Zn    Zn3+2 0.500000 0.950650 0.500000 0.962147
Zn9   Zn    Zn3+2 0.500000 0.500000 0.069060 1.012816
Zn10  Zn    Zn3+2 0.500000 0.500000 0.930940 1.012816
Zn11  Zn    Zn3+2 0.000000 0.000000 0.569060 1.012816
Zn12  Zn    Zn3+2 0.000000 0.000000 0.430940 1.012816
N1    N     N_3   0.544539 0.135034 0.096673 -0.450609
H49   H     H_    0.570764 0.116697 0.078524 0.216321
H50   H     H_    0.522303 0.113375 0.117894 0.176983
N2    N     N_3   0.133737 0.445123 0.084415 -0.445387
H51   H     H_    0.143582 0.454203 0.128791 0.185227
H52   H     H_    0.143383 0.412314 0.077251 0.199348
N3    N     N_3   0.444926 0.866118 0.084093 -0.444378
H53   H     H_    0.412137 0.856479 0.076755 0.200250
H54   H     H_    0.453896 0.856203 0.128498 0.185932
N4    N     N_3   0.864855 0.544498 0.096664 -0.449331
H55   H     H_    0.886482 0.522245 0.117885 0.177054
H56   H     H_    0.883224 0.570723 0.078550 0.217060
N5    N     N_3   0.455517 0.135144 0.903323 -0.449331
H57   H     H_    0.477774 0.113518 0.882107 0.177049
H58   H     H_    0.429291 0.116774 0.921430 0.217054
N6    N     N_3   0.864966 0.455445 0.903340 -0.450608
H59   H     H_    0.883302 0.429222 0.921496 0.216330
H60   H     H_    0.886628 0.477676 0.882113 0.176987
N7    N     N_3   0.555061 0.866252 0.915811 -0.445220
H61   H     H_    0.546081 0.856401 0.871398 0.185221
H62   H     H_    0.587855 0.856609 0.923119 0.199317
N8    N     N_3   0.133873 0.554886 0.915677 -0.444549
H63   H     H_    0.143518 0.587690 0.922862 0.200281
H64   H     H_    0.143778 0.545810 0.871310 0.185932
N9    N     N_3   0.044541 0.635035 0.596671 -0.450608
H65   H     H_    0.070766 0.616697 0.578521 0.216321
H66   H     H_    0.022306 0.613375 0.617893 0.176984
N10   N     N_3   0.633737 0.945136 0.584431 -0.445399
H67   H     H_    0.643580 0.954223 0.628805 0.185228
H68   H     H_    0.643383 0.912326 0.577277 0.199350
N11   N     N_3   0.944913 0.366118 0.584077 -0.444364
H69   H     H_    0.912125 0.356478 0.576732 0.200246
H70   H     H_    0.953879 0.356203 0.628483 0.185931
N12   N     N_3   0.364855 0.044497 0.596665 -0.449331
H71   H     H_    0.386482 0.022244 0.617885 0.177054
H72   H     H_    0.383224 0.070722 0.578551 0.217060
N13   N     N_3   0.955515 0.635144 0.403324 -0.449331
H73   H     H_    0.977773 0.613518 0.382108 0.177050
H74   H     H_    0.929289 0.616774 0.421432 0.217054
N14   N     N_3   0.364966 0.955446 0.403338 -0.450607
H75   H     H_    0.383303 0.929224 0.421494 0.216329
H76   H     H_    0.386628 0.977678 0.382113 0.176986
N15   N     N_3   0.055080 0.366251 0.415833 -0.445201
H77   H     H_    0.046110 0.356399 0.371417 0.185220
H78   H     H_    0.087872 0.356609 0.423157 0.199314
N16   N     N_3   0.633873 0.054874 0.415663 -0.444562
H79   H     H_    0.643516 0.087680 0.422843 0.200284
H80   H     H_    0.643780 0.045795 0.371298 0.185933
C177  C     C_1   0.431376 0.272451 0.062621 0.187111
N17   N     N_1   0.403705 0.253093 0.087748 -0.192163
C178  C     C_1   0.272556 0.568794 0.062259 0.183649
N18   N     N_1   0.253235 0.596463 0.087405 -0.194736
C179  C     C_1   0.568856 0.727396 0.062039 0.184045
N19   N     N_1   0.596527 0.746698 0.087175 -0.193847
C180  C     C_1   0.727500 0.431323 0.062458 0.187473
N20   N     N_1   0.746838 0.403646 0.087571 -0.191312
C181  C     C_1   0.568673 0.272500 0.937527 0.187472
N21   N     N_1   0.596348 0.253162 0.912409 -0.191310
C182  C     C_1   0.727549 0.568629 0.937391 0.187108
N22   N     N_1   0.746908 0.596302 0.912269 -0.192170
C183  C     C_1   0.431217 0.727438 0.937713 0.183613
N23   N     N_1   0.403554 0.746758 0.912553 -0.194743
C184  C     C_1   0.272599 0.431133 0.937990 0.184082
N24   N     N_1   0.253295 0.403456 0.912869 -0.193837
C185  C     C_1   0.931375 0.772451 0.562621 0.187110
N25   N     N_1   0.903704 0.753093 0.587748 -0.192163
C186  C     C_1   0.772556 0.068794 0.562262 0.183652
N26   N     N_1   0.753235 0.096463 0.587408 -0.194736
C187  C     C_1   0.068854 0.227396 0.562038 0.184041
N27   N     N_1   0.096525 0.246699 0.587175 -0.193849
C188  C     C_1   0.227500 0.931322 0.562457 0.187473
N28   N     N_1   0.246838 0.903645 0.587570 -0.191312
C189  C     C_1   0.068672 0.772500 0.437527 0.187472
N29   N     N_1   0.096347 0.753162 0.412408 -0.191310
C190  C     C_1   0.227549 0.068630 0.437393 0.187108
N30   N     N_1   0.246908 0.096303 0.412271 -0.192170
C191  C     C_1   0.931216 0.227437 0.437711 0.183609
N31   N     N_1   0.903554 0.246756 0.412550 -0.194743
C192  C     C_1   0.772598 0.931134 0.437990 0.184086
N32   N     N_1   0.753294 0.903457 0.412868 -0.193836
C193  C     C_1   0.430514 0.366858 0.061346 0.197797
N33   N     N_1   0.402177 0.385934 0.085416 -0.190435
C194  C     C_1   0.366932 0.569751 0.060638 0.197859
N34   N     N_1   0.386020 0.598166 0.084461 -0.190659
C195  C     C_1   0.569818 0.633022 0.060427 0.198071
N35   N     N_1   0.598248 0.613914 0.084219 -0.188889
C196  C     C_1   0.633092 0.430437 0.061126 0.197994
N36   N     N_1   0.613994 0.402079 0.085139 -0.188704
C197  C     C_1   0.569558 0.366907 0.938859 0.198001
N37   N     N_1   0.597915 0.386004 0.914841 -0.188700
C198  C     C_1   0.633142 0.569491 0.938667 0.197784
N38   N     N_1   0.614065 0.597829 0.914602 -0.190441
C199  C     C_1   0.430255 0.633066 0.939347 0.197883
N39   N     N_1   0.401842 0.613978 0.915517 -0.190650
C200  C     C_1   0.366976 0.430175 0.939589 0.198053
N40   N     N_1   0.386084 0.401743 0.915803 -0.188894
C201  C     C_1   0.930513 0.866858 0.561346 0.197796
N41   N     N_1   0.902177 0.885934 0.585416 -0.190434
C202  C     C_1   0.866932 0.069751 0.560640 0.197859
N42   N     N_1   0.886020 0.098166 0.584463 -0.190659
C203  C     C_1   0.069818 0.133022 0.560428 0.198072
N43   N     N_1   0.098247 0.113915 0.584219 -0.188889
C204  C     C_1   0.133092 0.930437 0.561125 0.197993
N44   N     N_1   0.113994 0.902078 0.585138 -0.188704
C205  C     C_1   0.069557 0.866907 0.438859 0.198002
N45   N     N_1   0.097915 0.886004 0.414841 -0.188700
C206  C     C_1   0.133141 0.069491 0.438668 0.197783
N46   N     N_1   0.114065 0.097829 0.414604 -0.190442
C207  C     C_1   0.930255 0.133064 0.439347 0.197883
N47   N     N_1   0.901842 0.113976 0.415517 -0.190650
C208  C     C_1   0.866975 0.930176 0.439588 0.198053
N48   N     N_1   0.886083 0.901744 0.415802 -0.188894

loop_
_geom_bond_atom_site_label_1
_geom_bond_atom_site_label_2
_ccdc_geom_bond_type
C32   C48   A    
C189  N29   T    
C81   C126  A    
C78   O28   A    
N3    H53   S    
C99   H1    S    
C83   C128  A    
C17   C177  S    
C179  N19   T    
N7    H62   S    
C177  N17   T    
O41   Zn11  S    
C80   O30   A    
C42   C202  S    
C108  H10   S    
C92   C119  A    
C168  N16   S    
C69   O41   A    
C87   C124  A    
C70   O46   A    
C22   C38   A    
O7    Zn1   S    
O3    Zn3   S    
C157  C169  A    
C18   C58   A    
N14   H75   S    
C162  N10   S    
C144  C160  A    
C74   O20   A    
C125  C135  A    
C126  C136  A    
C98   C109  A    
O31   Zn5   S    
C114  C130  A    
C76   O24   A    
C142  C158  A    
C15   C151  A    
O36   Zn9   S    
N11   H70   S    
N16   H79   S    
C84   C100  A    
C90   C117  A    
C91   C107  A    
O22   Zn2   S    
C25   C41   A    
C156  C172  A    
C68   O36   A    
C6    C174  S    
C79   C130  S    
C28   C44   A    
C29   C45   A    
C165  N13   S    
C65   O33   A    
C82   C125  A    
C188  N28   T    
C79   O31   A    
C71   O45   A    
C86   C121  A    
N8    H63   S    
C79   O29   A    
C137  C153  A    
N9    H65   S    
C44   C204  S    
C5    O13   A    
C140  C156  A    
C87   C103  A    
C141  C157  A    
C111  H13   S    
C153  N1    S    
C201  N41   T    
C78   O26   A    
C98   H4    S    
C202  N42   T    
N6    H59   S    
C2    O2    A    
C143  H39   S    
C73   O17   A    
C80   O32   A    
C46   C206  S    
C103  H5    S    
O1    Zn1   S    
C32   C192  S    
C30   C190  S    
C76   C133  S    
C8    O14   A    
C207  N47   T    
O11   Zn7   S    
C32   C62   A    
N1    H50   S    
C19   C35   A    
C193  N33   T    
C22   C60   A    
C34   C194  S    
C158  C172  A    
C145  C161  A    
O4    Zn4   S    
C151  C167  A    
O25   Zn5   S    
O34   Zn9   S    
C93   C114  A    
C83   H19   S    
C21   C181  S    
C96   H32   S    
C81   H17   S    
C178  N18   T    
C146  H42   S    
C116  C130  A    
C100  C111  A    
N13   H73   S    
C190  N30   T    
C10   C138  A    
C157  N5    S    
C11   C143  A    
C77   C132  S    
C104  C107  A    
C52   C65   S    
N2    H52   S    
C90   H26   S    
O48   Zn12  S    
C39   C51   A    
C185  N25   T    
O10   Zn6   S    
C186  N26   T    
C94   H30   S    
C13   C145  A    
C163  C175  A    
C75   C134  S    
C29   C189  S    
C23   C59   A    
C154  C170  A    
O13   Zn7   S    
C33   C193  S    
C150  C166  A    
C24   C184  S    
C72   O44   A    
N10   H67   S    
C26   C186  S    
C167  N15   S    
C122  C134  A    
N12   H72   S    
C92   C108  A    
C12   C142  A    
C119  C131  A    
C154  N2    S    
O23   Zn1   S    
C50   C67   S    
C36   C52   A    
C2    O8    A    
C6    O10   A    
C45   C53   A    
O33   Zn9   S    
N5    H58   S    
C88   C104  A    
C94   C113  A    
C70   O42   A    
N9    H66   S    
C29   C61   A    
C49   C66   S    
C82   C98   A    
O44   Zn11  S    
C148  C164  A    
C31   C63   A    
C149  C165  A    
C163  N11   S    
C3    O7    A    
C144  H40   S    
C113  C126  A    
C19   C59   A    
C36   C196  S    
C138  H34   S    
C115  C128  A    
N3    H54   S    
C74   O18   A    
C117  C122  A    
C25   C185  S    
C27   C43   A    
C139  C155  A    
C95   C116  A    
C158  N6    S    
C12   C140  A    
C21   C37   A    
C10   C144  A    
C41   C53   A    
C43   C55   A    
C3    C171  S    
C86   C102  A    
O19   Zn3   S    
C68   O40   A    
C26   C42   A    
C167  C175  A    
C101  C106  A    
C80   C129  S    
C4    C172  S    
O12   Zn8   S    
C5    C173  S    
C39   C199  S    
C30   C46   A    
C66   O34   A    
C101  H7    S    
C8    C176  S    
C124  C134  A    
O46   Zn12  S    
C147  C163  A    
C138  C154  A    
C84   H20   S    
C151  H47   S    
C67   O37   A    
C117  C131  A    
O27   Zn7   S    
C118  C132  A    
C112  H14   S    
N14   H76   S    
C56   C69   S    
C14   C152  A    
O20   Zn4   S    
C83   C99   A    
C67   O35   A    
C93   C109  A    
C104  H6    S    
C30   C64   A    
N4    H56   S    
O40   Zn10  S    
O8    Zn4   S    
C87   H23   S    
C47   C207  S    
C187  N27   T    
C200  N40   T    
C146  C162  A    
O39   Zn10  S    
C159  C171  A    
C123  C133  A    
O26   Zn6   S    
C127  C135  A    
C128  C136  A    
N4    H55   S    
C33   C49   A    
C196  N36   T    
C102  C105  A    
O17   Zn1   S    
C40   C200  S    
C11   C139  A    
C27   C187  S    
O29   Zn7   S    
C48   C208  S    
C9    C137  A    
C54   C71   S    
C116  C127  A    
N8    H64   S    
C192  N32   T    
O16   Zn8   S    
C20   C60   A    
C45   C205  S    
C92   H28   S    
C120  C123  A    
C100  H2    S    
N11   H69   S    
C31   C47   A    
O6    Zn2   S    
C150  H46   S    
C65   O39   A    
C17   C33   A    
C11   C59   S    
C53   C70   S    
C152  C168  A    
N6    H60   S    
C35   C195  S    
C95   H31   S    
C198  N38   T    
C7    O11   A    
C142  H38   S    
C20   C180  S    
C184  N24   T    
O14   Zn6   S    
C119  C124  A    
C94   C110  A    
C137  H33   S    
C168  C174  A    
N1    H49   S    
C37   C49   A    
C44   C56   A    
C180  N20   T    
C73   C136  S    
O35   Zn9   S    
C74   C135  S    
C85   C122  A    
C159  N7    S    
C148  H44   S    
C90   C106  A    
C27   C63   A    
C2    C170  S    
C28   C64   A    
C85   H21   S    
C152  H48   S    
C77   O25   A    
C3    O3    A    
C75   O23   A    
C140  H36   S    
C203  N43   T    
C1    O1    A    
C107  H9    S    
O5    Zn3   S    
C71   O43   A    
C10   C58   S    
C208  N48   T    
C23   C183  S    
C143  C159  A    
C156  N4    S    
C88   H24   S    
O28   Zn8   S    
N15   H77   S    
C42   C54   A    
C15   C147  A    
O30   Zn6   S    
C16   C148  A    
O38   Zn10  S    
C40   C50   A    
O15   Zn5   S    
C81   C97   A    
N10   H68   S    
C164  C176  A    
C4    O4    A    
C82   H18   S    
C106  H12   S    
C20   C36   A    
C41   C201  S    
C43   C203  S    
C145  H41   S    
C24   C58   A    
C153  C169  A    
O2    Zn2   S    
C66   O38   A    
C91   H27   S    
C17   C57   A    
C14   C62   S    
O42   Zn11  S    
C89   H25   S    
C182  N22   T    
N5    H57   S    
C194  N34   T    
C93   H29   S    
C206  N46   T    
C22   C182  S    
C48   C54   A    
C96   C112  A    
C113  C129  A    
C38   C198  S    
C28   C188  S    
C181  N21   T    
O24   Zn4   S    
C97   H3    S    
C38   C52   A    
C165  C173  A    
C161  C173  A    
C110  H16   S    
N7    H61   S    
C166  N14   S    
N13   H74   S    
C7    C175  S    
C96   C115  A    
C103  C108  A    
C77   O27   A    
O43   Zn11  S    
C55   C72   S    
C75   O21   A    
C84   C127  A    
C5    O9    A    
C149  H45   S    
C88   C123  A    
C34   C50   A    
C37   C197  S    
O18   Zn2   S    
C141  H37   S    
C114  C125  A    
C9    C141  A    
C25   C61   A    
C139  H35   S    
C19   C179  S    
C6    O16   A    
C118  C121  A    
C4    O6    A    
C78   C131  S    
C21   C57   A    
N12   H71   S    
C1    O5    A    
C69   O47   A    
C73   O19   A    
N16   H80   S    
O45   Zn12  S    
C18   C34   A    
C199  N39   T    
C164  N12   S    
C7    O15   A    
C161  N9    S    
C89   C105  A    
C8    O12   A    
C85   C101  A    
C47   C55   A    
C195  N35   T    
C115  C129  A    
C15   C63   S    
C155  N3    S    
C120  C132  A    
O32   Zn8   S    
C76   O22   A    
C18   C178  S    
C46   C56   A    
C16   C150  A    
C162  C174  A    
O9    Zn5   S    
C191  N31   T    
C14   C146  A    
C166  C176  A    
O21   Zn3   S    
C102  H8    S    
N2    H51   S    
C105  H11   S    
C26   C62   A    
C13   C149  A    
C95   C111  A    
C197  N37   T    
C35   C51   A    
C97   C110  A    
C31   C191  S    
C160  N8    S    
O47   Zn12  S    
C205  N45   T    
N15   H78   S    
C109  H15   S    
C23   C39   A    
C99   C112  A    
C1    C169  S    
C24   C40   A    
C9    C57   S    
C51   C68   S    
C86   H22   S    
C147  H43   S    
O37   Zn10  S    
C12   C60   S    
C155  C171  A    
C13   C61   S    
C89   C118  A    
C72   O48   A    
C160  C170  A    
C91   C120  A    
C16   C64   S    
C121  C133  A    
C183  N23   T    
C204  N44   T    
