data_mof_unit_46322.cif
_audit_creation_date              2012-10-26T19:17:58-0400
_audit_creation_method            fapswitch 2.2
_symmetry_space_group_name_H-M    P1
_symmetry_Int_Tables_number       1
_space_group_crystal_system       triclinic
_cell_length_a                    10.854191
_cell_length_b                    12.280826
_cell_length_c                    13.431427
_cell_angle_alpha                 116.497095
_cell_angle_beta                  79.073403
_cell_angle_gamma                 100.571039
_cell_volume                      1563.27831981

loop_
_atom_site_label
_atom_site_type_symbol
_atom_type_description
_atom_site_fract_x
_atom_site_fract_y
_atom_site_fract_z
_atom_type_partial_charge
C1    C     C_R   0.504586 0.854034 0.288481 0.535432
C2    C     C_R   0.216175 0.292451 0.329865 -0.119285
C3    C     C_R   0.263931 0.214473 0.221864 -0.116301
C4    C     C_R   0.736686 0.001068 0.503883 0.541802
C5    C     C_R   0.271293 0.091714 0.194278 -0.115080
C6    C     C_R   0.222776 0.044514 0.272841 -0.061493
C7    C     C_R   0.166900 0.120571 0.379253 0.059516
C8    C     C_R   0.496073 0.263765 0.019460 -0.147087
C9    C     C_R   0.486378 0.227494 0.829723 0.003851
C10   C     C_R   0.487475 0.819178 0.095297 -0.143415
C11   C     C_R   0.475722 0.743828 0.983389 -0.149283
C12   C     C_R   0.679095 0.733485 0.724915 -0.098183
C13   C     C_R   0.471557 0.617518 0.942812 -0.121778
C14   C     C_R   0.470856 0.562447 0.015800 0.034913
C15   C     C_R   0.464419 0.638526 0.132705 0.028286
C16   C     C_R   0.486994 0.145060 0.711607 0.543397
C17   C     C_R   0.475845 0.434356 0.977320 0.030514
C18   C     C_R   0.478930 0.386525 0.055430 0.047700
C19   C     C_R   0.455858 0.459442 0.168920 -0.158799
C20   C     C_R   0.437410 0.580040 0.205819 -0.131982
C21   C     C_R   0.478643 0.351888 0.864129 -0.133458
C22   C     C_R   0.497822 0.184031 0.907114 -0.146198
C23   C     C_R   0.042911 0.941381 0.554410 -0.152408
C24   C     C_R   0.484691 0.769014 0.171232 -0.000794
C25   C     C_R   0.699665 0.346757 0.332404 -0.157961
C26   C     C_R   0.330002 0.759737 0.643145 0.045022
C27   C     C_R   0.294004 0.662491 0.672973 -0.170174
C28   C     C_R   0.263058 0.000375 0.498600 0.543242
C29   C     C_R   0.357359 0.558322 0.618335 -0.147295
C30   C     C_R   0.458571 0.550595 0.533106 -0.005447
C31   C     C_R   0.492503 0.652887 0.506044 0.179178
C32   C     C_R   0.528156 0.446379 0.474565 -0.015155
C33   C     C_R   0.629484 0.446744 0.390674 0.024687
C34   C     C_R   0.129362 0.002799 0.499784 -0.004598
C35   C     C_R   0.661133 0.547318 0.365992 -0.180467
C36   C     C_R   0.594600 0.648086 0.422710 -0.096953
C37   C     C_R   0.502771 0.341297 0.495797 0.047665
C38   C     C_R   0.670172 0.246635 0.357837 0.039259
C39   C     C_R   0.669059 0.858282 0.764556 -0.096172
C40   C     C_R   0.745086 0.926054 0.710778 -0.048170
C41   C     C_R   0.830008 0.868359 0.615479 0.048431
C42   C     C_R   0.840595 0.743235 0.577262 -0.101568
C43   C     C_R   0.765387 0.676269 0.631953 -0.109355
C44   C     C_R   0.085521 0.065250 0.449699 -0.035108
C45   C     C_R   0.956644 0.065484 0.456296 -0.150162
C46   C     C_R   0.869943 0.002059 0.508543 -0.004814
C47   C     C_R   0.913584 0.938908 0.558746 -0.034240
C48   C     C_R   0.167232 0.245642 0.408509 -0.098174
Cu1   Cu    Cu3+1 0.529370 0.098270 0.475420 0.932833
Cu2   Cu    Cu3+1 0.470630 0.901730 0.524580 0.910880
H1    H     H_    0.620295 0.680600 0.765759 0.110155
H2    H     H_    0.468255 0.566068 0.854038 0.092970
H3    H     H_    0.602886 0.902720 0.837162 0.086684
H4    H     H_    0.395973 0.621516 0.291491 0.163751
H5    H     H_    0.723850 0.168913 0.313641 0.123537
H6    H     H_    0.738773 0.548596 0.302290 0.113897
H7    H     H_    0.777092 0.346382 0.268107 0.094089
H8    H     H_    0.427510 0.332536 0.557625 0.118721
H9    H     H_    0.280272 0.840220 0.685690 0.127583
H10   H     H_    0.325394 0.485778 0.644729 0.094268
H11   H     H_    0.216700 0.667778 0.738496 0.103079
H12   H     H_    0.291606 0.248478 0.158745 0.117875
H13   H     H_    0.627273 0.720100 0.397731 0.192495
H14   H     H_    0.737465 0.022934 0.742789 0.102620
H15   H     H_    0.906525 0.697452 0.504629 0.104424
H16   H     H_    0.773219 0.579738 0.601666 0.118234
H17   H     H_    0.075970 0.894857 0.594880 0.131711
H18   H     H_    0.924124 0.111152 0.414726 0.136524
H19   H     H_    0.123396 0.305087 0.489955 0.102667
H20   H     H_    0.212154 0.387860 0.351086 0.109146
H21   H     H_    0.472924 0.784042 0.926940 0.107539
H22   H     H_    0.309513 0.032062 0.110607 0.096927
H23   H     H_    0.221690 0.947580 0.248610 0.100362
H24   H     H_    0.507416 0.088603 0.880932 0.117644
H25   H     H_    0.445763 0.421812 0.229617 0.121879
H26   H     H_    0.504196 0.228602 0.078716 0.109055
H27   H     H_    0.472031 0.381280 0.801130 0.114708
H28   H     H_    0.497205 0.917388 0.122647 0.129019
N1    N     N_R   0.573890 0.246290 0.438210 -0.234866
N2    N     N_R   0.426890 0.754320 0.561170 -0.239184
O1    O     O_R   0.536940 0.972510 0.318130 -0.503147
O2    O     O_R   0.487330 0.806530 0.359650 -0.543781
O3    O     O_R   0.705160 0.082990 0.479250 -0.509527
O4    O     O_R   0.655550 0.917010 0.520760 -0.512877
O5    O     O_R   0.512670 0.193470 0.640350 -0.514788
O6    O     O_R   0.463060 0.027490 0.681870 -0.512476
O7    O     O_R   0.344450 0.082990 0.479240 -0.496693
O8    O     O_R   0.294840 0.917010 0.520750 -0.519477

loop_
_geom_bond_atom_site_label_1
_geom_bond_atom_site_label_2
_ccdc_geom_bond_type
C27   C29   A    
C41   C42   A    
Cu1   O7    S    
C19   C20   A    
C48   H19   S    
C26   N2    A    
C10   H28   S    
Cu2   O4    S    
C31   N2    A    
C4    C46   S    
C45   C46   A    
C37   N1    A    
C26   C27   A    
C5    C6    A    
C9    C16   S    
C5    H22   S    
C30   C31   A    
C11   H21   S    
C9    C22   A    
C38   N1    A    
Cu1   O1    S    
C8    H26   S    
C18   C19   A    
C23   H17   S    
C27   H11   S    
C38   H5    S    
C35   C36   A    
C28   O8    A    
C42   H15   S    
C8    C22   A    
C36   H13   S    
C26   H9    S    
C37   H8    S    
Cu2   O8    S    
C28   C34   S    
C13   C14   A    
C16   O6    A    
C14   C17   A    
C25   H7    S    
C45   H18   S    
C15   C20   A    
C23   C47   A    
Cu1   O5    S    
C34   C44   A    
C20   H4    S    
C39   C40   A    
C2    C48   A    
C1    O2    A    
C7    C44   S    
C8    C18   A    
Cu1   N1    S    
C29   C30   A    
C25   C38   A    
C13   H2    S    
C4    O4    A    
C29   H10   S    
C23   C34   A    
C28   O7    A    
C17   C18   A    
C41   C47   S    
C32   C37   A    
C40   C41   A    
C16   O5    A    
C42   C43   A    
C22   H24   S    
C12   H1    S    
C44   C45   A    
Cu2   O2    S    
C6    H23   S    
C3    H12   S    
C46   C47   A    
C15   C24   A    
C35   H6    S    
C31   C36   A    
C3    C5    A    
Cu2   N2    S    
C6    C7    A    
C12   C43   A    
C40   H14   S    
C10   C24   A    
C7    C48   A    
Cu1   O3    S    
C12   C39   A    
C19   H25   S    
C2    C3    A    
C32   C33   A    
C30   C32   A    
C11   C13   A    
C9    C21   A    
C39   H3    S    
C4    O3    A    
C43   H16   S    
C33   C35   A    
C17   C21   A    
C10   C11   A    
Cu2   O6    S    
C1    C24   S    
Cu1   Cu2   S    
C21   H27   S    
C14   C15   A    
C2    H20   S    
C1    O1    A    
C25   C33   A    
