data_mof_unit_55850.cif
_audit_creation_date              2012-12-10T21:00:52-0500
_audit_creation_method            fapswitch 2.2
_symmetry_space_group_name_H-M    P1
_symmetry_Int_Tables_number       1
_space_group_crystal_system       triclinic
_cell_length_a                    18.150683
_cell_length_b                    18.253689
_cell_length_c                    18.326499
_cell_angle_alpha                 119.601824
_cell_angle_beta                  90.063184
_cell_angle_gamma                 120.111386
_cell_volume                      4309.58369798

loop_
_atom_site_label
_atom_site_type_symbol
_atom_type_description
_atom_site_fract_x
_atom_site_fract_y
_atom_site_fract_z
_atom_type_partial_charge
C1    C     C_R   0.108095 0.220026 0.610017 0.870828
C2    C     C_3   0.450111 0.896829 0.944952 -0.054247
C3    C     C_3   0.059693 0.135544 0.389455 -0.187725
C4    C     C_2   0.747775 0.744470 0.790803 0.546494
C5    C     C_2   0.267048 0.224001 0.190573 0.443132
C6    C     C_3   0.470983 0.383645 0.700350 -0.328185
C7    C     C_3   0.498629 0.600442 0.285584 -0.282975
C8    C     C_3   0.580153 0.788446 0.046844 -0.272416
C9    C     C_3   0.362693 0.218672 0.889809 -0.342918
C10   C     C_3   0.823323 0.906977 0.018329 -0.157319
C11   C     C_3   0.212704 0.064177 0.974656 -0.249375
C12   C     C_3   0.659456 0.454496 0.932652 -0.144162
C13   C     C_3   0.450133 0.029230 0.042464 -0.070906
C14   C     C_3   0.329328 0.541254 0.059118 -0.218089
C15   C     C_2   0.007307 0.752385 0.802480 0.401955
C16   C     C_2   0.892989 0.180540 0.162093 0.462394
C17   C     C_3   0.831460 0.394724 0.780165 -0.254397
C18   C     C_3   0.176799 0.495272 0.192306 -0.273543
C19   C     C_2   0.000940 0.678650 0.100159 0.491123
C20   C     C_2   0.021994 0.331265 0.917830 0.419648
C21   C     C_3   0.843886 0.232900 0.387473 -0.177743
C22   C     C_3   0.155375 0.770108 0.622638 -0.242912
C23   C     C_2   0.351714 0.937853 0.876726 0.403388
C24   C     C_3   0.549565 0.970615 0.957794 -0.047859
C25   C     C_2   0.647992 0.064385 0.125078 0.343559
C26   C     C_2   0.392482 0.057977 0.090376 0.521094
C27   C     C_2   0.605677 0.938295 0.910192 0.401975
C28   C     C_2   0.392362 0.560711 0.469519 0.362578
C29   C     C_2   0.607578 0.441693 0.529875 0.344220
C30   C     C_2   0.617324 0.702465 0.540337 0.537304
C31   C     C_2   0.382689 0.299429 0.457113 0.473382
C32   C     C_3   0.450967 0.531224 0.485880 -0.049937
C33   C     C_3   0.549087 0.471554 0.514041 -0.037603
C34   C     C_3   0.446869 0.435588 0.413695 -0.216759
C35   C     C_3   0.553264 0.567338 0.586174 -0.218238
C36   C     C_3   0.550977 0.501539 0.448822 -0.110652
C37   C     C_3   0.449033 0.501024 0.551011 -0.117035
C38   C     C_3   0.554740 0.596603 0.519759 0.002058
C39   C     C_R   0.891620 0.780051 0.389964 0.860693
C40   C     C_3   0.445407 0.406181 0.479957 0.035202
C41   C     C_R   0.153709 0.190940 0.837371 -0.307700
C42   C     C_R   0.834301 0.808858 0.166766 -0.137675
C43   C     C_R   0.392904 0.780934 0.886948 0.829709
C44   C     C_R   0.607037 0.219056 0.113114 0.830470
C45   C     C_R   0.138708 0.157581 0.748731 -0.158703
C46   C     C_R   0.855547 0.855376 0.258185 -0.222503
C47   C     C_R   0.050654 0.093336 0.689479 0.068657
C48   C     C_R   0.942409 0.902287 0.309956 0.074387
C49   C     C_R   0.976569 0.055417 0.719303 0.495418
C50   C     C_3   0.926209 0.406501 0.445653 0.535627
C51   C     C_R   0.011318 0.910948 0.271672 0.475074
C52   C     C_R   0.992599 0.080432 0.806832 0.475263
C53   C     C_R   0.992366 0.877947 0.181068 0.330651
C54   C     C_R   0.081860 0.151713 0.866997 -0.102308
C55   C     C_R   0.901562 0.817176 0.127013 -0.114839
C56   C     C_R   0.992383 0.944707 0.535402 0.526665
C57   C     C_R   0.009850 0.056044 0.463622 0.460811
C58   C     C_R   0.951795 0.892709 0.443972 -0.236577
C59   C     C_R   0.049407 0.107539 0.555587 -0.263552
C60   C     C_R   0.964846 0.949197 0.407132 -0.080009
C61   C     C_3   0.075605 0.594671 0.554254 0.531839
C62   C     C_R   0.034789 0.050600 0.592568 -0.156719
C63   C     C_R   0.641150 0.588542 0.786933 -0.402275
C64   C     C_R   0.337020 0.380945 0.192562 -0.457695
C65   C     C_R   0.587185 0.537765 0.823501 0.571265
C66   C     C_R   0.389173 0.442144 0.163488 0.556958
C67   C     C_R   0.106693 0.495981 0.885548 0.823230
C68   C     C_R   0.893652 0.503639 0.114903 0.846231
C69   C     C_R   0.588631 0.596275 0.910585 0.010687
C70   C     C_R   0.408370 0.398568 0.084715 -0.063500
C71   C     C_R   0.636649 0.704502 0.957129 0.419087
C72   C     C_3   0.428608 0.966947 0.940926 0.043229
C73   C     C_R   0.378836 0.294237 0.037871 0.386887
C74   C     C_R   0.689273 0.754733 0.919012 0.491003
C75   C     C_R   0.328395 0.234133 0.069152 0.477547
C76   C     C_R   0.691617 0.696134 0.833272 -0.194393
C77   C     C_R   0.309334 0.278770 0.148309 -0.179028
C78   C     C_R   0.586607 0.528734 0.998565 0.461926
C79   C     C_R   0.414117 0.478981 0.007586 0.443370
C80   C     C_R   0.548857 0.493732 0.051024 -0.235255
C81   C     C_R   0.451420 0.511397 0.953164 -0.271663
C82   C     C_R   0.459877 0.461678 0.050722 -0.044204
C83   C     C_3   0.571021 0.033034 0.059333 -0.009087
C84   C     C_R   0.540682 0.544598 0.954412 -0.035993
C85   C     C_R   0.094025 0.750513 0.906257 -0.173297
C86   C     C_R   0.853042 0.209547 0.053535 -0.196945
C87   C     C_R   0.099203 0.706658 0.948901 -0.105978
C88   C     C_R   0.873315 0.269423 0.020467 -0.209455
C89   C     C_R   0.022976 0.613163 0.928853 -0.017804
C90   C     C_R   0.956328 0.366281 0.062108 0.012554
C91   C     C_R   0.392336 0.500331 0.607970 0.788992
C92   C     C_R   0.607680 0.500583 0.391977 0.778028
C93   C     C_R   0.939590 0.567682 0.870395 0.518922
C94   C     C_3   0.528470 0.041082 0.953131 -0.231306
C95   C     C_R   0.021588 0.401181 0.134862 0.548992
C96   C     C_R   0.934354 0.613692 0.829678 -0.179123
C97   C     C_R   0.999700 0.340429 0.168346 -0.170041
C98   C     C_R   0.011785 0.704184 0.846056 -0.026995
C99   C     C_R   0.915862 0.244610 0.127666 0.055463
C100  C     C_R   0.992659 0.581070 0.044742 -0.059849
C101  C     C_R   0.017081 0.421593 0.963798 -0.053896
C102  C     C_R   0.957225 0.507645 0.064823 -0.039663
C103  C     C_R   0.046370 0.491692 0.938983 -0.087803
C104  C     C_R   0.975543 0.431952 0.029021 -0.035386
C105  C     C_3   0.471260 0.958837 0.047061 -0.288508
C106  C     C_R   0.026287 0.565557 0.974328 -0.053840
C107  C     C_R   0.394203 0.502107 0.890401 0.837858
C108  C     C_R   0.605737 0.498189 0.109836 0.855722
C109  C     C_R   0.109300 0.500099 0.607782 0.947959
C110  C     C_R   0.891321 0.500434 0.392194 0.927811
C111  C     C_3   0.022494 0.434793 0.447337 -0.386370
C112  C     C_3   0.979395 0.566712 0.552526 -0.392810
C113  C     C_3   0.046695 0.531750 0.452289 -0.123089
C114  C     C_3   0.955060 0.469786 0.547648 -0.090624
C115  C     C_3   0.950188 0.502002 0.449345 -0.110853
C116  C     C_3   0.549546 0.103120 0.055309 -0.078837
C117  C     C_3   0.051408 0.499224 0.550454 -0.116045
C118  C     C_2   0.100711 0.569216 0.401795 0.417820
C119  C     C_2   0.902851 0.435129 0.600309 0.388735
C120  C     C_2   0.103017 0.185846 0.961040 0.397995
C121  C     C_2   0.877290 0.757131 0.028643 0.395805
C122  C     C_3   0.856327 0.028108 0.642462 -0.281977
C123  C     C_3   0.169754 0.999624 0.310840 -0.080307
C124  C     C_3   0.862034 0.049439 0.839932 -0.004953
C125  C     C_3   0.077361 0.965801 0.124287 -0.311145
C126  C     C_3   0.060271 0.886556 0.572720 -0.278442
H1    H     H_    0.222210 0.245361 0.882711 0.190944
H2    H     H_    0.787991 0.135937 0.021508 0.158742
H3    H     H_    0.162852 0.744414 0.996384 0.177817
H4    H     H_    0.823559 0.241587 0.963635 0.162662
H5    H     H_    0.869500 0.579523 0.786570 0.183349
H6    H     H_    0.047018 0.368345 0.226958 0.158300
H7    H     H_    0.551784 0.074609 0.914245 0.166239
H8    H     H_    0.447973 0.925402 0.086020 0.152974
H9    H     H_    0.405159 0.382743 0.342730 0.181909
H10   H     H_    0.594159 0.621331 0.657379 0.171249
H11   H     H_    0.167094 0.584353 0.408140 0.083534
H12   H     H_    0.764939 0.765304 0.126988 0.244927
H13   H     H_    0.837140 0.421685 0.595901 0.085189
H14   H     H_    0.172886 0.237727 0.003794 0.048862
H15   H     H_    0.928641 0.760410 0.997620 0.100186
H16   H     H_    0.893754 0.061696 0.607169 0.164994
H17   H     H_    0.857841 0.088307 0.704428 0.178748
H18   H     H_    0.784863 0.968306 0.598611 0.202098
H19   H     H_    0.169990 0.055511 0.301936 0.167621
H20   H     H_    0.181702 0.948091 0.255065 0.239397
H21   H     H_    0.227405 0.045395 0.371440 0.168277
H22   H     H_    0.893421 0.131801 0.867187 0.090835
H23   H     H_    0.196153 0.183144 0.726391 0.152611
H24   H     H_    0.831236 0.035432 0.887869 0.210811
H25   H     H_    0.806442 0.998248 0.776200 0.213529
H26   H     H_    0.103864 0.042519 0.186287 0.172535
H27   H     H_    0.017303 0.941249 0.078386 0.124598
H28   H     H_    0.128968 0.973852 0.090848 0.258547
H29   H     H_    0.124678 0.965047 0.614290 0.135406
H30   H     H_    0.061412 0.842881 0.504242 0.164350
H31   H     H_    0.054699 0.845073 0.602861 0.186099
H32   H     H_    0.121939 0.142303 0.409359 0.147931
H33   H     H_    0.081163 0.212444 0.406937 0.205631
H34   H     H_    0.803128 0.849816 0.288004 0.162039
H35   H     H_    0.026108 0.081547 0.316390 0.126499
H36   H     H_    0.756058 0.697943 0.729993 0.076263
H37   H     H_    0.232509 0.247010 0.235846 0.047444
H38   H     H_    0.500494 0.391655 0.649587 0.192896
H39   H     H_    0.429048 0.414118 0.714711 0.149453
H40   H     H_    0.425375 0.299978 0.671506 0.184663
H41   H     H_    0.481725 0.574109 0.330279 0.172759
H42   H     H_    0.524847 0.683198 0.325141 0.195963
H43   H     H_    0.553388 0.594490 0.262913 0.136441
H44   H     H_    0.510535 0.721658 0.026750 0.159992
H45   H     H_    0.644454 0.543732 0.722180 0.171601
H46   H     H_    0.582880 0.817471 0.005228 0.161109
H47   H     H_    0.597226 0.850821 0.116443 0.173553
H48   H     H_    0.290956 0.156605 0.870605 0.156447
H49   H     H_    0.389508 0.184303 0.838907 0.194116
H50   H     H_    0.368640 0.281070 0.887770 0.163325
H51   H     H_    0.858382 0.873844 0.979484 0.168452
H52   H     H_    0.819581 0.901084 0.075885 0.175542
H53   H     H_    0.865399 0.989875 0.044615 0.182856
H54   H     H_    0.169149 0.067619 0.016954 0.168162
H55   H     H_    0.196072 0.985189 0.937466 0.176682
H56   H     H_    0.322512 0.415540 0.253131 0.178562
H57   H     H_    0.196006 0.076592 0.925311 0.123150
H58   H     H_    0.595483 0.395219 0.875137 0.166246
H59   H     H_    0.663683 0.422676 0.969508 0.125388
H60   H     H_    0.715844 0.469782 0.905393 0.232248
H61   H     H_    0.348838 0.584608 0.028310 0.115202
H62   H     H_    0.375175 0.593964 0.128791 0.198878
H63   H     H_    0.260110 0.517454 0.060125 0.173076
H64   H     H_    0.068369 0.819668 0.812851 0.053090
H65   H     H_    0.826204 0.109394 0.132919 0.068521
H66   H     H_    0.774298 0.329183 0.778652 0.177066
H67   H     H_    0.040991 0.381792 0.405322 0.202812
H68   H     H_    0.885117 0.381168 0.770050 0.202813
H69   H     H_    0.805856 0.394834 0.725145 0.185348
H70   H     H_    0.170976 0.427261 0.134538 0.150999
H71   H     H_    0.185890 0.497416 0.253382 0.166503
H72   H     H_    0.238897 0.565677 0.204855 0.203359
H73   H     H_    0.985922 0.708297 0.068684 0.081512
H74   H     H_    0.047762 0.313912 0.956037 0.062198
H75   H     H_    0.850205 0.247740 0.454455 0.148037
H76   H     H_    0.898034 0.225706 0.364745 0.194937
H77   H     H_    0.778522 0.157504 0.340708 0.196754
H78   H     H_    0.961112 0.620028 0.594175 0.214281
H79   H     H_    0.111682 0.782143 0.662760 0.154649
H80   H     H_    0.132057 0.754747 0.557321 0.144722
H81   H     H_    0.224286 0.842908 0.659495 0.199962
H82   H     H_    0.345363 0.997471 0.885501 0.093752
H83   H     H_    0.660118 0.007914 0.113918 0.040692
H84   H     H_    0.420277 0.137996 0.141579 0.137797
H85   H     H_    0.617925 0.889674 0.917569 0.112319
H86   H     H_    0.319547 0.505852 0.444129 0.072280
H87   H     H_    0.680369 0.496992 0.556486 0.094155
H88   H     H_    0.614588 0.714953 0.488660 0.015943
H89   H     H_    0.154128 0.821220 0.920911 0.182979
H90   H     H_    0.380499 0.285495 0.508336 0.018607
O1    O     O_3   0.251620 0.500000 0.748430 -0.504380
O2    O     O_R   0.570330 0.268390 0.136490 -0.654968
O3    O     O_R   0.134680 0.268390 0.572240 -0.623753
O4    O     O_R   0.865320 0.731610 0.427760 -0.576880
O5    O     O_R   0.306670 0.731630 0.863510 -0.584940
O6    O     O_R   0.693330 0.268370 0.136490 -0.592249
O7    O     O_R   0.135450 0.439270 0.865360 -0.604904
O8    O     O_R   0.864550 0.560730 0.134640 -0.620045
O9    O     O_R   0.429670 0.560710 0.692610 -0.636650
O10   O     O_R   0.570330 0.439290 0.307390 -0.641670
O11   O     O_R   0.308540 0.439240 0.865360 -0.599483
O12   O     O_3   0.748380 0.500000 0.251570 -0.521514
O13   O     O_R   0.691460 0.560760 0.134640 -0.612841
O14   O     O_R   0.133580 0.439310 0.571150 -0.670263
O15   O     O_R   0.866420 0.560690 0.428850 -0.656966
O16   O     O_R   0.430770 0.560690 0.864590 -0.696019
O17   O     O_R   0.569230 0.439310 0.135410 -0.645240
O18   O     O_R   0.133580 0.560760 0.692610 -0.571423
O19   O     O_R   0.866420 0.439240 0.307390 -0.579700
O20   O     O_2   0.071033 0.583594 0.354175 -0.548424
O21   O     O_2   0.933580 0.421390 0.647796 -0.620954
O22   O     O_2   0.043661 0.158200 0.992476 -0.556542
O23   O     O_R   0.134680 0.560740 0.864590 -0.647676
O24   O     O_2   0.799416 0.701391 0.980387 -0.570487
O25   O     O_3   0.889333 0.980768 0.659643 -0.557980
O26   O     O_3   0.090374 0.941312 0.323861 -0.628326
O27   O     O_3   0.924272 0.023402 0.829368 -0.531897
O28   O     O_3   0.059587 0.892976 0.142661 -0.641195
O29   O     O_3   0.985049 0.890988 0.571346 -0.539592
O30   O     O_3   0.997531 0.106636 0.432803 -0.604190
O31   O     O_2   0.784059 0.835476 0.821561 -0.471503
O32   O     O_2   0.274728 0.156877 0.179505 -0.515103
O33   O     O_3   0.538687 0.431552 0.778032 -0.619819
O34   O     O_R   0.865320 0.439260 0.135410 -0.642041
O35   O     O_3   0.422053 0.545274 0.212786 -0.617572
O36   O     O_3   0.641797 0.762544 0.044387 -0.620590
O37   O     O_3   0.414236 0.257080 0.973186 -0.568917
O38   O     O_3   0.736671 0.860842 0.965248 -0.616798
O39   O     O_3   0.305295 0.134698 0.025700 -0.564943
O40   O     O_3   0.669465 0.548751 0.990316 -0.555679
O41   O     O_3   0.328124 0.451507 0.010405 -0.608155
O42   O     O_2   0.935525 0.717736 0.754530 -0.594801
O43   O     O_2   0.948577 0.205546 0.222574 -0.628026
O44   O     O_3   0.861641 0.486566 0.863061 -0.651794
O45   O     O_R   0.306670 0.439270 0.571150 -0.666819
O46   O     O_3   0.102616 0.498137 0.175589 -0.586554
O47   O     O_2   0.028233 0.727849 0.181159 -0.526036
O48   O     O_2   0.993050 0.272971 0.836791 -0.614461
O49   O     O_3   0.843909 0.309387 0.386073 -0.578878
O50   O     O_3   0.159135 0.690658 0.612602 -0.571998
O51   O     O_2   0.296621 0.848334 0.814589 -0.529351
O52   O     O_2   0.696654 0.152482 0.191527 -0.517156
O53   O     O_2   0.314055 0.991017 0.072815 -0.555404
O54   O     O_2   0.637532 0.966144 0.862825 -0.566674
O55   O     O_2   0.425733 0.645734 0.484418 -0.569662
O56   O     O_R   0.693330 0.560730 0.428850 -0.640490
O57   O     O_2   0.574154 0.355826 0.513047 -0.570621
O58   O     O_2   0.671619 0.774698 0.614841 -0.518311
O59   O     O_2   0.333700 0.227697 0.380627 -0.586188
O60   O     O_R   0.135450 0.268370 0.694460 -0.637907
O61   O     O_R   0.864550 0.731630 0.305540 -0.639004
O62   O     O_R   0.429670 0.731610 0.863510 -0.680504
Zn1   Zn    Zn3+2 0.207400 0.586780 0.791530 1.049152
Zn2   Zn    Zn3+2 0.792600 0.413220 0.208470 1.051761
Zn3   Zn    Zn3+2 0.208510 0.413230 0.792630 0.991784
Zn4   Zn    Zn3+2 0.791490 0.586770 0.207370 1.005099
Zn5   Zn    Zn3+2 0.383150 0.586740 0.791530 0.932203
Zn6   Zn    Zn3+2 0.616850 0.413260 0.208470 0.976180
Zn7   Zn    Zn3+2 0.207400 0.413250 0.618010 0.964879
Zn8   Zn    Zn3+2 0.792600 0.586750 0.381990 1.020204

loop_
_geom_bond_atom_site_label_1
_geom_bond_atom_site_label_2
_ccdc_geom_bond_type
O61   Zn4   S    
C55   C121  S    
C12   O40   S    
C70   C82   S    
C54   C120  S    
C23   H82   S    
C42   H12   S    
C64   C77   A    
C41   H1    S    
O12   Zn4   S    
C11   H55   S    
C24   C27   S    
C122  H18   S    
C13   C116  S    
C7    H42   S    
C31   O59   D    
C33   C36   S    
C47   C62   S    
C63   C65   A    
C67   C103  S    
C90   C95   A    
C47   C49   A    
C10   H53   S    
O12   Zn2   S    
C88   H4    S    
C124  H22   S    
C30   C38   S    
C74   C76   A    
C26   H84   S    
C34   C40   S    
O19   Zn2   S    
C5    H37   S    
O6    Zn2   S    
C93   C96   A    
C43   O5    A    
C24   C83   S    
C68   C102  S    
C18   O46   S    
C37   C40   S    
C75   O39   S    
C1    C59   S    
C92   O56   A    
C86   C88   A    
C57   C59   A    
C63   C76   A    
O2    Zn6   S    
C26   O53   D    
C29   C33   S    
C94   H7    S    
C31   C40   S    
C22   H80   S    
C9    H50   S    
O4    Zn8   S    
C50   C115  S    
C42   C46   A    
C23   O51   D    
C69   C71   A    
C21   H77   S    
C20   H74   S    
C1    O60   A    
C7    H41   S    
C85   C98   A    
C71   C74   A    
C32   C34   S    
C66   O35   S    
C14   H63   S    
O1    Zn3   S    
C7    H43   S    
C48   C51   A    
O8    Zn4   S    
O23   Zn1   S    
C123  H19   S    
C8    H44   S    
C6    H40   S    
C59   C62   A    
C107  O11   A    
C89   C106  S    
C18   H72   S    
C3    H32   S    
C11   O39   S    
C53   O28   S    
O15   Zn8   S    
C29   H87   S    
C120  H14   S    
C3    O30   S    
C32   C38   S    
C118  H11   S    
C34   C36   S    
C114  C119  S    
C91   O45   A    
C21   O49   S    
C110  O19   A    
C72   C94   S    
C109  O18   A    
O12   Zn6   S    
C53   C55   A    
C6    H39   S    
C92   O10   A    
C101  C103  A    
C28   O55   D    
O1    Zn5   S    
C107  O16   A    
C91   O9    A    
C126  O29   S    
C3    H33   S    
C73   C75   A    
C17   H68   S    
C68   O8    A    
C122  H17   S    
C70   C73   A    
C2    C72   S    
O11   Zn3   S    
C112  C114  S    
C97   C99   A    
C125  H27   S    
C65   O33   S    
C48   C60   S    
C122  O25   S    
O45   Zn7   S    
C108  O13   A    
C45   C47   A    
C17   H66   S    
C29   O57   D    
C41   C54   A    
C46   C48   A    
O3    Zn7   S    
C33   C40   S    
C4    C76   S    
C37   C91   S    
C85   C87   A    
C61   C117  S    
C10   H52   S    
C121  H15   S    
C39   O4    A    
C83   C116  S    
C35   C38   S    
C11   H57   S    
C81   C107  S    
C13   C105  S    
C126  H30   S    
C52   O27   S    
C79   C81   A    
C16   O43   D    
C94   C116  S    
C8    H47   S    
C119  O21   D    
C57   C60   A    
C20   C101  S    
C39   C58   S    
C18   H70   S    
C78   C84   A    
C83   C105  S    
C22   H79   S    
C96   C98   A    
C50   C114  S    
O34   Zn2   S    
C109  C117  S    
C25   H83   S    
C4    O31   D    
C16   H65   S    
C24   C94   S    
C42   C55   A    
C30   H88   S    
C93   O44   S    
C14   H62   S    
C109  O14   A    
C22   O50   S    
C79   O41   S    
C63   H45   S    
C123  H20   S    
C28   C32   S    
C2    C43   S    
C58   C60   A    
C49   C52   A    
C12   H60   S    
C27   O54   D    
C18   H71   S    
C27   H85   S    
C78   C80   A    
C44   O2    A    
C9    H48   S    
C111  C113  S    
C32   C37   S    
C124  O27   S    
C67   O7    A    
C86   C99   A    
C75   C77   A    
C90   C104  S    
C74   O38   S    
C15   O42   D    
C111  H67   S    
C96   H5    S    
C73   O37   S    
C4    H36   S    
C80   C82   A    
C39   O61   A    
C15   H64   S    
C6    H38   S    
C30   O58   D    
C101  C104  A    
O62   Zn5   S    
C87   C89   A    
C61   C113  S    
C56   C62   A    
C13   C26   S    
C95   O46   S    
C51   O26   S    
C21   H75   S    
C112  H78   S    
C5    O32   D    
C5    C77   S    
C36   C38   S    
C1    O3    A    
C71   O36   S    
C123  O26   S    
C25   O52   D    
C125  H28   S    
C86   H2    S    
C100  C102  A    
C126  H31   S    
C68   O34   A    
C124  H24   S    
C108  O17   A    
C8    O36   S    
C125  H26   S    
C88   C90   A    
O18   Zn1   S    
C6    O33   S    
C35   C37   S    
C10   O38   S    
C10   H51   S    
C100  C106  A    
C21   H76   S    
C124  H25   S    
C9    O37   S    
C97   H6    S    
C123  H21   S    
C57   O30   S    
C17   O44   S    
C14   O41   S    
C35   H10   S    
C79   C82   A    
C49   O25   S    
C19   C100  S    
C95   C97   A    
C16   C99   S    
O1    Zn7   S    
C31   H90   S    
C13   C72   S    
C28   H86   S    
C121  O24   D    
C56   O29   S    
C80   C108  S    
C2    C105  S    
C19   H73   S    
C102  C104  A    
C120  O22   D    
C111  C117  S    
C78   O40   S    
C87   H3    S    
C85   H89   S    
C119  H13   S    
C69   C84   S    
C41   C45   A    
C126  H29   S    
C2    C24   S    
C14   H61   S    
C113  C115  S    
C36   C92   S    
C66   C70   A    
C43   O62   A    
O13   Zn4   S    
C65   C69   A    
C12   H59   S    
O14   Zn7   S    
C67   O23   A    
C50   C111  S    
C33   C35   S    
C56   C58   A    
C52   C54   A    
C9    H49   S    
C103  C106  A    
C45   H23   S    
C23   C72   S    
O9    Zn5   S    
O16   Zn5   S    
C89   C93   A    
C12   H58   S    
O10   Zn6   S    
C61   O50   S    
C50   O49   S    
C114  C117  S    
O5    Zn1   S    
C110  O15   A    
C3    H35   S    
C125  O28   S    
C19   O47   D    
C113  C118  S    
C118  O20   D    
O1    Zn1   S    
O17   Zn6   S    
C44   O6    A    
C44   C116  S    
O60   Zn3   S    
C7    O35   S    
C25   C83   S    
C122  H16   S    
C81   C84   A    
C34   H9    S    
C17   H69   S    
C11   H54   S    
C15   C98   S    
C51   C53   A    
C61   C112  S    
O56   Zn8   S    
C110  C115  S    
C112  C115  S    
C20   O48   D    
C46   H34   S    
C8    H46   S    
C22   H81   S    
C64   C66   A    
C105  H8    S    
O7    Zn3   S    
O12   Zn8   S    
C64   H56   S    
