data_mof_unit_59724.cif
_audit_creation_date              2013-03-05T16:08:50-0500
_audit_creation_method            fapswitch 2.2
_symmetry_space_group_name_H-M    P1
_symmetry_Int_Tables_number       1
_space_group_crystal_system       triclinic
_cell_length_a                    27.371288
_cell_length_b                    11.583494
_cell_length_c                    10.755811
_cell_angle_alpha                 89.902971
_cell_angle_beta                  89.602159
_cell_angle_gamma                 90.218634
_cell_volume                      3410.07319279

loop_
_atom_site_label
_atom_site_type_symbol
_atom_site_description
_atom_site_fract_x
_atom_site_fract_y
_atom_site_fract_z
_atom_type_partial_charge
O1    O     O_R   0.500000 0.334450 0.602530 -0.607926
O2    O     O_R   0.500000 0.665550 0.397470 -0.612532
O3    O     O_R   0.500000 0.665550 0.602530 -0.607863
O4    O     O_R   0.500000 0.334450 0.397470 -0.610783
C1    C     C_R   0.500247 0.281101 0.500077 0.913134
C2    C     C_R   0.499741 0.718898 0.499914 0.913156
O5    O     O_R   0.428750 0.500000 0.602520 -0.597739
O6    O     O_R   0.571250 0.500000 0.397480 -0.634110
O7    O     O_R   0.571250 0.500000 0.602520 -0.597227
O8    O     O_R   0.428750 0.500000 0.397480 -0.632734
C3    C     C_R   0.405452 0.495004 0.500224 0.971994
C4    C     C_R   0.594514 0.505588 0.499243 0.971489
Zn1   Zn    Zn3+2 0.500000 0.500000 0.636920 0.979687
Zn2   Zn    Zn3+2 0.500000 0.500000 0.363080 0.961902
C5    C     C_R   0.171816 0.376074 0.454855 0.570668
C6    C     C_R   0.826471 0.623965 0.407662 0.546334
C7    C     C_R   0.181651 0.570941 0.386799 0.553723
C8    C     C_R   0.817005 0.423279 0.366263 0.567851
O9    O     O_2   0.192230 0.280783 0.504244 -0.519734
O10   O     O_2   0.808659 0.721105 0.459847 -0.550170
O11   O     O_2   0.212422 0.658378 0.357859 -0.522126
O12   O     O_2   0.786654 0.332832 0.348717 -0.517558
N1    N     N_R   0.200153 0.471748 0.435831 -0.328465
N2    N     N_R   0.798288 0.526379 0.405357 -0.324107
C9    C     C_R   0.270576 0.540513 0.557225 0.420296
C10   C     C_R   0.729967 0.460522 0.539777 0.420823
C11   C     C_R   0.281790 0.394448 0.396033 0.460145
C12   C     C_R   0.716170 0.606678 0.379869 0.458380
C13   C     C_R   0.321483 0.547609 0.572460 0.063792
C14   C     C_R   0.679377 0.454315 0.563122 0.063007
C15   C     C_R   0.332001 0.395547 0.416489 0.022954
C16   C     C_R   0.666584 0.607357 0.409505 0.029766
C17   C     C_R   0.251177 0.467497 0.464778 0.000696
C18   C     C_R   0.747873 0.532209 0.442994 -0.007063
C19   C     C_R   0.101281 0.482328 0.381968 -0.148589
C20   C     C_R   0.896865 0.512548 0.348521 -0.126475
C21   C     C_R   0.121974 0.377226 0.423481 -0.078256
C22   C     C_R   0.874680 0.621276 0.362536 -0.125801
C23   C     C_R   0.131198 0.581333 0.365977 -0.088112
C24   C     C_R   0.867673 0.411641 0.347455 -0.085052
C25   C     C_R   0.092167 0.277622 0.433289 0.247134
C26   C     C_R   0.901908 0.722340 0.336116 0.273039
C27   C     C_R   0.109839 0.686938 0.329647 0.244333
C28   C     C_R   0.890169 0.303598 0.328913 0.227737
C29   C     C_R   0.352370 0.478056 0.498482 -0.274347
C30   C     C_R   0.647451 0.524544 0.493988 -0.276006
C31   C     C_R   0.970579 0.395215 0.341666 0.038918
C32   C     C_R   0.028764 0.597145 0.332635 0.038365
C33   C     C_R   0.977022 0.606437 0.332935 0.008618
C34   C     C_R   0.021323 0.387807 0.364182 0.037752
C35   C     C_R   0.948254 0.504799 0.339005 0.075762
C36   C     C_R   0.050433 0.488981 0.358817 0.080331
C37   C     C_R   0.941043 0.296491 0.326195 -0.290405
C38   C     C_R   0.059541 0.693120 0.312131 -0.290275
C39   C     C_R   0.952937 0.714033 0.329406 -0.227746
C40   C     C_R   0.043086 0.283359 0.400665 -0.293129
H1    H     H_    0.956685 0.212068 0.311801 0.141350
H2    H     H_    0.045692 0.775573 0.282685 0.134776
H3    H     H_    0.972893 0.793896 0.324606 0.152678
H4    H     H_    0.021913 0.205408 0.413458 0.142386
C41   C     C_1   0.500218 0.160993 0.500184 -0.190780
C42   C     C_1   0.499702 0.839004 0.499764 -0.190268
C43   C     C_1   0.500056 0.059143 0.500043 0.003507
C44   C     C_1   0.499827 0.940854 0.499827 0.002648
N3    N     N_1   0.500000 0.500000 0.180630 -0.087303
N4    N     N_1   0.500000 0.500000 0.819370 -0.082920
C45   C     C_1   0.499999 0.500001 0.069698 0.026849
C46   C     C_1   0.499999 0.500001 0.930298 0.025544
N5    N     N_2   0.360913 0.310387 0.355509 -0.280487
H5    H     H_    0.390626 0.339927 0.305661 0.248294
C47   C     C_3   0.370912 0.209708 0.430536 -0.690489
H6    H     H_    0.392916 0.234020 0.512916 0.208635
H7    H     H_    0.391656 0.145806 0.374547 0.229694
H8    H     H_    0.336146 0.168860 0.461928 0.269027
N6    N     N_2   0.636957 0.694063 0.354201 -0.277170
H9    H     H_    0.606315 0.665992 0.308306 0.248723
C48   C     C_3   0.628550 0.793477 0.432356 -0.695320
H10   H     H_    0.607586 0.768098 0.516965 0.209567
H11   H     H_    0.607380 0.859043 0.380268 0.230553
H12   H     H_    0.663932 0.832775 0.460068 0.268342
N7    N     N_2   0.341803 0.629348 0.656540 -0.276124
H13   H     H_    0.324564 0.708372 0.655939 0.264995
C49   C     C_3   0.349016 0.586204 0.781475 -0.717667
H14   H     H_    0.313504 0.576792 0.830577 0.216073
H15   H     H_    0.372040 0.648111 0.833902 0.236317
H16   H     H_    0.367616 0.501180 0.780431 0.252728
N8    N     N_2   0.660298 0.372238 0.649680 -0.276550
H17   H     H_    0.678001 0.293795 0.648554 0.266117
C50   C     C_3   0.653409 0.415784 0.774650 -0.723264
H18   H     H_    0.689053 0.425120 0.821848 0.216633
H19   H     H_    0.630510 0.354048 0.828677 0.237790
H20   H     H_    0.634826 0.500837 0.774032 0.253061
O13   O     O_3   0.262161 0.318393 0.310663 -0.587218
C51   C     C_3   0.262124 0.371858 0.192614 0.082070
H21   H     H_    0.300233 0.389346 0.160438 0.145475
H22   H     H_    0.241416 0.454512 0.195177 0.144562
C52   C     C_3   0.237534 0.291045 0.099839 -0.287505
H23   H     H_    0.258322 0.208955 0.094206 0.236695
H24   H     H_    0.199802 0.271085 0.132513 0.228020
C53   C     C_3   0.235157 0.345494 0.970789 -1.004385
H25   H     H_    0.213680 0.426428 0.974687 0.262899
H26   H     H_    0.217051 0.285021 0.905537 0.278560
H27   H     H_    0.272496 0.364945 0.935228 0.266030
O14   O     O_3   0.734027 0.682777 0.291153 -0.591938
C54   C     C_3   0.733580 0.627923 0.174108 0.075587
H28   H     H_    0.695325 0.609044 0.145452 0.146587
H29   H     H_    0.754733 0.545876 0.176214 0.140869
C55   C     C_3   0.757129 0.708529 0.078238 -0.294503
H30   H     H_    0.735547 0.789398 0.071919 0.235940
H31   H     H_    0.794762 0.730993 0.108308 0.222602
C56   C     C_3   0.759742 0.652127 0.950394 -0.995617
H32   H     H_    0.782354 0.572966 0.955017 0.260516
H33   H     H_    0.776799 0.712774 0.882688 0.279494
H34   H     H_    0.722543 0.629353 0.917568 0.264720
O15   O     O_3   0.240378 0.615227 0.622317 -0.619406
C57   C     C_3   0.212550 0.553983 0.712483 0.073478
H35   H     H_    0.230694 0.562944 0.803813 0.153489
H36   H     H_    0.208458 0.459834 0.692853 0.149252
C58   C     C_3   0.161651 0.607378 0.722003 -0.326804
H37   H     H_    0.165016 0.700603 0.744888 0.230527
H38   H     H_    0.142887 0.599538 0.631303 0.218325
C59   C     C_3   0.130528 0.547733 0.821488 -0.958413
H39   H     H_    0.127042 0.454069 0.801076 0.267072
H40   H     H_    0.093447 0.586267 0.822999 0.269406
H41   H     H_    0.147145 0.559419 0.914535 0.265330
O16   O     O_3   0.761118 0.386149 0.601380 -0.616000
C60   C     C_3   0.789866 0.448298 0.687462 0.074827
H42   H     H_    0.770353 0.450339 0.778042 0.151604
H43   H     H_    0.797772 0.539129 0.658626 0.153740
C61   C     C_3   0.838507 0.386010 0.704596 -0.325680
H44   H     H_    0.831545 0.295203 0.733597 0.231261
H45   H     H_    0.858814 0.385064 0.614844 0.221625
C62   C     C_3   0.870004 0.445277 0.802278 -0.951862
H46   H     H_    0.876974 0.536741 0.775971 0.271867
H47   H     H_    0.905606 0.400108 0.809236 0.268071
H48   H     H_    0.851589 0.442081 0.894613 0.263353
N9    N     N_2   0.110964 0.169941 0.474711 -0.252669
H49   H     H_    0.099665 0.101147 0.421195 0.207724
C63   C     C_3   0.103438 0.148398 0.606029 -0.713922
H50   H     H_    0.122189 0.067282 0.632616 0.236715
H51   H     H_    0.063801 0.139166 0.627137 0.208687
H52   H     H_    0.118842 0.220139 0.662178 0.255814
N10   N     N_2   0.878092 0.829504 0.307767 -0.272623
H53   H     H_    0.841212 0.822646 0.291061 0.276677
C64   C     C_3   0.901208 0.903332 0.215288 -0.861707
H54   H     H_    0.874025 0.964476 0.177153 0.241250
H55   H     H_    0.915469 0.851460 0.136168 0.249981
H56   H     H_    0.931116 0.954255 0.258077 0.244886
N11   N     N_2   0.137935 0.790119 0.317290 -0.252229
H57   H     H_    0.127172 0.841943 0.244395 0.211992
C65   C     C_3   0.142502 0.854588 0.431825 -0.690535
H58   H     H_    0.106077 0.885319 0.463546 0.197610
H59   H     H_    0.166708 0.930454 0.416239 0.256153
H60   H     H_    0.158820 0.800114 0.505688 0.265635
N12   N     N_2   0.862287 0.200638 0.316219 -0.258027
H61   H     H_    0.873721 0.151097 0.242265 0.214607
C66   C     C_3   0.857352 0.134039 0.429557 -0.648955
H62   H     H_    0.893561 0.101526 0.459637 0.206796
H63   H     H_    0.832865 0.059061 0.413037 0.260670
H64   H     H_    0.841064 0.187591 0.504613 0.255543

loop_
_geom_bond_atom_site_label_1
_geom_bond_atom_site_label_2
_geom_bond_distance
_ccdc_geom_bond_type
O5    Zn1   1.987515 S    
N4    C46   1.193117 T    
N8    H17   1.031447 S    
O13   C51   1.411769 S    
C39   H3    1.073499 S    
N12   C66   1.446781 S    
C55   H30   1.111601 S    
C61   H45   1.110694 S    
C56   H32   1.109477 S    
O3    C2    1.264099 A    
C20   C35   1.412787 A    
C52   C53   1.525537 S    
C16   N6    1.425152 S    
C52   H23   1.111522 S    
C48   H10   1.111048 S    
C11   C17   1.401337 A    
C32   C38   1.408433 A    
N9    C63   1.447082 S    
O16   C60   1.415187 S    
O1    C1    1.264317 A    
C19   C21   1.417494 A    
C22   C26   1.412773 A    
C32   C36   1.416929 A    
N5    H5    1.028199 S    
C9    O15   1.386297 S    
C7    C23   1.406114 A    
C63   H52   1.111596 S    
C48   H12   1.111328 S    
N3    C45   1.193164 T    
N10   H53   1.029342 S    
C57   H35   1.108647 S    
C41   C43   1.179774 T    
C10   O16   1.385529 S    
C65   H60   1.110957 S    
N5    C47   1.445149 S    
O7    Zn1   1.982467 S    
C5    C21   1.407715 A    
C42   C44   1.179774 T    
C64   H55   1.111983 S    
C5    O9    1.348933 S    
C28   C37   1.395355 A    
C10   C18   1.414303 A    
C66   H62   1.111607 S    
C57   H36   1.116528 S    
N1    C17   1.434008 S    
C62   H48   1.111091 S    
C34   C36   1.415506 A    
C65   H58   1.111552 S    
C50   H19   1.109962 S    
C25   N9    1.423109 S    
C27   N11   1.424293 S    
C6    O10   1.349589 S    
C31   C37   1.408713 A    
C5    N1    1.364603 A    
N9    H49   1.031572 S    
C12   C18   1.403546 A    
C6    N2    1.366440 A    
C21   C25   1.413910 A    
O2    C2    1.264225 A    
O14   C54   1.411241 S    
C52   H24   1.111943 S    
C64   H54   1.109390 S    
C31   C34   1.414431 A    
Zn1   N4    1.962397 S    
C48   H11   1.110361 S    
C9    C13   1.406227 A    
C54   C55   1.527582 S    
C11   C15   1.393349 A    
C45   C46   1.499364 S    
C20   C24   1.413463 A    
C4    C30   1.465370 S    
O8    Zn2   1.982467 S    
C47   H7    1.110382 S    
C37   H1    1.079975 S    
C31   C35   1.411237 A    
N7    H13   1.031457 S    
C51   C52   1.527326 S    
C33   C35   1.415036 A    
C33   C39   1.412748 A    
C53   H27   1.110920 S    
C34   C40   1.407031 A    
C40   H4    1.079156 S    
C13   C29   1.412435 A    
C19   C23   1.416171 A    
N6    H9    1.028153 S    
C60   H43   1.116355 S    
C25   C40   1.392634 A    
C13   N7    1.424613 S    
C26   C39   1.401760 A    
C54   H29   1.115039 S    
C12   O14   1.383409 S    
C27   C38   1.392929 A    
O5    C3    1.276827 A    
C49   H14   1.107906 S    
C12   C16   1.392068 A    
O6    C4    1.271731 A    
C53   H26   1.110271 S    
C1    C41   1.391266 S    
C56   H33   1.110331 S    
C7    N1    1.364150 A    
C50   H20   1.110516 S    
C51   H22   1.114768 S    
N6    C48   1.445094 S    
C58   H38   1.109328 S    
C32   C33   1.420715 A    
C49   H15   1.110052 S    
C10   C14   1.407152 A    
C66   H64   1.110892 S    
N8    C50   1.447842 S    
C62   H46   1.111592 S    
C8    N2    1.367071 A    
C3    C29   1.465649 S    
C61   C62   1.526084 S    
O1    Zn1   1.953612 S    
C59   H40   1.110344 S    
C60   H42   1.108129 S    
C19   C36   1.417925 A    
C64   H56   1.110115 S    
C38   H2    1.076851 S    
C58   C59   1.525897 S    
N10   C64   1.450978 S    
O6    Zn2   1.987515 S    
C8    O12   1.348932 S    
C28   N12   1.420734 S    
C16   C30   1.416587 A    
C14   C30   1.410920 A    
O4    C1    1.264012 A    
O3    Zn1   1.952381 S    
N7    C49   1.447974 S    
C47   H8    1.111290 S    
C23   C27   1.413473 A    
C63   H50   1.110333 S    
C57   C58   1.529316 S    
C59   H39   1.111194 S    
C26   N10   1.437537 S    
C54   H28   1.114522 S    
C55   C56   1.524733 S    
C2    C42   1.391243 S    
C59   H41   1.110445 S    
N11   C65   1.447565 S    
C61   H44   1.112005 S    
C50   H18   1.107934 S    
C60   C61   1.528830 S    
C47   H6    1.110916 S    
C15   N5    1.424962 S    
N11   H57   1.031914 S    
C63   H51   1.111583 S    
C20   C22   1.408139 A    
C53   H25   1.109157 S    
Zn2   N3    1.962398 S    
C55   H31   1.111834 S    
C56   H34   1.110959 S    
C65   H59   1.110347 S    
O4    Zn2   1.952382 S    
C51   H21   1.114431 S    
O2    Zn2   1.953611 S    
O7    C4    1.277971 A    
N2    C18   1.437247 S    
C11   O13   1.383440 S    
O8    C3    1.273170 A    
C43   C44   1.370200 S    
C24   C28   1.410753 A    
C49   H16   1.110441 S    
C8    C24   1.407143 A    
C66   H63   1.110328 S    
C58   H37   1.111597 S    
C15   C29   1.416911 A    
C9    C17   1.411637 A    
N12   H61   1.029287 S    
C62   H47   1.110725 S    
C14   N8    1.424719 S    
O15   C57   1.416780 S    
C6    C22   1.403304 A    
C7    O11   1.349401 S    
