data_mof_unit_23860.cif
_audit_creation_date              2012-12-10T18:57:42-0500
_audit_creation_method            fapswitch 2.2
_symmetry_space_group_name_H-M    P1
_symmetry_Int_Tables_number       1
_space_group_crystal_system       triclinic
_cell_length_a                    10.927385
_cell_length_b                    10.844032
_cell_length_c                    9.539584
_cell_angle_alpha                 90.18218
_cell_angle_beta                  89.878556
_cell_angle_gamma                 90.354595
_cell_volume                      1130.38139668

loop_
_atom_site_label
_atom_site_type_symbol
_atom_type_description
_atom_site_fract_x
_atom_site_fract_y
_atom_site_fract_z
_atom_type_partial_charge
C1    C     C_R   0.504286 0.262312 0.499183 0.830490
C2    C     C_R   0.518049 0.129182 0.497207 -0.166134
C3    C     C_R   0.543514 0.061923 0.372563 0.256103
C4    C     C_R   0.539451 0.933564 0.375659 -0.270020
C5    C     C_R   0.513680 0.870624 0.500542 -0.148928
C6    C     C_R   0.507307 0.937509 0.625244 0.117575
C7    C     C_3   0.413603 0.933302 0.739470 -0.448307
C8    C     C_3   0.415523 0.073289 0.737591 -0.432003
C9    C     C_R   0.601602 0.537118 0.073350 0.269390
C10   C     C_R   0.405344 0.450190 0.074466 -0.040988
C11   C     C_R   0.405413 0.450046 0.925616 -0.068324
C12   C     C_R   0.265286 0.497352 0.500200 0.846738
C13   C     C_R   0.601235 0.537462 0.926007 0.211002
C14   C     C_3   0.661932 0.660580 0.919373 -0.540336
C15   C     C_3   0.662753 0.660521 0.078835 0.231246
C16   C     C_R   0.501634 0.737654 0.500247 0.805157
C17   C     C_R   0.734713 0.500604 0.499981 0.846195
C18   C     C_2   0.932980 0.481798 0.386554 -0.142606
C19   C     C_2   0.866785 0.505521 0.501777 -0.336753
C20   C     C_2   0.066903 0.489198 0.385174 -0.167395
C21   C     C_2   0.133283 0.488502 0.503047 -0.321743
C22   C     C_R   0.508774 0.064439 0.623298 0.093944
Cu1   Cu    Cu3+1 0.499990 0.499980 0.640670 0.948823
Cu2   Cu    Cu3+1 0.500010 0.500020 0.359330 0.977422
H1    H     H_    0.888032 0.459664 0.288097 0.206941
H2    H     H_    0.454103 0.114654 0.834845 0.231765
H3    H     H_    0.327899 0.411403 0.129959 0.145411
H4    H     H_    0.328042 0.411114 0.870199 0.139933
H5    H     H_    0.754499 0.655467 0.871125 0.216531
H6    H     H_    0.601901 0.732566 0.874496 0.176367
H7    H     H_    0.602658 0.732122 0.125782 0.083621
H8    H     H_    0.908141 0.531611 0.600572 0.148098
H9    H     H_    0.111454 0.493600 0.283377 0.167657
H10   H     H_    0.092030 0.477555 0.605538 0.148863
H11   H     H_    0.551912 0.883826 0.278606 0.178005
H12   H     H_    0.325076 0.892728 0.704305 0.195410
H13   H     H_    0.450469 0.894391 0.838238 0.200006
H14   H     H_    0.328018 0.114226 0.701558 0.188145
N1    N     N_R   0.500780 0.500930 0.147930 -0.216877
N2    N     N_R   0.500780 0.500890 0.852020 -0.187637
O1    O     O_R   0.500000 0.319640 0.618810 -0.581587
O2    O     O_R   0.500010 0.319680 0.381230 -0.528911
O3    O     O_R   0.321940 0.499980 0.618760 -0.594903
O4    O     O_R   0.321950 0.500020 0.381180 -0.587457
O5    O     O_R   0.499990 0.680320 0.618770 -0.578215
O6    O     O_R   0.500000 0.680360 0.381190 -0.602765
O7    O     O_R   0.678050 0.499980 0.618820 -0.582384
O8    O     O_R   0.678060 0.500020 0.381240 -0.558055
O9    O     O_3   0.783434 0.650592 0.131335 -0.595982
C23   C     C_3   0.811718 0.749145 0.223319 0.075539
H15   H     H_    0.896424 0.724225 0.280388 0.173667
H16   H     H_    0.739718 0.761676 0.304703 0.134710
C24   C     C_3   0.836431 0.869195 0.142999 -0.375753
H17   H     H_    0.906630 0.852462 0.060747 0.228796
H18   H     H_    0.751305 0.900696 0.091113 0.235553
C25   C     C_3   0.881915 0.970853 0.241232 -0.848127
H19   H     H_    0.813894 0.988038 0.325612 0.269361
H20   H     H_    0.895740 0.057403 0.181209 0.274063
H21   H     H_    0.970411 0.944298 0.289233 0.242861
Br1   Br    Br    0.579062 0.133954 0.192402 -0.573198

loop_
_geom_bond_atom_site_label_1
_geom_bond_atom_site_label_2
_ccdc_geom_bond_type
C10   H3    S    
C2    C22   A    
C8    C22   S    
Cu1   Cu2   S    
C17   O8    A    
C15   H7    S    
C6    C7    S    
Cu1   O5    S    
C8    H2    S    
C7    H12   S    
C23   H16   S    
Cu1   O1    S    
C25   H21   S    
Cu2   O6    S    
C3    Br1   S    
C15   O9    S    
C2    C3    A    
C7    H13   S    
C4    H11   S    
Cu1   O3    S    
C7    C8    S    
C12   O4    A    
C13   C14   S    
C25   H19   S    
C11   N2    A    
C18   H1    S    
C8    H14   S    
C11   H4    S    
C14   H6    S    
C20   H9    S    
C1    O1    A    
C17   C19   S    
C25   H20   S    
C18   C19   D    
C12   O3    A    
C18   C20   S    
C24   H18   S    
C9    C15   S    
C5    C6    A    
Cu2   O4    S    
C23   C24   S    
Cu1   O7    S    
C10   C11   A    
C19   H8    S    
C16   O5    A    
Cu1   N2    S    
C6    C22   A    
C17   O7    A    
C1    O2    A    
C9    N1    A    
Cu2   N1    S    
Cu2   O2    S    
C20   C21   D    
C1    C2    S    
C24   C25   S    
C16   O6    A    
O9    C23   S    
C9    C13   A    
C14   C15   S    
C4    C5    A    
C5    C16   S    
C21   H10   S    
C14   H5    S    
C23   H15   S    
C24   H17   S    
C12   C21   S    
C3    C4    A    
C10   N1    A    
C13   N2    A    
Cu2   O8    S    
