data_mof_unit_61095.cif
_audit_creation_date              2012-12-10T18:23:21-0500
_audit_creation_method            fapswitch 2.2
_symmetry_space_group_name_H-M    P1
_symmetry_Int_Tables_number       1
_space_group_crystal_system       triclinic
_cell_length_a                    35.634343
_cell_length_b                    35.634184
_cell_length_c                    38.943943
_cell_angle_alpha                 90.00099
_cell_angle_beta                  90.000982
_cell_angle_gamma                 89.999675
_cell_volume                      49451.0474368

loop_
_atom_site_label
_atom_site_type_symbol
_atom_type_description
_atom_site_fract_x
_atom_site_fract_y
_atom_site_fract_z
_atom_type_partial_charge
C1    C     C_R   0.072103 0.500000 0.500000 0.883849
C2    C     C_R   0.500000 0.614073 0.500001 -0.377841
C3    C     C_R   0.500000 1.000000 0.566367 0.875002
C4    C     C_R   0.500000 1.000000 0.933633 0.875011
C5    C     C_R   1.000000 0.500000 0.933633 0.874988
C6    C     C_R   0.500000 0.000000 0.066367 0.874987
C7    C     C_R   0.000000 0.500000 0.066367 0.875002
C8    C     C_R   0.019547 0.528049 0.377033 0.321473
C9    C     C_R   0.528050 0.980452 0.377033 0.321469
C10   C     C_R   0.980454 0.471949 0.377032 0.321466
C11   C     C_R   0.471948 0.019546 0.377032 0.321468
C12   C     C_R   0.019548 0.471950 0.622967 0.321472
C13   C     C_R   0.614075 0.500000 0.500001 -0.377904
C14   C     C_R   0.528052 0.019546 0.622968 0.321465
C15   C     C_R   0.980454 0.528052 0.622968 0.321470
C16   C     C_R   0.471950 0.980453 0.622967 0.321471
C17   C     C_R   0.519547 0.028050 0.877033 0.321471
C18   C     C_R   0.028049 0.480452 0.877033 0.321472
C19   C     C_R   0.480454 0.971948 0.877032 0.321466
C20   C     C_R   0.971948 0.519546 0.877032 0.321470
C21   C     C_R   0.519548 0.971950 0.122967 0.321470
C22   C     C_R   0.028051 0.519546 0.122968 0.321466
C23   C     C_R   0.480455 0.028052 0.122967 0.321469
C24   C     C_R   0.499999 0.385928 0.499999 -0.377831
C25   C     C_R   0.971951 0.480452 0.122967 0.321474
C26   C     C_R   0.019504 0.527713 0.341163 -0.180894
C27   C     C_R   0.527713 0.980497 0.341162 -0.180889
C28   C     C_R   0.980498 0.472284 0.341161 -0.180889
C29   C     C_R   0.472285 0.019502 0.341162 -0.180893
C30   C     C_R   0.019504 0.472287 0.658838 -0.180887
C31   C     C_R   0.527715 0.019501 0.658839 -0.180892
C32   C     C_R   0.980498 0.527715 0.658838 -0.180891
C33   C     C_R   0.472287 0.980496 0.658837 -0.180896
C34   C     C_R   0.519504 0.027713 0.841163 -0.180895
C35   C     C_R   0.885926 0.999999 0.999999 -0.377868
C36   C     C_R   0.027713 0.480496 0.841162 -0.180888
C37   C     C_R   0.480499 0.972284 0.841161 -0.180892
C38   C     C_R   0.972285 0.519502 0.841162 -0.180891
C39   C     C_R   0.519503 0.972287 0.158838 -0.180888
C40   C     C_R   0.027715 0.519502 0.158839 -0.180891
C41   C     C_R   0.480498 0.027716 0.158838 -0.180891
C42   C     C_R   0.972288 0.480496 0.158837 -0.180894
C43   C     C_R   0.000001 0.499998 0.322895 -0.083325
C44   C     C_R   0.499999 0.999999 0.322895 -0.083327
C45   C     C_R   0.000001 0.500001 0.677105 -0.083327
C46   C     C_R   0.000001 0.114074 0.000001 -0.377854
C47   C     C_R   0.500001 0.999999 0.677104 -0.083326
C48   C     C_R   0.500001 0.999998 0.822895 -0.083325
C49   C     C_R   0.999999 0.499999 0.822895 -0.083327
C50   C     C_R   0.500001 0.000001 0.177105 -0.083328
C51   C     C_R   0.000002 0.499998 0.177104 -0.083325
C52   C     C_R   0.000000 0.499999 0.395576 -0.236440
C53   C     C_R   0.499999 0.999999 0.395576 -0.236447
C54   C     C_R   0.000001 0.500001 0.604424 -0.236448
C55   C     C_R   0.500001 0.999999 0.604424 -0.236440
C56   C     C_R   0.500000 0.999999 0.895576 -0.236440
C57   C     C_R   0.114074 0.000000 0.000000 -0.377866
C58   C     C_R   0.999999 0.499999 0.895576 -0.236450
C59   C     C_R   0.500001 0.000001 0.104424 -0.236447
C60   C     C_R   0.000001 0.499999 0.104424 -0.236441
C61   C     C_R   0.000002 0.499998 0.215099 0.461040
C62   C     C_R   0.500000 0.000001 0.215099 0.461037
C63   C     C_R   0.999999 0.500000 0.784901 0.461039
C64   C     C_R   0.500002 0.999998 0.784901 0.461037
C65   C     C_R   0.500002 0.999998 0.715099 0.461038
C66   C     C_R   0.000000 0.500001 0.715099 0.461039
C67   C     C_R   0.499999 1.000000 0.284901 0.461038
C68   C     C_R   1.000000 0.885926 0.999999 -0.377864
C69   C     C_R   0.000002 0.499998 0.284901 0.461039
C70   C     C_R   0.326366 0.486363 0.528607 0.285657
C71   C     C_R   0.513708 0.673630 0.471422 0.285692
C72   C     C_R   0.673634 0.513643 0.528607 0.285660
C73   C     C_R   0.486286 0.326370 0.471421 0.285697
C74   C     C_R   0.326365 0.513636 0.471390 0.285653
C75   C     C_R   0.513712 0.326370 0.528577 0.285688
C76   C     C_R   0.673634 0.486358 0.471395 0.285654
C77   C     C_R   0.486292 0.673631 0.528582 0.285686
C78   C     C_R   0.826368 0.986326 0.028592 0.285675
C79   C     C_R   0.306658 0.499999 0.499999 -0.207510
C80   C     C_R   0.013669 0.173631 0.971405 0.285666
C81   C     C_R   0.173632 0.013671 0.028596 0.285672
C82   C     C_R   0.986319 0.826368 0.971408 0.285676
C83   C     C_R   0.826368 0.013672 0.971405 0.285669
C84   C     C_R   0.013679 0.826368 0.028590 0.285676
C85   C     C_R   0.173632 0.986332 0.971405 0.285665
C86   C     C_R   0.986332 0.173633 0.028595 0.285663
C87   C     C_R   0.365793 0.485252 0.528327 0.361285
C88   C     C_R   0.514816 0.634203 0.471703 0.361312
C89   C     C_R   0.634207 0.514753 0.528326 0.361288
C90   C     C_R   0.500001 0.693338 0.500002 -0.207541
C91   C     C_R   0.485179 0.365797 0.471703 0.361321
C92   C     C_R   0.365793 0.514747 0.471671 0.361287
C93   C     C_R   0.514819 0.365797 0.528295 0.361319
C94   C     C_R   0.634207 0.485248 0.471675 0.361287
C95   C     C_R   0.485184 0.634203 0.528299 0.361322
C96   C     C_R   0.865795 0.985217 0.028311 0.361295
C97   C     C_R   0.014779 0.134204 0.971687 0.361313
C98   C     C_R   0.134205 0.014780 0.028315 0.361301
C99   C     C_R   0.985211 0.865795 0.971689 0.361303
C100  C     C_R   0.865795 0.014782 0.971687 0.361309
C101  C     C_R   0.693341 0.500001 0.500001 -0.207506
C102  C     C_R   0.014788 0.865796 0.028309 0.361304
C103  C     C_R   0.134205 0.985222 0.971686 0.361302
C104  C     C_R   0.985223 0.134206 0.028314 0.361291
C105  C     C_3   0.391197 0.432514 0.551236 -0.133365
C106  C     C_3   0.567604 0.608779 0.448911 -0.133398
C107  C     C_3   0.608801 0.567496 0.551225 -0.133372
C108  C     C_3   0.432387 0.391223 0.448921 -0.133425
C109  C     C_3   0.391194 0.567487 0.448765 -0.133361
C110  C     C_3   0.567610 0.391219 0.551083 -0.133429
C111  C     C_3   0.608804 0.432505 0.448773 -0.133381
C112  C     C_R   0.500000 0.927897 0.500000 0.883839
C113  C     C_R   0.499999 0.306662 0.499998 -0.207539
C114  C     C_3   0.432393 0.608783 0.551089 -0.133409
C115  C     C_3   0.891208 0.932454 0.051162 -0.133387
C116  C     C_3   0.067542 0.108794 0.948838 -0.133401
C117  C     C_3   0.108793 0.067540 0.051171 -0.133386
C118  C     C_3   0.932444 0.891211 0.948849 -0.133407
C119  C     C_3   0.891205 0.067548 0.948843 -0.133389
C120  C     C_3   0.067558 0.891208 0.051147 -0.133405
C121  C     C_3   0.108796 0.932458 0.948831 -0.133402
C122  C     C_3   0.932464 0.108798 0.051174 -0.133397
C123  C     C_3   0.111255 0.514980 0.580643 -0.220235
C124  C     C_R   0.806660 0.999999 0.999998 -0.207523
C125  C     C_3   0.514977 0.888742 0.580647 -0.220249
C126  C     C_3   0.888750 0.485023 0.580643 -0.220236
C127  C     C_3   0.485030 0.111264 0.580647 -0.220240
C128  C     C_3   0.111257 0.485020 0.419353 -0.220238
C129  C     C_3   0.514974 0.111252 0.419356 -0.220245
C130  C     C_3   0.888738 0.514974 0.419354 -0.220232
C131  C     C_3   0.485022 0.888744 0.419357 -0.220243
C132  C     C_3   0.611255 0.014978 0.080643 -0.220239
C133  C     C_3   0.014980 0.388742 0.080646 -0.220242
C134  C     C_3   0.388749 0.985025 0.080643 -0.220238
C135  C     C_R   0.000000 0.193340 1.000000 -0.207504
C136  C     C_3   0.985027 0.611261 0.080646 -0.220234
C137  C     C_3   0.611257 0.985022 0.919353 -0.220240
C138  C     C_3   0.014977 0.611251 0.919357 -0.220241
C139  C     C_3   0.388733 0.014970 0.919351 -0.220236
C140  C     C_3   0.985019 0.388746 0.919357 -0.220238
C141  C     C_R   0.193339 0.000002 0.000001 -0.207516
C142  C     C_R   0.999998 0.806661 0.999999 -0.207523
C143  C     C_1   0.266154 0.499999 0.499998 0.195066
C144  C     C_1   0.500001 0.733843 0.500002 0.195059
C145  C     C_1   0.733846 0.500001 0.500002 0.195069
C146  C     C_1   0.499999 0.266157 0.499998 0.195064
C147  C     C_1   0.766155 0.999998 0.999998 0.195063
C148  C     C_R   0.927897 0.500000 0.500000 0.883846
C149  C     C_1   1.000000 0.233845 0.999999 0.195073
C150  C     C_1   0.233845 0.000003 0.000001 0.195067
C151  C     C_1   0.999998 0.766156 0.999999 0.195068
C152  C     C_1   0.232341 0.499999 0.499998 0.074436
C153  C     C_1   0.500001 0.767656 0.500002 0.074434
C154  C     C_1   0.767659 0.500001 0.500002 0.074437
C155  C     C_1   0.499999 0.232344 0.499998 0.074434
C156  C     C_1   0.732342 0.999998 0.999998 0.074434
C157  C     C_1   0.000000 0.267658 0.999999 0.074437
C158  C     C_1   0.267658 0.000003 0.000000 0.074434
C159  C     C_R   0.500000 0.072103 0.500000 0.883840
C160  C     C_1   0.999998 0.732343 0.999999 0.074437
C161  C     C_R   0.172377 0.491093 0.530018 -0.198120
C162  C     C_R   0.491094 0.827623 0.530019 -0.198130
C163  C     C_R   0.827624 0.508909 0.530019 -0.198120
C164  C     C_R   0.508908 0.172379 0.530017 -0.198133
C165  C     C_R   0.172375 0.508905 0.469980 -0.198133
C166  C     C_R   0.491090 0.172377 0.469981 -0.198117
C167  C     C_R   0.827623 0.491093 0.469983 -0.198132
C168  C     C_R   0.508908 0.827621 0.469983 -0.198115
C169  C     C_R   0.672378 0.991092 0.030017 -0.198117
C170  C     C_R   0.572103 1.000000 1.000000 0.883841
C171  C     C_R   0.991095 0.327624 0.030018 -0.198129
C172  C     C_R   0.327624 0.008911 0.030018 -0.198116
C173  C     C_R   0.008907 0.672378 0.030018 -0.198130
C174  C     C_R   0.672376 0.008906 0.969980 -0.198133
C175  C     C_R   0.991090 0.672376 0.969981 -0.198116
C176  C     C_R   0.327622 0.991093 0.969982 -0.198141
C177  C     C_R   0.008906 0.327622 0.969981 -0.198117
C178  C     C_R   0.133020 0.491676 0.530370 0.419360
C179  C     C_R   0.491676 0.866981 0.530371 0.419377
C180  C     C_R   0.866982 0.508325 0.530371 0.419364
C181  C     C_R   0.000000 0.427897 1.000000 0.883843
C182  C     C_R   0.508326 0.133021 0.530369 0.419373
C183  C     C_R   0.133018 0.508322 0.469629 0.419368
C184  C     C_R   0.491674 0.133019 0.469629 0.419372
C185  C     C_R   0.866980 0.491675 0.469631 0.419366
C186  C     C_R   0.508325 0.866979 0.469630 0.419368
C187  C     C_R   0.633021 0.991675 0.030369 0.419366
C188  C     C_R   0.991678 0.366981 0.030370 0.419372
C189  C     C_R   0.366981 0.008327 0.030371 0.419362
C190  C     C_R   0.008324 0.633020 0.030370 0.419369
C191  C     C_R   0.633019 0.008323 0.969629 0.419374
C192  C     C_R   0.427897 0.000000 0.000000 0.883851
C193  C     C_R   0.991674 0.633019 0.969629 0.419368
C194  C     C_R   0.366980 0.991675 0.969630 0.419371
C195  C     C_R   0.008323 0.366980 0.969629 0.419364
C196  C     C_R   0.113246 0.500000 0.500000 -0.226037
C197  C     C_R   0.500000 0.886753 0.500000 -0.226045
C198  C     C_R   0.886754 0.500000 0.500001 -0.226041
C199  C     C_R   0.500000 0.113247 0.499999 -0.226046
C200  C     C_R   0.613246 1.000000 1.000000 -0.226042
C201  C     C_R   0.000000 0.386754 1.000000 -0.226040
C202  C     C_R   0.386754 0.000000 0.000000 -0.226040
C203  C     C_R   1.000000 0.572103 1.000000 0.883841
C204  C     C_R   1.000000 0.613246 1.000000 -0.226044
C205  C     C_R   0.191999 0.499999 0.499999 -0.041572
C206  C     C_R   0.500001 0.807999 0.500001 -0.041568
C207  C     C_R   0.808001 0.500001 0.500001 -0.041573
C208  C     C_R   0.499999 0.192001 0.499999 -0.041565
C209  C     C_R   0.692000 0.999999 0.999998 -0.041570
C210  C     C_R   0.000000 0.308000 1.000000 -0.041572
C211  C     C_R   0.308000 0.000002 0.000000 -0.041566
C212  C     C_R   0.999998 0.692000 0.999999 -0.041571
C213  C     C_R   0.500000 0.572367 0.500000 0.837103
C214  C     C_R   0.385925 0.500000 0.499999 -0.377918
C215  C     C_R   0.572368 0.500000 0.500000 0.837003
C216  C     C_R   0.500000 0.427633 0.500000 0.837107
C217  C     C_R   0.427632 0.500000 0.500000 0.836997
C218  C     C_R   0.000000 0.072367 0.000000 0.837067
C219  C     C_R   0.072367 1.000000 0.000000 0.837058
C220  C     C_R   0.000000 0.927633 1.000000 0.837062
C221  C     C_R   0.927633 1.000000 1.000000 0.837052
C222  C     C_R   0.000000 0.500000 0.433633 0.875007
C223  C     C_R   0.500000 1.000000 0.433633 0.874984
C224  C     C_R   0.000000 0.500000 0.566367 0.874992
Cl1   Cl    Cl    0.045945 0.563597 0.397274 -0.509379
Cl2   Cl    Cl    0.063597 0.454054 0.897273 -0.509380
Cl3   Cl    Cl    0.454057 0.936401 0.897271 -0.509389
Cl4   Cl    Cl    0.936400 0.545943 0.897273 -0.509377
Cl5   Cl    Cl    0.545945 0.936403 0.102727 -0.509383
Cl6   Cl    Cl    0.063598 0.545944 0.102729 -0.509386
Cl7   Cl    Cl    0.454057 0.063600 0.102727 -0.509381
Cl8   Cl    Cl    0.936403 0.454054 0.102726 -0.509377
Cl9   Cl    Cl    0.301962 0.470097 0.565191 -0.530352
Cl10  Cl    Cl    0.530072 0.698033 0.434875 -0.530276
Cl11  Cl    Cl    0.698038 0.529918 0.565188 -0.530343
Cl12  Cl    Cl    0.563597 0.954054 0.397273 -0.509380
Cl13  Cl    Cl    0.469917 0.301966 0.434876 -0.530266
Cl14  Cl    Cl    0.301961 0.529902 0.434806 -0.530350
Cl15  Cl    Cl    0.530080 0.301967 0.565122 -0.530286
Cl16  Cl    Cl    0.698038 0.470085 0.434815 -0.530357
Cl17  Cl    Cl    0.469930 0.698035 0.565129 -0.530280
Cl18  Cl    Cl    0.801964 0.970011 0.065157 -0.530317
Cl19  Cl    Cl    0.029977 0.198035 0.934839 -0.530333
Cl20  Cl    Cl    0.198037 0.029982 0.065163 -0.530324
Cl21  Cl    Cl    0.969993 0.801964 0.934847 -0.530312
Cl22  Cl    Cl    0.801964 0.029987 0.934840 -0.530313
Cl23  Cl    Cl    0.954056 0.436401 0.397271 -0.509390
Cl24  Cl    Cl    0.030003 0.801964 0.065151 -0.530314
Cl25  Cl    Cl    0.198036 0.970022 0.934838 -0.530330
Cl26  Cl    Cl    0.970026 0.198038 0.065162 -0.530345
Cl27  Cl    Cl    0.436400 0.045943 0.397272 -0.509376
Cl28  Cl    Cl    0.045946 0.436403 0.602727 -0.509385
Cl29  Cl    Cl    0.563599 0.045943 0.602729 -0.509385
Cl30  Cl    Cl    0.954057 0.563600 0.602727 -0.509381
Cl31  Cl    Cl    0.436402 0.954056 0.602726 -0.509374
Cl32  Cl    Cl    0.545944 0.063598 0.897274 -0.509377
Cu1   Cu    Cu3+1 0.000000 0.462790 0.500000 1.114651
Cu2   Cu    Cu3+1 0.500000 0.500000 0.534160 1.078314
Cu3   Cu    Cu3+1 0.000000 0.000000 0.965840 1.078312
Cu4   Cu    Cu3+1 0.000000 0.000000 0.034160 1.078304
Cu5   Cu    Cu3+1 0.462790 0.000000 0.500000 1.114656
Cu6   Cu    Cu3+1 0.000000 0.537210 0.500000 1.114650
Cu7   Cu    Cu3+1 0.537210 0.000000 0.500000 1.114656
Cu8   Cu    Cu3+1 0.500000 0.962790 0.000000 1.114654
Cu9   Cu    Cu3+1 0.962790 0.500000 0.000000 1.114650
Cu10  Cu    Cu3+1 0.500000 0.037210 0.000000 1.114655
Cu11  Cu    Cu3+1 0.037210 0.500000 0.000000 1.114652
Cu12  Cu    Cu3+1 0.500000 0.500000 0.465840 1.078315
H1    H     H_    0.034811 0.549372 0.327577 0.206184
H2    H     H_    0.049372 0.465189 0.827576 0.206184
H3    H     H_    0.860508 0.525335 0.411615 0.163366
H4    H     H_    0.904229 0.507828 0.395538 0.209776
H5    H     H_    0.492168 0.904232 0.395540 0.209775
H6    H     H_    0.462453 0.904738 0.432651 0.145450
H7    H     H_    0.474653 0.860516 0.411620 0.163350
H8    H     H_    0.595768 0.007833 0.104460 0.209774
H9    H     H_    0.595261 0.037547 0.067348 0.145450
H10   H     H_    0.639483 0.025348 0.088379 0.163357
H11   H     H_    0.007836 0.404234 0.104461 0.209769
H12   H     H_    0.037554 0.404731 0.067352 0.145455
H13   H     H_    0.465192 0.950625 0.827575 0.206183
H14   H     H_    0.025342 0.360512 0.088384 0.163362
H15   H     H_    0.404238 0.992171 0.104460 0.209772
H16   H     H_    0.404743 0.962456 0.067348 0.145449
H17   H     H_    0.360521 0.974655 0.088380 0.163358
H18   H     H_    0.962452 0.595272 0.067354 0.145451
H19   H     H_    0.974665 0.639492 0.088385 0.163357
H20   H     H_    0.992173 0.595771 0.104462 0.209776
H21   H     H_    0.595765 0.992167 0.895537 0.209770
H22   H     H_    0.595270 0.962447 0.932646 0.145453
H23   H     H_    0.639487 0.974661 0.911613 0.163361
H24   H     H_    0.950625 0.534809 0.827576 0.206184
H25   H     H_    0.007832 0.595761 0.895541 0.209770
H26   H     H_    0.037546 0.595257 0.932653 0.145451
H27   H     H_    0.025346 0.639478 0.911620 0.163358
H28   H     H_    0.404712 0.037552 0.932642 0.145448
H29   H     H_    0.360501 0.025321 0.911606 0.163370
H30   H     H_    0.404230 0.007826 0.895538 0.209773
H31   H     H_    0.992163 0.404235 0.895540 0.209771
H32   H     H_    0.962450 0.404741 0.932652 0.145452
H33   H     H_    0.974649 0.360518 0.911620 0.163359
H34   H     H_    0.534810 0.950627 0.172424 0.206184
H35   H     H_    0.049374 0.534809 0.172425 0.206183
H36   H     H_    0.465191 0.049375 0.172424 0.206184
H37   H     H_    0.950629 0.465188 0.172423 0.206184
H38   H     H_    0.187529 0.483984 0.553257 0.194594
H39   H     H_    0.483984 0.812473 0.553259 0.194581
H40   H     H_    0.812474 0.516020 0.553259 0.194594
H41   H     H_    0.549373 0.965190 0.327576 0.206184
H42   H     H_    0.516020 0.187530 0.553256 0.194581
H43   H     H_    0.187526 0.516014 0.446741 0.194589
H44   H     H_    0.483979 0.187527 0.446742 0.194586
H45   H     H_    0.812471 0.483982 0.446744 0.194590
H46   H     H_    0.516018 0.812469 0.446744 0.194587
H47   H     H_    0.687530 0.983982 0.053256 0.194591
H48   H     H_    0.983986 0.312473 0.053258 0.194587
H49   H     H_    0.312473 0.016022 0.053258 0.194591
H50   H     H_    0.016017 0.687530 0.053257 0.194586
H51   H     H_    0.687526 0.016015 0.946741 0.194585
H52   H     H_    0.965191 0.450625 0.327575 0.206182
H53   H     H_    0.983979 0.687527 0.946742 0.194590
H54   H     H_    0.312471 0.983981 0.946743 0.194582
H55   H     H_    0.016015 0.312471 0.946741 0.194591
H56   H     H_    0.410451 0.427915 0.529180 0.094386
H57   H     H_    0.364594 0.416706 0.547314 0.170201
H58   H     H_    0.405054 0.420888 0.574414 0.202551
H59   H     H_    0.572132 0.589510 0.470968 0.094300
H60   H     H_    0.583411 0.635373 0.452884 0.170153
H61   H     H_    0.579290 0.594930 0.425754 0.202617
H62   H     H_    0.589545 0.572088 0.529169 0.094378
H63   H     H_    0.450625 0.034809 0.327576 0.206184
H64   H     H_    0.635403 0.583305 0.547298 0.170193
H65   H     H_    0.594945 0.579128 0.574401 0.202557
H66   H     H_    0.427865 0.410495 0.470976 0.094303
H67   H     H_    0.416580 0.364630 0.452899 0.170145
H68   H     H_    0.420696 0.405068 0.425765 0.202628
H69   H     H_    0.410446 0.572086 0.470823 0.094387
H70   H     H_    0.364590 0.583295 0.452686 0.170203
H71   H     H_    0.405052 0.579114 0.425588 0.202552
H72   H     H_    0.572137 0.410488 0.529028 0.094304
H73   H     H_    0.583416 0.364624 0.547109 0.170159
H74   H     H_    0.034811 0.450627 0.672424 0.206183
H75   H     H_    0.579299 0.405065 0.574240 0.202624
H76   H     H_    0.589549 0.427911 0.470828 0.094385
H77   H     H_    0.635407 0.416699 0.452700 0.170199
H78   H     H_    0.594949 0.420874 0.425596 0.202554
H79   H     H_    0.427862 0.589521 0.529027 0.094286
H80   H     H_    0.416587 0.635380 0.547125 0.170177
H81   H     H_    0.420708 0.594929 0.574243 0.202616
H82   H     H_    0.910470 0.927891 0.029106 0.094346
H83   H     H_    0.864610 0.916645 0.047214 0.170175
H84   H     H_    0.905061 0.920799 0.074331 0.202585
H85   H     H_    0.549375 0.034808 0.672425 0.206183
H86   H     H_    0.072110 0.089552 0.970905 0.094310
H87   H     H_    0.083348 0.135397 0.952764 0.170242
H88   H     H_    0.079193 0.094922 0.925679 0.202582
H89   H     H_    0.089540 0.072108 0.029109 0.094341
H90   H     H_    0.135392 0.083348 0.047237 0.170214
H91   H     H_    0.094930 0.079190 0.074335 0.202588
H92   H     H_    0.927887 0.910476 0.970904 0.094340
H93   H     H_    0.916637 0.864614 0.952801 0.170178
H94   H     H_    0.920782 0.905062 0.925683 0.202592
H95   H     H_    0.910462 0.072111 0.970903 0.094340
H96   H     H_    0.965191 0.549375 0.672424 0.206184
H97   H     H_    0.864605 0.083355 0.952786 0.170188
H98   H     H_    0.905061 0.079206 0.925678 0.202589
H99   H     H_    0.072115 0.910471 0.029091 0.094342
H100  H     H_    0.083363 0.864610 0.047194 0.170179
H101  H     H_    0.079222 0.905059 0.074312 0.202593
H102  H     H_    0.089541 0.927890 0.970890 0.094338
H103  H     H_    0.135397 0.916652 0.952768 0.170206
H104  H     H_    0.094937 0.920805 0.925664 0.202580
H105  H     H_    0.927891 0.089548 0.029111 0.094336
H106  H     H_    0.916658 0.135400 0.047243 0.170228
H107  H     H_    0.450628 0.965189 0.672423 0.206184
H108  H     H_    0.920815 0.094935 0.074338 0.202581
H109  H     H_    0.095767 0.507836 0.604460 0.209772
H110  H     H_    0.095262 0.537550 0.567348 0.145452
H111  H     H_    0.139484 0.525349 0.588380 0.163367
H112  H     H_    0.507832 0.904234 0.604462 0.209771
H113  H     H_    0.537552 0.904729 0.567354 0.145454
H114  H     H_    0.525338 0.860512 0.588387 0.163354
H115  H     H_    0.904239 0.492168 0.604460 0.209770
H116  H     H_    0.904744 0.462454 0.567348 0.145451
H117  H     H_    0.860522 0.474653 0.588380 0.163365
H118  H     H_    0.534811 0.049372 0.827577 0.206184
H119  H     H_    0.462451 0.095279 0.567356 0.145449
H120  H     H_    0.474672 0.139495 0.588388 0.163354
H121  H     H_    0.492175 0.095772 0.604462 0.209776
H122  H     H_    0.095765 0.492164 0.395538 0.209769
H123  H     H_    0.095269 0.462446 0.432647 0.145455
H124  H     H_    0.139487 0.474658 0.411614 0.163370
H125  H     H_    0.507828 0.095763 0.395539 0.209773
H126  H     H_    0.537544 0.095257 0.432651 0.145451
H127  H     H_    0.525344 0.139480 0.411620 0.163347
H128  H     H_    0.904727 0.537549 0.432646 0.145451
N1    N     N_R   0.976855 0.476812 0.267090 -0.216375
N2    N     N_R   0.976813 0.523147 0.767091 -0.216373
N3    N     N_R   0.523148 0.023184 0.767091 -0.216375
N4    N     N_R   0.023186 0.476853 0.767091 -0.216374
N5    N     N_R   0.476853 0.023186 0.232909 -0.216374
N6    N     N_R   0.976816 0.476851 0.232908 -0.216375
N7    N     N_R   0.523147 0.976814 0.232909 -0.216374
N8    N     N_R   0.023188 0.523145 0.232910 -0.216375
N9    N     N_R   0.476813 0.023147 0.267091 -0.216374
N10   N     N_R   0.023148 0.523184 0.267091 -0.216375
N11   N     N_R   0.523186 0.976853 0.267091 -0.216375
N12   N     N_R   0.976853 0.523187 0.732909 -0.216373
N13   N     N_R   0.476816 0.976852 0.732908 -0.216376
N14   N     N_R   0.023147 0.476814 0.732909 -0.216374
N15   N     N_R   0.523188 0.023145 0.732910 -0.216376
N16   N     N_R   0.476855 0.976812 0.767090 -0.216375
O1    O     O_R   0.054320 0.468590 0.500060 -0.565448
O2    O     O_R   0.968590 0.445680 0.000060 -0.565451
O3    O     O_R   0.445680 0.031410 0.000060 -0.565443
O4    O     O_R   0.031410 0.554320 0.000060 -0.565450
O5    O     O_R   0.554320 0.031410 0.999940 -0.565451
O6    O     O_R   0.968590 0.554320 0.999940 -0.565446
O7    O     O_R   0.445680 0.968590 0.999940 -0.565451
O8    O     O_R   0.031410 0.445680 0.999940 -0.565447
O9    O     O_R   0.999950 0.468590 0.450130 -0.543655
O10   O     O_R   0.468590 0.000050 0.450130 -0.543655
O11   O     O_R   0.000050 0.531410 0.450130 -0.543654
O12   O     O_R   0.468590 0.945680 0.500060 -0.565448
O13   O     O_R   0.531410 0.999950 0.450130 -0.543656
O14   O     O_R   0.999950 0.531410 0.549870 -0.543656
O15   O     O_R   0.468590 0.999950 0.549870 -0.543651
O16   O     O_R   0.000050 0.468590 0.549870 -0.543659
O17   O     O_R   0.531410 0.000050 0.549870 -0.543654
O18   O     O_R   0.499950 0.968590 0.950130 -0.543655
O19   O     O_R   0.968590 0.500050 0.950130 -0.543656
O20   O     O_R   0.500050 0.031410 0.950130 -0.543650
O21   O     O_R   0.031410 0.499950 0.950130 -0.543657
O22   O     O_R   0.499950 0.031410 0.049870 -0.543657
O23   O     O_R   0.945680 0.531410 0.500060 -0.565448
O24   O     O_R   0.968590 0.499950 0.049870 -0.543653
O25   O     O_R   0.500050 0.968590 0.049870 -0.543658
O26   O     O_R   0.031410 0.500050 0.049870 -0.543654
O27   O     O_R   0.499940 0.554330 0.471170 -0.544532
O28   O     O_R   0.554330 0.500060 0.471170 -0.544484
O29   O     O_R   0.500060 0.445670 0.471170 -0.544532
O30   O     O_R   0.445670 0.499940 0.471170 -0.544482
O31   O     O_R   0.499940 0.445670 0.528830 -0.544533
O32   O     O_R   0.554330 0.499940 0.528830 -0.544484
O33   O     O_R   0.500060 0.554330 0.528830 -0.544527
O34   O     O_R   0.531410 0.054320 0.500060 -0.565448
O35   O     O_R   0.445670 0.500060 0.528830 -0.544483
O36   O     O_R   0.999940 0.054330 0.971170 -0.544500
O37   O     O_R   0.054330 0.000060 0.971170 -0.544508
O38   O     O_R   0.000060 0.945670 0.971170 -0.544513
O39   O     O_R   0.945670 0.999940 0.971170 -0.544503
O40   O     O_R   0.999940 0.945670 0.028830 -0.544508
O41   O     O_R   0.054330 0.999940 0.028830 -0.544503
O42   O     O_R   0.000060 0.054330 0.028830 -0.544511
O43   O     O_R   0.945670 0.000060 0.028830 -0.544512
O44   O     O_3   0.384484 0.471086 0.556641 -0.506496
O45   O     O_R   0.054320 0.531410 0.499940 -0.565452
O46   O     O_3   0.529051 0.615510 0.443419 -0.506490
O47   O     O_3   0.615516 0.528926 0.556637 -0.506497
O48   O     O_3   0.470938 0.384489 0.443422 -0.506490
O49   O     O_3   0.384483 0.528915 0.443358 -0.506494
O50   O     O_3   0.529058 0.384490 0.556578 -0.506496
O51   O     O_3   0.615516 0.471076 0.443364 -0.506499
O52   O     O_3   0.470948 0.615511 0.556582 -0.506491
O53   O     O_3   0.884486 0.971017 0.056611 -0.506497
O54   O     O_3   0.028980 0.115512 0.943390 -0.506513
O55   O     O_3   0.115514 0.028977 0.056614 -0.506509
O56   O     O_R   0.468590 0.054320 0.499940 -0.565442
O57   O     O_3   0.971004 0.884487 0.943393 -0.506496
O58   O     O_3   0.884486 0.028986 0.943391 -0.506499
O59   O     O_3   0.028998 0.884487 0.056604 -0.506497
O60   O     O_3   0.115513 0.971022 0.943387 -0.506499
O61   O     O_3   0.971028 0.115515 0.056614 -0.506511
O62   O     O_3   0.113902 0.482520 0.560080 -0.529191
O63   O     O_3   0.482519 0.886101 0.560080 -0.529184
O64   O     O_3   0.886101 0.517483 0.560081 -0.529188
O65   O     O_3   0.517485 0.113902 0.560078 -0.529187
O66   O     O_3   0.113898 0.517479 0.439920 -0.529191
O67   O     O_R   0.945680 0.468590 0.499940 -0.565452
O68   O     O_3   0.482515 0.113900 0.439920 -0.529181
O69   O     O_3   0.886098 0.482517 0.439921 -0.529192
O70   O     O_3   0.517482 0.886096 0.439921 -0.529183
O71   O     O_3   0.613903 0.982518 0.060079 -0.529186
O72   O     O_3   0.982521 0.386101 0.060080 -0.529189
O73   O     O_3   0.386100 0.017485 0.060080 -0.529184
O74   O     O_3   0.017483 0.613902 0.060079 -0.529188
O75   O     O_3   0.613899 0.017480 0.939920 -0.529188
O76   O     O_3   0.982517 0.613900 0.939920 -0.529184
O77   O     O_3   0.386099 0.982516 0.939922 -0.529194
O78   O     O_R   0.531410 0.945680 0.499940 -0.565445
O79   O     O_3   0.017479 0.386098 0.939919 -0.529188
O80   O     O_R   0.554320 0.968590 0.000060 -0.565446

loop_
_geom_bond_atom_site_label_1
_geom_bond_atom_site_label_2
_ccdc_geom_bond_type
C189  O73   S    
C66   N12   A    
C8    C26   A    
C32   C45   A    
C41   C50   A    
C30   C45   A    
C129  H127  S    
C138  H26   S    
C185  O69   S    
C15   C32   A    
C140  H32   S    
C224  O14   A    
C107  O47   S    
C118  H93   S    
C28   H52   S    
C117  H89   S    
C68   C220  S    
C21   C59   A    
C35   C221  S    
C114  H81   S    
C22   C60   A    
C125  H114  S    
C72   C101  A    
C116  H87   S    
C167  C185  A    
C187  O71   S    
C123  H110  S    
C71   Cl10  S    
C74   C92   A    
C215  O28   A    
C19   C37   A    
C76   C94   A    
C127  H120  S    
C175  H53   S    
C94   O51   S    
C127  H121  S    
C78   C96   A    
C25   C60   A    
C111  H77   S    
C85   C103  A    
C174  C191  A    
C217  O35   A    
C65   N15   A    
C4    C56   S    
C161  C205  A    
Cu11  O26   S    
C112  O78   A    
C117  H91   S    
Cu11  O4    S    
C124  C147  S    
C165  C183  A    
C15   C54   A    
C173  H50   S    
C166  C184  A    
Cu2   O35   S    
C169  C187  A    
C213  O27   A    
C73   Cl13  S    
C113  C146  S    
C181  O8    A    
C215  O32   A    
C122  O61   S    
C26   H1    S    
C22   Cl6   S    
C133  O72   S    
C84   C142  A    
C63   N4    A    
C183  C196  A    
Cu5   O15   S    
N1    N6    A    
Cu8   O80   S    
Cu4   O41   S    
Cu6   O23   S    
Cu10  O5    S    
C83   C100  A    
C29   C44   A    
C164  C208  A    
C33   C47   A    
C173  C212  A    
C34   C48   A    
C17   C34   A    
C75   C93   A    
C224  O16   A    
C158  C211  S    
Cu6   O11   S    
C116  O54   S    
C177  C195  A    
C161  H38   S    
C3    O17   A    
C181  C201  S    
C182  C199  A    
C130  O69   S    
C133  H11   S    
C176  C211  A    
C131  H5    S    
C195  C201  A    
C53   C223  S    
C132  H10   S    
C217  O30   A    
C13   C94   A    
Cu1   O16   S    
C23   C41   A    
C76   Cl16  S    
C187  C200  A    
C13   C215  S    
C4    O18   A    
C6    O22   A    
C5    O19   A    
C190  C204  A    
C129  O68   S    
Cu7   O17   S    
C137  H22   S    
Cu2   O32   S    
C180  C198  A    
C115  O53   S    
C67   N11   A    
C109  H70   S    
C106  H60   S    
C128  O66   S    
C121  H103  S    
C36   H2    S    
C170  O80   A    
Cu10  O3    S    
C175  C193  A    
C23   Cl7   S    
C159  O56   A    
C132  H8    S    
C19   C56   A    
C222  O11   A    
C25   Cl8   S    
C85   Cl25  S    
C111  H78   S    
C172  H49   S    
C84   C102  A    
C115  H84   S    
Cu2   O33   S    
C14   C31   A    
Cu2   Cu12  S    
C110  H75   S    
C110  O50   S    
C35   C96   A    
C106  H61   S    
C23   C59   A    
C101  C145  S    
C221  O39   A    
C80   C135  A    
C5    C58   S    
C108  H67   S    
C77   Cl17  S    
C125  O63   S    
C81   Cl20  S    
C33   H107  S    
C139  H28   S    
C16   Cl31  S    
C180  O64   S    
C164  H42   S    
C93   O50   S    
C194  O77   S    
C165  H43   S    
C128  H124  S    
C95   O52   S    
C166  H44   S    
C19   Cl3   S    
C3    C55   S    
C27   C44   A    
C178  O62   S    
Cu4   O43   S    
C79   C143  S    
C116  H86   S    
C105  H56   S    
C186  C197  A    
C123  H111  S    
C75   C113  A    
C83   C124  A    
C8    C52   A    
C154  C207  S    
C1    O1    A    
C14   C55   A    
C1    O45   A    
C43   C69   S    
C223  O13   A    
C3    O15   A    
C162  H39   S    
C70   C87   A    
C119  H95   S    
C114  O52   S    
C141  C150  S    
C31   H85   S    
Cu10  O20   S    
Cu3   O38   S    
C168  C186  A    
C127  O65   S    
C42   H37   S    
Cu10  O22   S    
C102  O59   S    
C191  C200  A    
C34   H118  S    
C139  H30   S    
C4    O20   A    
C85   C141  A    
C178  C196  A    
C134  H16   S    
C71   C88   A    
C118  H92   S    
C37   C48   A    
C70   Cl9   S    
C177  C210  A    
C74   Cl14  S    
C40   H35   S    
C119  H98   S    
C126  H115  S    
C67   N9    A    
Cu1   O9    S    
C137  O75   S    
C130  H128  S    
C107  H64   S    
N13   N16   A    
Cu9   Cu11  S    
C17   C56   A    
C100  O58   S    
Cu9   O24   S    
C145  C154  T    
C122  H108  S    
C64   N3    A    
C120  H101  S    
C120  H99   S    
C20   C58   A    
C35   C100  A    
C112  O12   A    
C37   H13   S    
C110  H73   S    
C66   N14   A    
Cu4   O40   S    
Cu5   O56   S    
C64   N16   A    
C6    C59   S    
C105  O44   S    
C129  H126  S    
C138  H27   S    
Cu8   O7    S    
C189  C202  A    
C30   H74   S    
C40   C51   A    
C118  H94   S    
C195  O79   S    
C80   Cl19  S    
C84   Cl24  S    
Cu1   O1    S    
C170  O5    A    
C24   C93   A    
C125  H113  S    
C130  H3    S    
C24   C216  S    
C71   C90   A    
C136  O74   S    
C116  H88   S    
C203  O6    A    
Cu12  O29   S    
C159  C199  S    
C105  H58   S    
C87   C214  A    
C126  O64   S    
C123  H109  S    
C220  O38   A    
N4    N14   A    
Cu9   O6    S    
C97   O54   S    
C6    O25   A    
C213  O33   A    
C121  O60   S    
C86   C135  A    
C128  H123  S    
C44   C67   S    
C10   Cl23  S    
C126  H117  S    
C136  H19   S    
C125  H112  S    
C90   C144  S    
C190  O74   S    
C20   C38   A    
C61   N6    A    
C17   Cl32  S    
C46   C218  S    
C106  O46   S    
C174  C209  A    
C82   C99   A    
C75   Cl15  S    
C186  O70   S    
C82   C142  A    
C172  C211  A    
C10   C52   A    
C38   C49   A    
C5    O21   A    
C171  C188  A    
C39   H34   S    
C222  O9    A    
C89   O47   S    
C68   C102  A    
C148  O23   A    
C62   N7    A    
C138  H25   S    
C80   C97   A    
C48   C64   S    
Cu12  O27   S    
C81   C98   A    
C133  H14   S    
C194  C202  A    
C173  C190  A    
C73   C113  A    
C107  H62   S    
C108  H66   S    
C163  H40   S    
C184  O68   S    
C182  O65   S    
C96   O53   S    
C7    O26   A    
C176  H54   S    
C146  C155  T    
C7    O24   A    
C27   H41   S    
Cu7   O34   S    
C92   C214  A    
C29   H63   S    
C118  O57   S    
C174  H51   S    
C114  H79   S    
C138  O76   S    
Cu7   O78   S    
C86   C104  A    
C108  O48   S    
C31   C47   A    
C162  C206  A    
C166  C208  A    
C183  O66   S    
C216  O29   A    
C41   H36   S    
C140  H31   S    
C57   C103  A    
C127  H119  S    
C77   C90   A    
Cu1   Cu6   S    
C223  O10   A    
C117  H90   S    
C131  H6    S    
C191  O75   S    
C155  C208  S    
C32   H96   S    
C171  C210  A    
C46   C104  A    
C103  O60   S    
Cu3   O39   S    
C220  O40   A    
C218  O42   A    
N3    N15   A    
C21   Cl5   S    
C38   H24   S    
C78   Cl18  S    
Cu5   O10   S    
C137  H21   S    
C147  C156  T    
C133  H12   S    
Cu6   O45   S    
C109  H69   S    
C69   N10   A    
C143  C152  T    
C61   N8    A    
C192  O7    A    
C121  H102  S    
Cu9   O2    S    
Cu4   O42   S    
C107  H65   S    
C9    C53   A    
C219  O41   A    
C7    C60   S    
C9    C27   A    
Cu6   O14   S    
C134  O73   S    
C10   C28   A    
C92   O49   S    
C150  C158  T    
C12   C30   A    
C134  H15   S    
C62   N5    A    
C20   Cl4   S    
C25   C42   A    
C139  O77   S    
C140  O79   S    
C8    Cl1   S    
C172  C189  A    
C28   C43   A    
C12   Cl28  S    
C72   Cl11  S    
Cu1   O67   S    
C70   C79   A    
C87   O44   S    
C57   C98   A    
C163  C207  A    
C18   C58   A    
C16   C55   A    
C115  H82   S    
C164  C182  A    
C2    C213  S    
Cu8   Cu10  S    
C99   O57   S    
C176  C194  A    
C161  C178  A    
C18   C36   A    
C216  O31   A    
C12   C54   A    
C36   C49   A    
C140  H33   S    
Cu8   O25   S    
C86   Cl26  S    
C203  C204  S    
C108  H68   S    
C49   C63   S    
C128  H122  S    
C51   C61   S    
C136  H18   S    
C170  C200  S    
C109  O49   S    
C132  H9    S    
Cu3   O37   S    
C193  C204  A    
C2    C95   A    
C123  O62   S    
N8    N10   A    
C139  H29   S    
C122  H105  S    
Cu8   O18   S    
C111  O51   S    
C188  C201  A    
C134  H17   S    
C111  H76   S    
Cu5   O12   S    
N2    N12   A    
C144  C153  T    
C137  H23   S    
Cu2   O31   S    
Cu11  O8    S    
C126  H116  S    
C18   Cl2   S    
C179  O63   S    
C156  C209  S    
C54   C224  S    
C119  H97   S    
C106  H59   S    
C188  O72   S    
C121  H104  S    
C179  C197  A    
C2    C88   A    
Cu11  O21   S    
C185  C198  A    
C78   C124  A    
C98   O55   S    
C11   C53   A    
C42   C51   A    
C81   C141  A    
C157  C210  S    
C109  H71   S    
C9    Cl12  S    
C131  O70   S    
C120  H100  S    
C63   N2    A    
C26   C43   A    
C160  C212  S    
C104  O61   S    
C167  H45   S    
C152  C205  S    
C1    C196  S    
C129  H125  S    
C73   C91   A    
C119  O58   S    
Cu5   Cu7   S    
C22   C40   A    
C57   C219  S    
C193  O76   S    
C88   O46   S    
C135  C149  S    
C77   C95   A    
C11   Cl27  S    
C167  C207  A    
C112  C197  S    
N7    N11   A    
C131  H7    S    
C16   C33   A    
C130  H4    S    
C21   C39   A    
C122  H106  S    
C184  C199  A    
Cu12  O30   S    
C105  H57   S    
C175  C212  A    
C120  O59   S    
C162  C179  A    
C192  O3    A    
C148  O67   A    
Cu7   O13   S    
C50   C62   S    
C168  C206  A    
C132  O71   S    
C165  C205  A    
C69   N1    A    
Cu3   Cu4   S    
C136  H20   S    
C24   C91   A    
C163  C180  A    
C169  H47   S    
C76   C101  A    
C65   N13   A    
C82   Cl21  S    
C13   C89   A    
C46   C97   A    
C214  C217  S    
C203  O4    A    
C142  C151  S    
C91   O48   S    
C52   C222  S    
C74   C79   A    
C151  C160  T    
C68   C99   A    
C218  O36   A    
Cu3   O36   S    
C72   C89   A    
C159  O34   A    
C148  C198  S    
C181  O2    A    
Cu12  O28   S    
C14   Cl29  S    
C171  H48   S    
C83   Cl22  S    
C115  H83   S    
C221  O43   A    
Cu9   O19   S    
C219  O37   A    
C110  H72   S    
C153  C206  S    
C117  O55   S    
C39   C50   A    
C168  H46   S    
C11   C29   A    
C45   C66   S    
C192  C202  S    
C169  C209  A    
C177  H55   S    
C149  C157  T    
C47   C65   S    
N5    N9    A    
C114  H80   S    
C15   Cl30  S    
