data_mof_unit_13628.cif
_audit_creation_date              2012-12-11T16:06:25-0500
_audit_creation_method            fapswitch 2.2
_symmetry_space_group_name_H-M    P1
_symmetry_Int_Tables_number       1
_space_group_crystal_system       triclinic
_cell_length_a                    7.238498
_cell_length_b                    14.636832
_cell_length_c                    15.697578
_cell_angle_alpha                 89.984246
_cell_angle_beta                  89.929067
_cell_angle_gamma                 89.884257
_cell_volume                      1663.13292537

loop_
_atom_site_label
_atom_site_type_symbol
_atom_type_description
_atom_site_fract_x
_atom_site_fract_y
_atom_site_fract_z
_atom_type_partial_charge
O1    O     O_R   0.388780 0.834790 0.412340 -0.539976
O2    O     O_R   0.111220 0.165210 0.912340 -0.540423
O3    O     O_R   0.888780 0.665210 0.587660 -0.542794
O4    O     O_R   0.611220 0.334790 0.087660 -0.538357
O5    O     O_R   0.059040 0.845930 0.587040 -0.533299
O6    O     O_R   0.440960 0.154070 0.087040 -0.541722
O7    O     O_R   0.559040 0.654070 0.412960 -0.535036
O8    O     O_R   0.940960 0.345930 0.912960 -0.530870
C1    C     C_R   0.228984 0.870432 0.613273 0.656803
C2    C     C_R   0.272655 0.132881 0.115700 0.702039
C3    C     C_R   0.728380 0.633280 0.383662 0.679149
C4    C     C_R   0.770857 0.370418 0.886734 0.665048
O9    O     O_R   0.059070 0.845930 0.412970 -0.497052
O10   O     O_R   0.440930 0.154070 0.912970 -0.547542
O11   O     O_R   0.559070 0.654070 0.587030 -0.549326
O12   O     O_R   0.940930 0.345930 0.087030 -0.526570
O13   O     O_R   0.888760 0.665210 0.412340 -0.524524
O14   O     O_R   0.611240 0.334790 0.912340 -0.529093
O15   O     O_R   0.388760 0.834790 0.587660 -0.530994
O16   O     O_R   0.111240 0.165210 0.087660 -0.532963
C5    C     C_R   0.227600 0.867797 0.384501 0.743551
C6    C     C_R   0.272696 0.134122 0.883415 0.687235
C7    C     C_R   0.727421 0.634146 0.616574 0.680797
C8    C     C_R   0.772092 0.367625 0.115313 0.727489
O17   O     O_3   0.222280 0.690700 0.500000 -0.379298
O18   O     O_3   0.277720 0.309300 0.000000 -0.352365
O19   O     O_3   0.722280 0.809300 0.500000 -0.348049
O20   O     O_3   0.777720 0.190700 0.000000 -0.384990
V1    V     V_3+5 0.947430 0.761000 0.500000 1.559393
V2    V     V_3+5 0.552570 0.239000 0.000000 1.478146
V3    V     V_3+5 0.447430 0.739000 0.500000 1.495902
V4    V     V_3+5 0.052570 0.261000 0.000000 1.513642
C9    C     C_3   0.907653 0.583705 0.748503 0.255810
C10   C     C_3   0.670977 0.397132 0.269159 0.257230
C11   C     C_3   0.142018 0.904873 0.229572 0.288545
C12   C     C_3   0.092272 0.083960 0.751525 0.256380
H1    H     H_    0.036272 0.581165 0.709594 0.102472
H2    H     H_    0.524542 0.380221 0.254734 0.128868
H3    H     H_    0.215892 0.842532 0.207700 0.099670
H4    H     H_    0.963734 0.081788 0.790495 0.102961
C13   C     C_3   0.922027 0.509152 0.818516 -0.338153
C14   C     C_3   0.673983 0.468293 0.343199 -0.385127
C15   C     C_3   0.154751 0.978227 0.158057 -0.370578
C16   C     C_3   0.077510 0.009333 0.681637 -0.336520
H5    H     H_    0.937052 0.539719 0.883030 0.203217
H6    H     H_    0.765302 0.444574 0.395747 0.184566
H7    H     H_    0.014365 0.999202 0.136764 0.196009
H8    H     H_    0.061998 0.039856 0.617101 0.204783
H9    H     H_    0.047170 0.469418 0.805408 0.171551
H10   H     H_    0.532475 0.474381 0.370455 0.137737
H11   H     H_    0.224612 0.948063 0.101411 0.115707
H12   H     H_    0.952471 0.969790 0.694967 0.170230
H13   H     H_    0.879725 0.461330 0.614656 0.157842
H14   H     H_    0.505008 0.498991 0.137387 0.159983
H15   H     H_    0.514200 0.896837 0.270994 0.203517
H16   H     H_    0.120571 0.961507 0.885359 0.155732
H17   H     H_    0.886789 0.355339 0.720972 0.204759
H18   H     H_    0.470853 0.589561 0.254737 0.176968
H19   H     H_    0.530316 0.998334 0.162008 0.175418
H20   H     H_    0.113833 0.855364 0.779176 0.203596
C17   C     C_3   0.752453 0.467645 0.654107 -0.407607
C18   C     C_3   0.643489 0.521668 0.159564 -0.402788
C19   C     C_3   0.442404 0.960820 0.290255 -0.340537
C20   C     C_3   0.247821 0.967619 0.845895 -0.412916
C21   C     C_3   0.559391 0.569889 0.745675 -0.318008
C22   C     C_3   0.957510 0.473098 0.211126 -0.346711
C23   C     C_3   0.144790 0.030216 0.340565 -0.343964
C24   C     C_3   0.440521 0.069579 0.754235 -0.318925
C25   C     C_3   0.736801 0.566118 0.689862 0.027876
C26   C     C_3   0.761811 0.437755 0.187244 0.019923
C27   C     C_3   0.237226 0.939071 0.313006 -0.030450
C28   C     C_3   0.263320 0.066089 0.810127 0.027990
H21   H     H_    0.438363 0.549703 0.706163 0.152394
H22   H     H_    0.030375 0.496513 0.152540 0.160714
H23   H     H_    0.207216 0.053072 0.401523 0.170247
H24   H     H_    0.561627 0.049111 0.793690 0.152790
H25   H     H_    0.531851 0.641053 0.767195 0.181552
H26   H     H_    0.042304 0.416124 0.236811 0.218993
H27   H     H_    0.996306 0.018553 0.355175 0.200095
H28   H     H_    0.468027 0.140711 0.732738 0.183776
C29   C     C_3   0.755007 0.443204 0.816278 -0.049555
C30   C     C_3   0.742151 0.563196 0.311299 -0.020532
C31   C     C_3   0.262543 0.063749 0.188463 -0.057246
C32   C     C_3   0.244761 0.943201 0.683726 -0.047180
C33   C     C_3   0.758285 0.396301 0.727295 -0.287400
C34   C     C_3   0.618004 0.590176 0.234506 -0.298885
C35   C     C_3   0.457328 0.030672 0.216743 -0.308383
C36   C     C_3   0.242058 0.896283 0.772726 -0.291083
C37   C     C_3   0.578671 0.506333 0.824600 -0.114507
C38   C     C_3   0.946855 0.550214 0.278751 -0.122331
C39   C     C_3   0.160519 0.104004 0.268459 -0.111847
C40   C     C_3   0.420959 0.006154 0.675281 -0.114878
H29   H     H_    0.600124 0.551114 0.881224 0.133818
H30   H     H_    0.032467 0.528095 0.334091 0.115141
H31   H     H_    0.016804 0.121938 0.249277 0.161590
H32   H     H_    0.399048 0.051052 0.618722 0.143445
H33   H     H_    0.633083 0.452793 0.611719 0.174844
H34   H     H_    0.710832 0.556638 0.104842 0.196444
H35   H     H_    0.515267 0.988201 0.347189 0.205755
H36   H     H_    0.367225 0.952562 0.888276 0.172172
H37   H     H_    0.642468 0.347383 0.720523 0.207996
H38   H     H_    0.647872 0.660920 0.212993 0.201805
H39   H     H_    0.543149 0.089528 0.237568 0.200947
H40   H     H_    0.358235 0.847319 0.779401 0.206299
C41   C     C_2   0.400630 0.455764 0.839354 0.754625
O21   O     O_2   0.310721 0.471350 0.903762 -0.560137
O22   O     O_R   0.344652 0.387801 0.782391 -0.660867
H41   H     H_    0.239836 0.349269 0.805428 0.319152
C42   C     C_2   0.033002 0.636566 0.242900 0.782894
O23   O     O_2   0.156959 0.674673 0.281876 -0.574134
O24   O     O_R   0.978306 0.669451 0.163107 -0.652683
H42   H     H_    0.056433 0.722284 0.142437 0.314927
C43   C     C_2   0.249958 0.191746 0.299489 0.812361
O25   O     O_2   0.220928 0.263006 0.261137 -0.566735
O26   O     O_R   0.366950 0.191851 0.370367 -0.643418
H43   H     H_    0.413435 0.255210 0.384986 0.329607
C44   C     C_2   0.599255 0.955503 0.660320 0.757374
O27   O     O_2   0.689091 0.971324 0.595970 -0.553644
O28   O     O_R   0.655791 0.887354 0.717117 -0.662024
H44   H     H_    0.761275 0.849079 0.694080 0.318111
Cl1   Cl    Cl    0.900332 0.694798 0.796453 -0.729020
Cl2   Cl    Cl    0.778230 0.292276 0.301962 -0.690060
Cl3   Cl    Cl    0.904348 0.873652 0.244639 -0.716741
Cl4   Cl    Cl    0.099685 0.194951 0.703353 -0.717583

loop_
_geom_bond_atom_site_label_1
_geom_bond_atom_site_label_2
_ccdc_geom_bond_type
C24   H28   S    
C31   C35   S    
O1    C5    A    
O19   V1    S    
C15   C31   S    
C7    C25   S    
O3    C7    A    
O24   H42   S    
C14   C30   S    
C40   H32   S    
O4    V2    S    
O15   V3    S    
H20   C36   S    
C8    C26   S    
C22   C38   S    
C21   C37   S    
C18   C34   S    
C5    C27   S    
O9    V1    S    
C12   Cl4   S    
C42   O24   S    
C11   H3    S    
O4    C8    A    
O26   H43   S    
C22   H22   S    
C2    C31   S    
O1    V3    S    
O13   V1    S    
C18   C26   S    
O2    V4    S    
C14   H6    S    
C13   H9    S    
O3    V1    S    
C19   H35   S    
C18   H34   S    
H13   C17   S    
C1    O15   A    
C2    O16   A    
C10   C14   S    
H15   C19   S    
O2    C6    A    
O22   H41   S    
H16   C20   S    
O14   V2    S    
C11   C15   S    
C10   C26   S    
C9    C25   S    
C29   C37   S    
C16   H12   S    
O11   C7    A    
C11   C27   S    
O12   C8    A    
C9    Cl1   S    
O10   V2    S    
H18   C34   S    
C6    C28   S    
C36   H40   S    
C38   H30   S    
O5    V1    S    
C3    C30   S    
C22   H26   S    
C21   H25   S    
O8    V4    S    
C12   H4    S    
O7    V3    S    
C21   H21   S    
O18   V4    S    
H14   C18   S    
C30   C34   S    
C9    H1    S    
C39   C43   S    
C24   C28   S    
O7    C3    A    
C40   C44   S    
O5    C1    A    
C41   O22   S    
O8    C4    A    
C13   C29   S    
C23   C39   S    
O9    C5    A    
C24   H24   S    
C17   C33   S    
C14   H10   S    
C35   H39   S    
O6    V2    S    
C19   C27   S    
C12   C16   S    
C23   H23   S    
C4    O14   A    
C34   H38   S    
C33   H37   S    
C43   O25   D    
O16   V4    S    
C17   C25   S    
C3    O13   A    
C19   C35   S    
C10   H2    S    
O17   V3    S    
C17   H33   S    
C32   C36   S    
C16   C32   S    
O6    C2    A    
O28   H44   S    
O11   V3    S    
O12   V4    S    
C31   C39   S    
C41   O21   D    
C30   C38   S    
C9    C13   S    
O10   C6    A    
C44   O28   S    
O20   V2    S    
C42   O23   D    
C15   H11   S    
C22   C26   S    
C21   C25   S    
C11   Cl3   S    
C24   C40   S    
H17   C33   S    
C4    C29   S    
C23   C27   S    
C20   C28   S    
C37   H29   S    
H19   C35   S    
C1    C32   S    
C39   H31   S    
C16   H8    S    
C20   H36   S    
C10   Cl2   S    
C37   C41   S    
C13   H5    S    
C32   C40   S    
C38   C42   S    
C44   O27   D    
C15   H7    S    
C20   C36   S    
C23   H27   S    
C29   C33   S    
C12   C28   S    
C43   O26   S    
