data_mof_unit_8546.cif
_audit_creation_date              2012-12-10T16:56:32-0500
_audit_creation_method            fapswitch 2.2
_symmetry_space_group_name_H-M    P1
_symmetry_Int_Tables_number       1
_space_group_crystal_system       triclinic
_cell_length_a                    7.866681
_cell_length_b                    8.60894
_cell_length_c                    15.714382
_cell_angle_alpha                 92.286148
_cell_angle_beta                  84.703522
_cell_angle_gamma                 93.500226
_cell_volume                      1057.08832245

loop_
_atom_site_label
_atom_site_type_symbol
_atom_type_description
_atom_site_fract_x
_atom_site_fract_y
_atom_site_fract_z
_atom_type_partial_charge
C1    C     C_R   0.544858 0.793906 0.497996 0.883822
C2    C     C_3   0.379229 0.397681 0.031434 0.629491
C3    C     C_1   0.500995 0.499535 0.750553 -0.111121
C4    C     C_1   0.499005 0.500465 0.249447 -0.111121
C5    C     C_3   0.348276 0.538630 0.979393 0.652086
C6    C     C_3   0.651724 0.461370 0.020607 0.652086
C7    C     C_3   0.500928 0.497986 0.916588 -0.278596
C8    C     C_3   0.499072 0.502014 0.083412 -0.278596
C9    C     C_1   0.501167 0.498726 0.825806 0.190884
C10   C     C_1   0.498833 0.501274 0.174194 0.190884
C11   C     C_3   0.005615 0.309019 0.444661 -0.309222
C12   C     C_R   0.455142 0.206094 0.502004 0.883822
C13   C     C_3   0.994385 0.690981 0.555339 -0.309222
C14   C     C_R   0.500406 0.500331 0.661729 0.869594
C15   C     C_R   0.499594 0.499669 0.338271 0.869594
C16   C     C_2   0.568314 0.956662 0.500610 0.280957
C17   C     C_2   0.431686 0.043338 0.499390 0.280957
C18   C     C_3   0.467625 0.645228 0.032272 -0.462468
C19   C     C_3   0.532375 0.354772 0.967728 -0.462468
C20   C     C_3   0.620771 0.602319 0.968566 0.629491
F1    F     F_    0.747260 0.706032 0.934070 -0.560503
F2    F     F_    0.252740 0.293968 0.065930 -0.560503
F3    F     F_    0.809192 0.424008 0.043798 -0.534388
F4    F     F_    0.190808 0.575992 0.956202 -0.534388
F5    F     F_    0.730992 0.017057 0.507758 -0.670243
F6    F     F_    0.269008 0.982943 0.492242 -0.670243
H1    H     H_    0.441328 0.763181 0.059568 0.243342
H2    H     H_    0.558671 0.236819 0.940431 0.243342
H3    H     H_    0.907466 0.254433 0.404905 0.203696
H4    H     H_    0.124486 0.321466 0.401867 0.195003
H5    H     H_    0.016368 0.231041 0.498216 0.247826
H6    H     H_    0.092534 0.745567 0.595094 0.203697
H7    H     H_    0.983632 0.768959 0.501784 0.247827
H8    H     H_    0.875514 0.678534 0.598133 0.195003
N1    N     N_2   0.950320 0.457950 0.477300 -0.050059
N2    N     N_2   0.049680 0.542050 0.522700 -0.050059
O1    O     O_R   0.389250 0.738570 0.505570 -0.585169
O2    O     O_R   0.610750 0.261430 0.494430 -0.585169
O3    O     O_R   0.678390 0.711630 0.491020 -0.617812
O4    O     O_R   0.321610 0.288370 0.508980 -0.617812
O5    O     O_R   0.355460 0.513480 0.630490 -0.599838
O6    O     O_R   0.644540 0.486520 0.369510 -0.599838
O7    O     O_R   0.644600 0.486540 0.615950 -0.621335
O8    O     O_R   0.355400 0.513460 0.384050 -0.621335
Zn1   Zn    Zn3+2 0.306940 0.517990 0.509710 1.004053
Zn2   Zn    Zn3+2 0.693060 0.482010 0.490290 1.004053

loop_
_geom_bond_atom_site_label_1
_geom_bond_atom_site_label_2
_ccdc_geom_bond_type
C12   C17   S    
C12   O4    A    
C13   H7    S    
C3    C9    T    
C6    C20   S    
C13   H6    S    
C18   C20   S    
N1    N2    D    
C1    O1    A    
C4    C15   S    
C11   N1    S    
C11   H5    S    
C13   H8    S    
C1    C16   S    
C2    F2    S    
C20   F1    S    
C19   H2    S    
C3    C14   S    
C5    F4    S    
C11   H4    S    
C14   O5    A    
C17   F6    S    
C6    C19   S    
C15   O8    A    
C7    C19   S    
O3    Zn2   S    
C12   O2    A    
O4    Zn1   S    
O7    Zn2   S    
C2    C8    S    
O2    Zn2   S    
C2    C5    S    
C1    O3    A    
O1    Zn1   S    
C7    C9    S    
N2    Zn1   S    
O8    Zn1   S    
C11   H3    S    
C13   N2    S    
C8    C10   S    
C7    C20   S    
O6    Zn2   S    
C16   F5    S    
C5    C7    S    
O5    Zn1   S    
C14   O7    A    
C6    C8    S    
C5    C18   S    
C2    C19   S    
C6    F3    S    
N1    Zn2   S    
C4    C10   T    
C8    C18   S    
C18   H1    S    
C15   O6    A    
C16   C17   D    
