data_mof_unit_37443.cif
_audit_creation_date              2012-12-10T21:26:01-0500
_audit_creation_method            fapswitch 2.2
_symmetry_space_group_name_H-M    P1
_symmetry_Int_Tables_number       1
_space_group_crystal_system       triclinic
_cell_length_a                    8.592592
_cell_length_b                    16.118588
_cell_length_c                    16.793786
_cell_angle_alpha                 87.46122
_cell_angle_beta                  91.250567
_cell_angle_gamma                 101.168058
_cell_volume                      2279.45319751

loop_
_atom_site_label
_atom_site_type_symbol
_atom_type_description
_atom_site_fract_x
_atom_site_fract_y
_atom_site_fract_z
_atom_type_partial_charge
C1    C     C_R   0.502523 0.488834 0.653212 0.960016
C2    C     C_R   0.510292 0.512254 0.346953 0.945295
C3    C     C_R   0.419701 0.756565 0.463083 -0.144380
C4    C     C_R   0.572600 0.243252 0.541500 -0.120780
C5    C     C_R   0.424104 0.844067 0.465863 -0.292392
C6    C     C_R   0.569308 0.155793 0.539864 -0.262217
C7    C     C_R   0.531682 0.893337 0.518035 0.292686
C8    C     C_R   0.467831 0.106376 0.485489 0.287112
C9    C     C_R   0.630878 0.851977 0.565884 -0.422406
C10   C     C_R   0.373788 0.147368 0.434249 -0.432883
C11   C     C_R   0.625631 0.764327 0.560218 0.595531
C12   C     C_R   0.384025 0.236209 0.435218 0.631904
C13   C     C_R   0.800892 0.522168 0.498889 0.910080
C14   C     C_R   0.199034 0.478090 0.498515 0.973765
C15   C     C_2   0.966885 0.534255 0.496868 -0.404787
C16   C     C_2   0.033085 0.466262 0.497792 -0.387381
C17   C     C_R   0.517233 0.481600 0.739761 -0.336721
C18   C     C_R   0.550261 0.523496 0.262276 -0.365902
C19   C     C_R   0.445528 0.533271 0.786926 0.387374
C20   C     C_R   0.615281 0.460865 0.225590 0.383464
C21   C     C_R   0.451944 0.522185 0.869368 -0.376167
C22   C     C_R   0.637957 0.466672 0.144082 -0.346834
C23   C     C_R   0.541366 0.466557 0.905377 0.086786
C24   C     C_R   0.602829 0.535831 0.098739 0.082601
C25   C     C_R   0.618315 0.417089 0.859172 0.393219
C26   C     C_R   0.563077 0.604715 0.136178 0.387049
C27   C     C_R   0.607366 0.424768 0.775981 0.312787
C28   C     C_R   0.533886 0.598329 0.218191 0.310655
H1    H     H_    0.034223 0.598820 0.495307 0.183385
H2    H     H_    0.965815 0.401728 0.499518 0.184343
H3    H     H_    0.676831 0.415210 0.115872 0.200793
H4    H     H_    0.389411 0.558282 0.906036 0.203509
H5    H     H_    0.648982 0.280703 0.583941 0.193433
H6    H     H_    0.336359 0.719033 0.423385 0.176797
H7    H     H_    0.644351 0.127491 0.581164 0.173684
H8    H     H_    0.343643 0.872339 0.427799 0.163486
H9    H     H_    0.710554 0.887666 0.608414 0.159317
H10   H     H_    0.292055 0.109366 0.394256 0.147157
N1    N     N_2   0.560079 0.463028 0.988584 -0.126096
N2    N     N_2   0.593158 0.535384 0.015080 -0.141773
N3    N     N_R   0.519180 0.718290 0.509780 -0.127098
N4    N     N_R   0.480820 0.281710 0.490220 -0.126638
N5    N     N_2   0.544356 0.983021 0.525097 -0.168979
N6    N     N_2   0.454900 0.016570 0.479583 -0.172183
O1    O     O_R   0.493140 0.422050 0.612640 -0.599917
O2    O     O_R   0.506860 0.577950 0.387360 -0.615836
O3    O     O_R   0.505450 0.562230 0.618920 -0.546121
O4    O     O_R   0.494550 0.437770 0.381080 -0.539258
O5    O     O_R   0.723530 0.446300 0.497600 -0.630252
O6    O     O_R   0.276470 0.553700 0.502400 -0.620144
O7    O     O_R   0.735850 0.586490 0.503880 -0.620246
O8    O     O_R   0.264150 0.413510 0.496120 -0.592614
Zn1   Zn    Zn3+2 0.491780 0.406400 0.495810 0.999493
Zn2   Zn    Zn3+2 0.508220 0.593600 0.504190 0.971154
O9    O     O_3   0.642895 0.389309 0.267486 -0.586426
C29   C     C_3   0.803202 0.403130 0.292623 0.120344
H11   H     H_    0.833804 0.460582 0.328731 0.134328
H12   H     H_    0.883190 0.410155 0.240425 0.130955
C30   C     C_3   0.830562 0.327282 0.344340 -0.809245
H13   H     H_    0.806573 0.269270 0.309234 0.241444
H14   H     H_    0.955167 0.337921 0.366492 0.229988
H15   H     H_    0.750566 0.318043 0.396226 0.267786
O10   O     O_3   0.363437 0.591922 0.752218 -0.587832
C31   C     C_3   0.445053 0.674234 0.769813 0.145606
H16   H     H_    0.572469 0.683761 0.753326 0.180013
H17   H     H_    0.436352 0.686107 0.834055 0.126878
C32   C     C_3   0.370676 0.739737 0.723198 -0.794759
H18   H     H_    0.250246 0.739045 0.745961 0.236797
H19   H     H_    0.444028 0.803758 0.730528 0.208795
H20   H     H_    0.363005 0.725820 0.659038 0.267042
O11   O     O_3   0.696363 0.357356 0.894981 -0.563014
C33   C     C_3   0.848596 0.397080 0.922032 0.116033
H21   H     H_    0.849264 0.458582 0.949967 0.130714
H22   H     H_    0.932536 0.408253 0.871733 0.151568
C34   C     C_3   0.909585 0.338864 0.983842 -0.801400
H23   H     H_    0.916732 0.277885 0.957196 0.262983
H24   H     H_    0.029663 0.369067 0.005099 0.208925
H25   H     H_    0.828544 0.326370 0.035445 0.249529
O12   O     O_3   0.529395 0.673442 0.091302 -0.574797
C35   C     C_3   0.671393 0.724241 0.061537 0.120027
H26   H     H_    0.778044 0.694096 0.066867 0.111480
H27   H     H_    0.698067 0.783332 0.094961 0.147122
C36   C     C_3   0.648038 0.748325 0.974108 -0.843687
H28   H     H_    0.541594 0.777631 0.966275 0.260147
H29   H     H_    0.753592 0.794264 0.952498 0.208951
H30   H     H_    0.633176 0.691219 0.938103 0.245322
O13   O     O_3   0.689576 0.378020 0.731046 -0.565074
C37   C     C_3   0.835133 0.429701 0.707312 0.112745
H31   H     H_    0.888305 0.475643 0.752819 0.101840
H32   H     H_    0.816589 0.466413 0.651933 0.143675
C38   C     C_3   0.954559 0.374221 0.691199 -0.774761
H33   H     H_    0.910919 0.331432 0.642165 0.237457
H34   H     H_    0.069712 0.414562 0.673785 0.213157
H35   H     H_    0.973382 0.335553 0.745641 0.257125
O14   O     O_3   0.472896 0.661400 0.252744 -0.565919
C39   C     C_3   0.597026 0.730435 0.269372 0.169610
H36   H     H_    0.705039 0.734369 0.232626 0.079839
H37   H     H_    0.634180 0.725387 0.332854 0.157971
C40   C     C_3   0.536364 0.812619 0.255590 -0.825291
H38   H     H_    0.429489 0.811376 0.291867 0.251735
H39   H     H_    0.629670 0.866963 0.272726 0.200672
H40   H     H_    0.504586 0.821107 0.191724 0.265690
O15   O     O_3   0.714431 0.722513 0.611734 -0.600885
C41   C     C_3   0.876670 0.747789 0.593758 0.086679
H41   H     H_    0.921867 0.814786 0.608718 0.130668
H42   H     H_    0.898297 0.740034 0.529523 0.139839
C42   C     C_3   0.969578 0.692488 0.643380 -0.800002
H43   H     H_    0.915559 0.624655 0.638053 0.253342
H44   H     H_    0.093054 0.703155 0.621830 0.217621
H45   H     H_    0.969325 0.708148 0.707090 0.235894
O16   O     O_3   0.289978 0.277880 0.385404 -0.591586
C43   C     C_3   0.296636 0.254400 0.305407 0.111009
H46   H     H_    0.221480 0.191110 0.296562 0.118669
H47   H     H_    0.420707 0.253756 0.287804 0.183762
C44   C     C_3   0.231903 0.317041 0.249571 -0.770341
H48   H     H_    0.285273 0.383002 0.263743 0.268331
H49   H     H_    0.259407 0.306547 0.186925 0.211832
H50   H     H_    0.101394 0.307872 0.255064 0.226213

loop_
_geom_bond_atom_site_label_1
_geom_bond_atom_site_label_2
_ccdc_geom_bond_type
O9    C29   S    
C5    H8    S    
C2    C18   S    
O14   C39   S    
O16   C43   S    
N5    N6    D    
C43   H47   S    
C6    H7    S    
O6    Zn2   S    
C28   O14   S    
C19   C21   A    
C24   C26   A    
C20   O9    S    
N4    Zn1   S    
C23   N1    S    
C16   H2    S    
C15   C16   D    
C39   C40   S    
C29   H11   S    
C41   H41   S    
C12   N4    A    
C17   C19   A    
C13   O7    A    
C14   O8    A    
C36   H28   S    
C19   O10   S    
C44   H49   S    
C39   H37   S    
C42   H43   S    
C25   O11   S    
C14   C16   S    
C7    N5    S    
C33   H21   S    
C23   C25   A    
O1    Zn1   S    
C30   H13   S    
C42   H44   S    
C33   C34   S    
C41   H42   S    
C43   H46   S    
C15   H1    S    
O4    Zn1   S    
C21   H4    S    
C30   H14   S    
C22   H3    S    
C32   H18   S    
C17   C27   A    
C31   C32   S    
C18   C28   A    
C35   H27   S    
C38   H33   S    
C5    C7    A    
C1    O3    A    
C6    C8    A    
C3    H6    S    
C2    O4    A    
C2    O2    A    
O12   C35   S    
C32   H19   S    
C31   H17   S    
C34   H23   S    
C38   H34   S    
C9    C11   A    
C40   H38   S    
C37   C38   S    
C44   H50   S    
C39   H36   S    
O2    Zn2   S    
C9    H9    S    
C36   H30   S    
C41   C42   S    
C27   O13   S    
C34   H24   S    
C10   C12   A    
O3    Zn2   S    
C13   O5    A    
C33   H22   S    
C36   H29   S    
C37   H32   S    
C13   C15   S    
C42   H45   S    
C22   C24   A    
C4    C6    A    
N1    N2    D    
O8    Zn1   S    
C35   C36   S    
C7    C9    A    
C4    H5    S    
C3    N3    A    
C30   H15   S    
C40   H39   S    
C26   C28   A    
C8    N6    S    
C20   C22   A    
C35   H26   S    
C3    C5    A    
C25   C27   A    
C1    C17   S    
C26   O12   S    
C29   C30   S    
C10   H10   S    
O7    Zn2   S    
C31   H16   S    
C32   H20   S    
C21   C23   A    
O11   C33   S    
C38   H35   S    
C1    O1    A    
C14   O6    A    
C4    N4    A    
O5    Zn1   S    
C24   N2    S    
C29   H12   S    
C11   N3    A    
C18   C20   A    
C43   C44   S    
C34   H25   S    
N3    Zn2   S    
O10   C31   S    
C40   H40   S    
C37   H31   S    
O13   C37   S    
C8    C10   A    
O15   C41   S    
C11   O15   S    
C12   O16   S    
C44   H48   S    
