data_mof_unit_24415.cif
_audit_creation_date              2012-10-26T21:20:07-0400
_audit_creation_method            fapswitch 2.2
_symmetry_space_group_name_H-M    P1
_symmetry_Int_Tables_number       1
_space_group_crystal_system       triclinic
_cell_length_a                    12.983834
_cell_length_b                    10.827347
_cell_length_c                    9.522482
_cell_angle_alpha                 90.190103
_cell_angle_beta                  96.535208
_cell_angle_gamma                 90.275969
_cell_volume                      1329.95098638

loop_
_atom_site_label
_atom_site_type_symbol
_atom_type_description
_atom_site_fract_x
_atom_site_fract_y
_atom_site_fract_z
_atom_type_partial_charge
C1    C     C_R   0.499913 0.262092 0.499813 0.547887
C2    C     C_R   0.699537 0.499815 0.526730 0.548641
C3    C     C_R   0.812327 0.496459 0.542487 -0.026571
C4    C     C_R   0.187673 0.503542 0.457513 -0.026570
C5    C     C_R   0.025341 0.557880 0.321876 0.095813
C6    C     C_R   0.974658 0.442124 0.678125 0.095813
C7    C     C_R   0.132649 0.546809 0.332774 -0.082677
C8    C     C_R   0.867351 0.453194 0.667226 -0.082662
C9    C     C_R   0.135336 0.468224 0.571270 -0.114913
C10   C     C_R   0.864664 0.531778 0.428730 -0.114913
C11   C     C_R   0.027853 0.477128 0.563060 0.034417
C12   C     C_R   0.500081 0.737908 0.500185 0.547879
C13   C     C_R   0.972147 0.522875 0.436940 0.034412
C14   C     C_R   0.514534 0.063555 0.376090 -0.135726
C15   C     C_R   0.485437 0.936446 0.623897 -0.135750
C16   C     C_R   0.514529 0.935782 0.376205 -0.135532
C17   C     C_R   0.485446 0.064218 0.623784 -0.135535
C18   C     C_3   0.353478 0.232811 0.072457 -0.116783
C19   C     C_3   0.646395 0.767231 0.927429 -0.116699
C20   C     C_R   0.500070 0.871759 0.500181 0.025479
C21   C     C_R   0.499911 0.128241 0.499811 0.025483
C22   C     C_R   0.433280 0.424392 0.064595 0.388330
C23   C     C_R   0.566722 0.575602 0.935409 0.388319
C24   C     C_R   0.432759 0.426723 0.914364 -0.025124
C25   C     C_R   0.567241 0.573275 0.085636 -0.025097
C26   C     C_R   0.300463 0.500186 0.473270 0.548640
Cu1   Cu    Cu3+1 0.500000 0.500020 0.640660 1.008487
Cu2   Cu    Cu3+1 0.500000 0.499980 0.359340 1.008507
H1    H     H_    0.820465 0.565704 0.333781 0.162021
H2    H     H_    0.621696 0.629268 0.152852 0.120486
H3    H     H_    0.429082 0.194318 0.048700 0.076476
H4    H     H_    0.295958 0.231076 0.976771 0.135079
H5    H     H_    0.323590 0.171258 0.151639 0.158940
H6    H     H_    0.703836 0.769107 0.023191 0.134958
H7    H     H_    0.570731 0.805665 0.951020 0.076498
H8    H     H_    0.676305 0.828750 0.848232 0.158937
H9    H     H_    0.179535 0.434298 0.666220 0.162010
H10   H     H_    0.826711 0.424761 0.755068 0.174269
H11   H     H_    0.173289 0.575242 0.244931 0.174257
H12   H     H_    0.526710 0.111422 0.279646 0.129973
H13   H     H_    0.473250 0.888579 0.720335 0.129922
H14   H     H_    0.526418 0.887407 0.279616 0.122810
H15   H     H_    0.473556 0.112593 0.720373 0.122810
H16   H     H_    0.378307 0.370731 0.847142 0.120455
I1    I     I_    0.951401 0.632353 0.129716 -0.369009
I2    I     I_    0.048598 0.367656 0.870287 -0.369128
N1    N     N_R   0.500030 0.500030 0.852080 -0.245696
N2    N     N_R   0.499970 0.499970 0.147920 -0.245697
O1    O     O_R   0.499990 0.319660 0.618740 -0.524657
O2    O     O_3   0.636770 0.646676 0.870270 -0.514097
O3    O     O_R   0.500010 0.680340 0.381260 -0.524657
O4    O     O_R   0.499990 0.319630 0.381170 -0.469677
O5    O     O_R   0.500010 0.680370 0.618830 -0.469714
O6    O     O_R   0.349000 0.499990 0.599490 -0.520293
O7    O     O_R   0.651000 0.500010 0.400510 -0.520289
O8    O     O_R   0.348990 0.499960 0.361920 -0.448219
O9    O     O_R   0.651010 0.500040 0.638080 -0.448218
O10   O     O_3   0.363243 0.353313 0.129756 -0.514099

loop_
_geom_bond_atom_site_label_1
_geom_bond_atom_site_label_2
_ccdc_geom_bond_type
C22   O10   S    
C4    C26   S    
Cu1   O5    S    
C1    C21   S    
Cu2   O4    S    
C5    C13   A    
C12   O5    A    
C10   H1    S    
C16   C20   A    
C12   C20   S    
C23   N1    A    
C9    H9    S    
C2    C3    S    
Cu2   O8    S    
Cu1   O6    S    
C3    C10   A    
C19   H7    S    
C9    C11   A    
C19   O2    S    
C8    H10   S    
C4    C7    A    
C6    C11   A    
C26   O6    A    
C14   C21   A    
C1    O4    A    
Cu2   O7    S    
C22   N2    A    
C22   C24   A    
C19   H8    S    
C23   C25   A    
C15   C20   A    
C24   H16   S    
Cu2   O3    S    
C14   C16   A    
C2    O9    A    
C2    O7    A    
C18   H5    S    
C14   H12   S    
C25   N2    A    
C16   H14   S    
C11   C13   A    
C12   O3    A    
C18   H4    S    
C15   H13   S    
C17   H15   S    
C15   C17   A    
C3    C8    A    
Cu1   O9    S    
Cu1   N1    S    
C25   H2    S    
C5    C7    A    
C7    H11   S    
Cu2   N2    S    
C23   O2    S    
C6    C8    A    
C18   H3    S    
C6    I2    S    
C19   H6    S    
C4    C9    A    
C24   N1    A    
C5    I1    S    
C18   O10   S    
C17   C21   A    
Cu1   O1    S    
C26   O8    A    
Cu1   Cu2   S    
C10   C13   A    
C1    O1    A    
