data_mof_unit_44324.cif
_audit_creation_date              2012-12-11T14:14:24-0500
_audit_creation_method            fapswitch 2.2
_symmetry_space_group_name_H-M    P1
_symmetry_Int_Tables_number       1
_space_group_crystal_system       triclinic
_cell_length_a                    17.08948
_cell_length_b                    7.23985
_cell_length_c                    16.981986
_cell_angle_alpha                 88.925905
_cell_angle_beta                  99.48541
_cell_angle_gamma                 91.195112
_cell_volume                      2071.67325738

loop_
_atom_site_label
_atom_site_type_symbol
_atom_type_description
_atom_site_fract_x
_atom_site_fract_y
_atom_site_fract_z
_atom_type_partial_charge
O1    O     O_R   0.414560 0.494370 0.416770 -0.538382
O2    O     O_R   0.585440 0.994370 0.583230 -0.539407
O3    O     O_R   0.578370 0.819590 0.429320 -0.552603
O4    O     O_R   0.421630 0.319590 0.570680 -0.533234
C1    C     C_R   0.604300 0.658431 0.413449 0.760269
C2    C     C_R   0.395876 0.152813 0.586659 0.768362
O5    O     O_R   0.414740 0.823790 0.407360 -0.538480
O6    O     O_R   0.585260 0.323790 0.592640 -0.534969
O7    O     O_R   0.420650 0.998510 0.561120 -0.545564
O8    O     O_R   0.579350 0.498510 0.438880 -0.509971
C3    C     C_R   0.388174 0.655957 0.384818 0.755713
C4    C     C_R   0.611861 0.156123 0.615049 0.783892
O9    O     O_3   0.502130 0.662240 0.550470 -0.390461
O10   O     O_3   0.497870 0.162240 0.449530 -0.377861
V1    V     V_3+5 0.499600 0.935390 0.490640 1.435831
V2    V     V_3+5 0.500400 0.435390 0.509360 1.474654
C5    C     C_2   0.801412 0.272677 0.772622 0.322594
C6    C     C_2   0.199718 0.771358 0.226516 0.302416
C7    C     C_2   0.824618 0.115050 0.813685 -0.371441
C8    C     C_2   0.175616 0.614841 0.186074 -0.381497
H1    H     H_    0.798746 0.982873 0.793798 0.138188
H2    H     H_    0.200832 0.483027 0.206294 0.139693
C9    C     C_2   0.731293 0.281697 0.704554 0.264070
C10   C     C_2   0.269865 0.780353 0.294498 0.276225
C11   C     C_2   0.672980 0.147295 0.688323 0.057719
C12   C     C_2   0.327159 0.648005 0.311457 0.048702
C13   C     C_R   0.333034 0.132810 0.637434 -0.172800
C14   C     C_R   0.666220 0.664146 0.361405 -0.171958
C15   C     C_R   0.164005 0.135327 0.859947 -0.269400
C16   C     C_R   0.835235 0.603957 0.140426 -0.262372
C17   C     C_R   0.280971 0.299552 0.828258 -0.205053
C18   C     C_R   0.718633 0.450517 0.179397 -0.206981
C19   C     C_R   0.227030 0.263862 0.880273 0.433363
C20   C     C_R   0.775149 0.465319 0.128386 0.408562
C21   C     C_R   0.159032 0.034041 0.788184 0.327583
C22   C     C_R   0.839446 0.723192 0.206801 0.286305
C23   C     C_R   0.217705 0.062146 0.738155 0.014467
C24   C     C_R   0.780971 0.708273 0.257882 0.010975
C25   C     C_R   0.276709 0.203189 0.756749 -0.140961
C26   C     C_R   0.720846 0.568148 0.244314 -0.133912
C27   C     C_R   0.331331 0.245169 0.704013 0.430690
C28   C     C_R   0.663007 0.547871 0.295372 0.439649
C29   C     C_R   0.276307 0.990407 0.620753 -0.386718
C30   C     C_R   0.724934 0.803248 0.373938 -0.344575
C31   C     C_R   0.218047 0.955409 0.669016 0.425893
C32   C     C_R   0.781936 0.827613 0.323394 0.438178
H3    H     H_    0.277261 0.905209 0.569116 0.156606
H4    H     H_    0.726159 0.895084 0.423840 0.148162
H5    H     H_    0.327104 0.402915 0.845191 0.180885
H6    H     H_    0.672066 0.346378 0.167138 0.174577
O11   O     O_R   0.920750 0.773600 0.061260 -0.549049
O12   O     O_R   0.079250 0.273600 0.938740 -0.506028
O13   O     O_R   0.085340 0.439850 0.092570 -0.545020
O14   O     O_R   0.914660 0.939850 0.907430 -0.554229
C33   C     C_R   0.110750 0.608581 0.116059 0.786453
C34   C     C_R   0.889354 0.108630 0.883905 0.762582
O15   O     O_R   0.921720 0.444130 0.070790 -0.526663
O16   O     O_R   0.078280 0.944130 0.929210 -0.540121
O17   O     O_R   0.914480 0.269530 0.916840 -0.492811
O18   O     O_R   0.085520 0.769530 0.083160 -0.504795
C35   C     C_R   0.896412 0.609424 0.086818 0.720157
C36   C     C_R   0.103037 0.115221 0.913035 0.716126
O19   O     O_3   0.997840 0.601520 0.949550 -0.361941
O20   O     O_3   0.002160 0.101520 0.050450 -0.380015
V3    V     V_3+5 0.000400 0.328340 0.009360 1.563954
V4    V     V_3+5 0.999600 0.828340 0.990640 1.518550
O21   O     O_3   0.848242 0.429355 0.790690 -0.621086
H7    H     H_    0.848703 0.503504 0.741261 0.319333
O22   O     O_3   0.153824 0.926354 0.207869 -0.628821
H8    H     H_    0.154060 0.997965 0.256930 0.320398
O23   O     O_3   0.096399 0.912901 0.764225 -0.585187
H9    H     H_    0.048574 0.956283 0.783657 0.288784
O24   O     O_3   0.901193 0.849892 0.224730 -0.600568
H10   H     H_    0.949015 0.803605 0.206260 0.297132
O25   O     O_3   0.728683 0.433914 0.653221 -0.572512
C37   C     C_3   0.692221 0.581447 0.686111 -0.127050
H11   H     H_    0.732019 0.643949 0.737302 0.151304
H12   H     H_    0.635255 0.539049 0.705536 0.140938
H13   H     H_    0.678773 0.690721 0.639492 0.178046
O26   O     O_3   0.273574 0.930219 0.344928 -0.571777
C38   C     C_3   0.311205 0.081106 0.311112 -0.143673
H14   H     H_    0.272315 0.142583 0.258852 0.147463
H15   H     H_    0.368356 0.042829 0.292909 0.126032
H16   H     H_    0.324573 0.189787 0.356752 0.188060
O27   O     O_3   0.662766 0.005796 0.741397 -0.675924
H17   H     H_    0.671010 0.058911 0.795617 0.285084
O28   O     O_3   0.336601 0.510463 0.258904 -0.689730
H18   H     H_    0.329171 0.566730 0.204538 0.266629
O29   O     O_3   0.387465 0.385675 0.721070 -0.558897
C39   C     C_3   0.352877 0.554156 0.691721 -0.188128
H19   H     H_    0.399340 0.664615 0.700034 0.164839
H20   H     H_    0.305267 0.594185 0.725103 0.146855
H21   H     H_    0.328753 0.548578 0.626758 0.128533
O30   O     O_3   0.604688 0.411098 0.281902 -0.549034
C40   C     C_3   0.537034 0.485906 0.233969 -0.230383
H22   H     H_    0.490829 0.375422 0.222291 0.178035
H23   H     H_    0.550397 0.536250 0.175210 0.123208
H24   H     H_    0.511790 0.599272 0.264708 0.121501
O31   O     O_3   0.163013 0.813564 0.650513 -0.595352
H25   H     H_    0.172363 0.752123 0.601272 0.289555
O32   O     O_3   0.838021 0.968817 0.337056 -0.595789
H26   H     H_    0.829720 0.039394 0.384396 0.296394
O33   O     O_3   0.233558 0.365495 0.949283 -0.540185
C41   C     C_3   0.282366 0.269411 0.011014 -0.241943
H27   H     H_    0.343485 0.255482 0.997409 0.131557
H28   H     H_    0.256556 0.131043 0.022644 0.130196
H29   H     H_    0.286796 0.349576 0.066679 0.158366
O34   O     O_3   0.768263 0.353287 0.062120 -0.554733
C42   C     C_3   0.782455 0.167990 0.087066 -0.136950
H30   H     H_    0.730858 0.106018 0.110736 0.116156
H31   H     H_    0.837446 0.154851 0.132107 0.173869
H32   H     H_    0.790918 0.086648 0.034484 0.136683

loop_
_geom_bond_atom_site_label_1
_geom_bond_atom_site_label_2
_ccdc_geom_bond_type
C7    C34   S    
O16   C36   A    
C27   O29   S    
O28   H18   S    
O32   H26   S    
O24   H10   S    
C40   H22   S    
O1    C3    A    
C37   H13   S    
O2    C4    A    
C2    O7    A    
C41   H28   S    
C38   H14   S    
C40   H24   S    
C25   C27   A    
O27   H17   S    
O5    C3    A    
C5    C9    S    
C6    C10   S    
C7    H1    S    
C37   H12   S    
C42   H31   S    
C15   C19   A    
O34   C42   S    
C14   C28   A    
O16   V4    S    
O31   H25   S    
C30   C32   A    
C12   O28   S    
O11   C35   A    
C17   C19   A    
O13   V3    S    
C6    O22   S    
C26   C28   A    
O19   V4    S    
C21   O23   S    
O6    V2    S    
C19   O33   S    
C33   O18   A    
O22   H8    S    
C17   H5    S    
C8    C33   S    
C41   H27   S    
C38   H15   S    
C10   O26   S    
O13   C33   A    
C32   O32   S    
O14   C34   A    
C5    O21   S    
C16   C20   A    
O21   H7    S    
C37   H11   S    
O4    C2    A    
C31   O31   S    
C42   H32   S    
C9    O25   S    
C3    C12   S    
C14   C30   A    
O11   V4    S    
C18   C20   A    
O4    V2    S    
O25   C37   S    
C1    C14   S    
C13   C27   A    
C39   H20   S    
C2    C13   S    
O6    C4    A    
O15   V3    S    
C11   O27   S    
O1    V2    S    
O2    V1    S    
C29   C31   A    
C18   H6    S    
C8    H2    S    
C16   C35   S    
C23   C31   A    
C38   H16   S    
O3    V1    S    
C39   H21   S    
C15   C36   S    
C21   C23   A    
C28   O30   S    
C10   C12   D    
O26   C38   S    
O3    C1    A    
C40   H23   S    
O15   C35   A    
O14   V4    S    
C15   C21   A    
C34   O17   A    
C16   C22   A    
C4    C11   S    
C20   O34   S    
O20   V3    S    
C22   C24   A    
O7    V1    S    
O23   H9    S    
C23   C25   A    
O8    V2    S    
C42   H30   S    
O17   V3    S    
C24   C26   A    
C39   H19   S    
O5    V1    S    
C5    C7    D    
C17   C25   A    
C6    C8    D    
C18   C26   A    
O30   C40   S    
C24   C32   A    
C22   O24   S    
O18   V4    S    
C13   C29   A    
C1    O8    A    
C9    C11   D    
O9    V2    S    
O33   C41   S    
O10   V1    S    
O12   C36   A    
O29   C39   S    
C29   H3    S    
C41   H29   S    
O12   V3    S    
C30   H4    S    
