data_mof_unit_15178.cif
_audit_creation_date              2012-12-10T17:16:39-0500
_audit_creation_method            fapswitch 2.2
_symmetry_space_group_name_H-M    P1
_symmetry_Int_Tables_number       1
_space_group_crystal_system       triclinic
_cell_length_a                    10.073379
_cell_length_b                    10.64501
_cell_length_c                    10.829761
_cell_angle_alpha                 89.929785
_cell_angle_beta                  94.964079
_cell_angle_gamma                 83.060728
_cell_volume                      1148.37775536

loop_
_atom_site_label
_atom_site_type_symbol
_atom_type_description
_atom_site_fract_x
_atom_site_fract_y
_atom_site_fract_z
_atom_type_partial_charge
C1    C     C_R   0.444228 0.511853 0.267446 0.941992
C2    C     C_R   0.556051 0.494947 0.732570 0.940134
C3    C     C_2   0.413056 0.529793 0.135892 -0.362107
C4    C     C_2   0.588311 0.503296 0.864160 -0.354016
C5    C     C_2   0.514164 0.537805 0.066022 -0.154919
C6    C     C_2   0.489220 0.541839 0.934114 -0.163532
C7    C     C_2   0.070593 0.496226 0.484302 0.473075
C8    C     C_2   0.929427 0.503696 0.515753 0.472161
C9    C     C_R   0.492924 0.260971 0.483700 0.886546
C10   C     C_R   0.507097 0.739004 0.516361 0.880313
C11   C     C_R   0.691682 0.091248 0.358966 -0.186830
C12   C     C_R   0.308516 0.908586 0.641393 -0.186508
C13   C     C_R   0.817724 0.022892 0.352162 -0.150260
C14   C     C_R   0.182440 0.976887 0.648163 -0.150313
C15   C     C_R   0.853059 0.910974 0.420922 0.272108
C16   C     C_R   0.147071 0.088806 0.579398 0.272816
C17   C     C_R   0.756339 0.863692 0.487760 -0.209473
C18   C     C_R   0.243791 0.136160 0.512610 -0.208611
C19   C     C_R   0.624276 0.926865 0.486055 0.045421
C20   C     C_R   0.375877 0.073038 0.514323 0.044864
C21   C     C_R   0.598340 0.048743 0.435031 0.088142
C22   C     C_R   0.401833 0.951155 0.565343 0.089219
C23   C     C_R   0.517972 0.873366 0.535493 -0.216856
C24   C     C_R   0.482155 0.126541 0.464813 -0.219788
H1    H     H_    0.668285 0.178629 0.305942 0.157170
H2    H     H_    0.331949 0.821173 0.694379 0.153902
H3    H     H_    0.889846 0.060721 0.298428 0.141651
H4    H     H_    0.110317 0.939003 0.701855 0.141021
H5    H     H_    0.786643 0.780221 0.544521 0.213460
H6    H     H_    0.213439 0.219615 0.455839 0.213143
H7    H     H_    0.386467 0.568198 0.894764 0.187482
H8    H     H_    0.617874 0.532418 0.105385 0.191903
H9    H     H_    0.690779 0.476795 0.903924 0.163822
H10   H     H_    0.309622 0.534855 0.096109 0.165453
H11   H     H_    0.873921 0.401050 0.371691 0.151048
H12   H     H_    0.126075 0.598995 0.628284 0.150202
N1    N     N_2   0.157300 0.551390 0.551120 -0.225400
N2    N     N_2   0.842700 0.448610 0.448880 -0.226055
O1    O     O_R   0.568940 0.489660 0.307530 -0.634929
O2    O     O_R   0.431060 0.510340 0.692470 -0.633070
O3    O     O_R   0.348880 0.522640 0.340350 -0.551617
O4    O     O_R   0.651120 0.477360 0.659650 -0.551668
O5    O     O_R   0.610030 0.300280 0.483580 -0.619713
O6    O     O_R   0.389970 0.699720 0.516420 -0.622079
O7    O     O_R   0.389970 0.333270 0.516400 -0.587592
O8    O     O_R   0.610030 0.666730 0.483600 -0.590785
Zn1   Zn    Zn3+2 0.646940 0.477980 0.478080 0.977742
Zn2   Zn    Zn3+2 0.353060 0.522020 0.521920 0.978708
N3    N     N_2   0.013239 0.150784 0.572805 -0.307521
H13   H     H_    0.988722 0.213165 0.499222 0.223428
C25   C     C_3   0.969798 0.202492 0.688100 -0.743749
H14   H     H_    0.863574 0.245707 0.673180 0.264428
H15   H     H_    0.032594 0.276735 0.721193 0.239857
H16   H     H_    0.976026 0.127015 0.759907 0.232862
N4    N     N_2   0.986853 0.848914 0.427430 -0.307377
H17   H     H_    0.011381 0.786552 0.501026 0.223266
C26   C     C_3   0.030154 0.797146 0.312106 -0.744536
H18   H     H_    0.136355 0.753840 0.326957 0.264863
H19   H     H_    0.023949 0.872608 0.240285 0.233074
H20   H     H_    0.967248 0.722964 0.279063 0.238489
F1    F     F_    0.890777 0.568666 0.617058 -0.702114
F2    F     F_    0.109267 0.431178 0.383049 -0.702347

loop_
_geom_bond_atom_site_label_1
_geom_bond_atom_site_label_2
_ccdc_geom_bond_type
C10   O8    A    
C19   C23   A    
N4    H17   S    
C7    F2    S    
C9    O7    A    
C18   H6    S    
C12   C22   A    
C10   C23   S    
C17   H5    S    
C1    O1    A    
C2    C4    S    
C8    F1    S    
C3    C5    D    
C25   H16   S    
C14   H4    S    
C5    H8    S    
N4    C26   S    
C6    H7    S    
N2    Zn1   S    
C7    C8    S    
C9    C24   S    
C16   C18   A    
C12   H2    S    
N1    Zn2   S    
C11   C13   A    
C26   H18   S    
C8    N2    D    
C2    O4    A    
C4    C6    D    
H12   N1    S    
C19   C21   A    
O3    Zn2   S    
C20   C22   A    
C18   C20   A    
O4    Zn1   S    
C13   C15   A    
C7    N1    D    
C5    C6    S    
C20   C24   A    
C14   C16   A    
C9    O5    A    
C26   H19   S    
C11   H1    S    
C10   O6    A    
C25   H14   S    
C2    O2    A    
H11   N2    S    
C16   N3    S    
O1    Zn1   S    
N3    H13   S    
C21   C24   A    
C1    O3    A    
C1    C3    S    
C15   C17   A    
O2    Zn2   S    
O8    Zn1   S    
C17   C19   A    
C26   H20   S    
O7    Zn2   S    
C3    H10   S    
C25   H15   S    
C4    H9    S    
O5    Zn1   S    
C11   C21   A    
C22   C23   A    
C13   H3    S    
O6    Zn2   S    
C12   C14   A    
N3    C25   S    
C15   N4    S    
