data_mof_unit_38717.cif
_audit_creation_date              2012-12-10T19:42:57-0500
_audit_creation_method            fapswitch 2.2
_symmetry_space_group_name_H-M    P1
_symmetry_Int_Tables_number       1
_space_group_crystal_system       triclinic
_cell_length_a                    10.828667
_cell_length_b                    12.998149
_cell_length_c                    11.651934
_cell_angle_alpha                 99.855384
_cell_angle_beta                  94.16192
_cell_angle_gamma                 90.630547
_cell_volume                      1611.11895972

loop_
_atom_site_label
_atom_site_type_symbol
_atom_type_description
_atom_site_fract_x
_atom_site_fract_y
_atom_site_fract_z
_atom_type_partial_charge
C1    C     C_R   0.498341 0.299002 0.478601 0.805114
C2    C     C_R   0.506617 0.985027 0.656071 -0.223391
C3    C     C_R   0.493353 0.123110 0.354988 -0.194359
C4    C     C_R   0.506647 0.876890 0.645012 -0.194361
C5    C     C_R   0.501758 0.139356 0.566361 -0.282506
C6    C     C_R   0.498242 0.860644 0.433639 -0.282503
C7    C     C_R   0.502106 0.031334 0.556047 0.178225
C8    C     C_R   0.497894 0.968666 0.443953 0.178220
C9    C     C_R   0.390560 0.395643 0.020270 -0.359229
C10   C     C_R   0.609442 0.604356 0.979730 -0.359216
C11   C     C_R   0.400111 0.406393 0.142837 0.111423
C12   C     C_R   0.501658 0.700998 0.521399 0.805125
C13   C     C_R   0.599891 0.593606 0.857163 0.111423
C14   C     C_R   0.546040 0.546097 0.157959 0.021933
C15   C     C_R   0.453961 0.453903 0.842041 0.021933
C16   C     C_R   0.262167 0.502334 0.499924 0.800584
C17   C     C_R   0.737833 0.497663 0.500077 0.800580
C18   C     C_R   0.539406 0.538178 0.034832 0.064098
C19   C     C_R   0.460595 0.461821 0.965168 0.064092
C20   C     C_R   0.220175 0.716358 0.243443 -0.123067
C21   C     C_R   0.779789 0.283674 0.756588 -0.123047
C22   C     C_R   0.167904 0.676062 0.333042 -0.165912
C23   C     C_R   0.871723 0.496251 0.500932 -0.079561
C24   C     C_R   0.832062 0.323954 0.666981 -0.165887
C25   C     C_R   0.106710 0.578008 0.309939 0.115009
C26   C     C_R   0.893287 0.421995 0.690073 0.115009
C27   C     C_R   0.097903 0.520214 0.195132 0.192473
C28   C     C_R   0.902121 0.479788 0.804880 0.192476
C29   C     C_R   0.150803 0.561994 0.105791 -0.179872
C30   C     C_R   0.849221 0.438024 0.894230 -0.179906
C31   C     C_R   0.211728 0.659394 0.130074 -0.142801
C32   C     C_R   0.788265 0.340639 0.869957 -0.142800
C33   C     C_R   0.926546 0.531660 0.409430 -0.237199
C34   C     C_R   0.128275 0.503740 0.499070 -0.079559
C35   C     C_R   0.073453 0.468330 0.590572 -0.237157
C36   C     C_R   0.945699 0.464087 0.592854 0.038301
C37   C     C_R   0.054299 0.535904 0.407149 0.038288
C38   C     C_R   0.502268 0.814386 0.533806 -0.050014
C39   C     C_R   0.497732 0.185614 0.466194 -0.050014
C40   C     C_R   0.493383 0.014973 0.343929 -0.223394
Cu1   Cu    Cu3+1 0.509250 0.507730 0.615930 0.945474
Cu2   Cu    Cu3+1 0.490750 0.492270 0.384070 0.945479
H1    H     H_    0.252817 0.690566 0.060900 0.134877
H2    H     H_    0.824164 0.279114 0.579283 0.121818
H3    H     H_    0.145916 0.518650 0.017482 0.126699
H4    H     H_    0.854132 0.481371 0.982540 0.126704
H5    H     H_    0.869684 0.558683 0.340489 0.143375
H6    H     H_    0.130317 0.441310 0.659511 0.143373
H7    H     H_    0.495494 0.812818 0.347505 0.148925
H8    H     H_    0.504506 0.187182 0.652495 0.148918
H9    H     H_    0.489984 0.967703 0.257522 0.130847
H10   H     H_    0.510016 0.032297 0.742478 0.130845
H11   H     H_    0.328681 0.336222 0.969170 0.134780
H12   H     H_    0.747175 0.309479 0.939137 0.134882
H13   H     H_    0.671322 0.663775 0.030830 0.134775
H14   H     H_    0.944119 0.428084 0.174181 0.206923
H15   H     H_    0.053509 0.381595 0.085968 0.208160
H16   H     H_    0.055939 0.571885 0.825866 0.206910
H17   H     H_    0.946514 0.618425 0.914018 0.208164
H18   H     H_    0.509913 0.842327 0.723389 0.154746
H19   H     H_    0.490087 0.157673 0.276611 0.154745
H20   H     H_    0.393089 0.395756 0.787633 0.114037
H21   H     H_    0.606910 0.604244 0.212366 0.114038
H22   H     H_    0.654384 0.644849 0.815575 0.132754
H23   H     H_    0.345618 0.355149 0.184425 0.132768
H24   H     H_    0.267369 0.791846 0.261948 0.130483
H25   H     H_    0.732569 0.208197 0.738090 0.130471
H26   H     H_    0.175778 0.720901 0.420741 0.121829
N1    N     N_R   0.523180 0.519350 0.790130 -0.176939
N2    N     N_R   0.476820 0.480650 0.209870 -0.176941
N3    N     N_3   0.039512 0.418218 0.171025 -0.601263
N4    N     N_3   0.960543 0.581771 0.828977 -0.601254
O1    O     O_R   0.506570 0.354460 0.582000 -0.587376
O2    O     O_R   0.493430 0.645540 0.418000 -0.587371
O3    O     O_R   0.490940 0.341410 0.386200 -0.596397
O4    O     O_R   0.509060 0.658590 0.613800 -0.596396
O5    O     O_R   0.327460 0.506540 0.597900 -0.593315
O6    O     O_R   0.672540 0.493460 0.402100 -0.593314
O7    O     O_R   0.311830 0.493480 0.402100 -0.567888
O8    O     O_R   0.688170 0.506520 0.597900 -0.567897

loop_
_geom_bond_atom_site_label_1
_geom_bond_atom_site_label_2
_ccdc_geom_bond_type
C12   O2    A    
C27   C29   A    
C34   C37   A    
Cu1   Cu2   S    
C14   C18   A    
C35   C36   A    
Cu1   O8    S    
C11   N2    A    
C7    C8    A    
C15   C19   A    
Cu2   O3    S    
C17   C23   S    
C31   H1    S    
C20   H24   S    
C24   C26   A    
C16   O5    A    
Cu1   O5    S    
Cu2   N2    S    
C34   C35   A    
C16   C34   S    
C9    C19   A    
C2    C7    A    
C23   C33   A    
C22   C25   A    
C6    C38   A    
H17   N4    S    
C25   C37   S    
C3    C39   A    
Cu2   O7    S    
C21   H25   S    
C14   N2    A    
C28   N4    S    
C35   H6    S    
C32   H12   S    
C3    H19   S    
C15   N1    A    
C21   C32   A    
Cu2   O2    S    
C1    O3    A    
C5    C7    A    
C18   C19   A    
C6    C8    A    
C17   O8    A    
C33   C37   A    
C29   H3    S    
C2    C4    A    
H14   N3    S    
C4    H18   S    
H15   N3    S    
C10   H13   S    
C9    C11   A    
C22   H26   S    
C2    H10   S    
C26   C36   S    
C20   C22   A    
C3    C40   A    
Cu2   O6    S    
C5    C39   A    
C24   H2    S    
C5    H8    S    
C9    H11   S    
C27   N3    S    
Cu1   N1    S    
C30   H4    S    
C4    C38   A    
C10   C13   A    
C25   C27   A    
C40   H9    S    
C26   C28   A    
C16   O7    A    
C1    O1    A    
C12   O4    A    
C29   C31   A    
Cu1   O4    S    
C30   C32   A    
H16   N4    S    
C13   H22   S    
C13   N1    A    
C10   C18   A    
C33   H5    S    
C14   H21   S    
C28   C30   A    
C17   O6    A    
C15   H20   S    
C6    H7    S    
C12   C38   S    
C1    C39   S    
Cu1   O1    S    
C23   C36   A    
C21   C24   A    
C8    C40   A    
C11   H23   S    
C20   C31   A    
