data_mof_unit_57596.cif
_audit_creation_date              2012-12-10T17:09:56-0500
_audit_creation_method            fapswitch 2.2
_symmetry_space_group_name_H-M    P1
_symmetry_Int_Tables_number       1
_space_group_crystal_system       triclinic
_cell_length_a                    10.831228
_cell_length_b                    12.97664
_cell_length_c                    11.704923
_cell_angle_alpha                 99.538346
_cell_angle_beta                  92.431074
_cell_angle_gamma                 93.311917
_cell_volume                      1617.44722002

loop_
_atom_site_label
_atom_site_type_symbol
_atom_type_description
_atom_site_fract_x
_atom_site_fract_y
_atom_site_fract_z
_atom_type_partial_charge
C1    C     C_R   0.495707 0.299010 0.478786 0.824465
C2    C     C_R   0.076970 0.587442 0.584601 0.018503
C3    C     C_R   0.129782 0.509057 0.506107 -0.056883
C4    C     C_R   0.055277 0.439779 0.423848 -0.179371
C5    C     C_R   0.928103 0.443474 0.421198 -0.148072
C6    C     C_R   0.872874 0.519811 0.496921 -0.051729
C7    C     C_R   0.476620 0.812169 0.534258 -0.112196
C8    C     C_R   0.486029 0.185107 0.466709 -0.125053
C9    C     C_R   0.462127 0.014455 0.344765 0.280496
C10   C     C_R   0.472311 0.122947 0.356583 -0.202432
C11   C     C_R   0.487559 0.138489 0.566084 -0.200829
C12   C     C_R   0.262683 0.501890 0.501858 0.768163
C13   C     C_R   0.478564 0.029849 0.556831 0.051276
C14   C     C_R   0.466635 0.967041 0.444801 0.047021
C15   C     C_R   0.462806 0.858499 0.435448 -0.166263
C16   C     C_R   0.482956 0.873973 0.644633 -0.144124
C17   C     C_R   0.483209 0.982298 0.656792 0.287195
C18   C     C_R   0.376234 0.403955 0.025124 -0.269726
C19   C     C_R   0.388528 0.413074 0.146576 0.094706
C20   C     C_R   0.556169 0.541109 0.154468 0.136070
C21   C     C_R   0.545524 0.535402 0.032007 0.008256
C22   C     C_R   0.454764 0.465379 0.966946 0.057115
C23   C     C_R   0.489026 0.699444 0.521418 0.882552
C24   C     C_R   0.445577 0.458477 0.844850 0.063730
C25   C     C_R   0.610249 0.588265 0.852025 0.113719
C26   C     C_R   0.623346 0.597472 0.972622 -0.251965
C27   C     C_R   0.737944 0.508749 0.499539 0.858780
C28   C     C_R   0.150030 0.659803 0.668540 -0.234373
C29   C     C_R   0.096688 0.739543 0.740153 0.277888
C30   C     C_R   0.972837 0.756041 0.721316 -0.162917
C31   C     C_R   0.900932 0.690418 0.633886 0.174740
C32   C     C_R   0.947626 0.597998 0.573704 0.045424
Cu1   Cu    Cu3+1 0.509250 0.507730 0.615930 0.967862
Cu2   Cu    Cu3+1 0.490750 0.492270 0.384070 0.993569
H1    H     H_    0.095806 0.380151 0.363447 0.152455
H2    H     H_    0.469699 0.158531 0.279151 0.194907
H3    H     H_    0.497147 0.187592 0.650535 0.202990
H4    H     H_    0.376702 0.404483 0.793358 0.126306
H5    H     H_    0.670311 0.636212 0.807539 0.150014
H6    H     H_    0.305553 0.349310 0.977115 0.162055
H7    H     H_    0.694263 0.653251 0.018103 0.171464
H8    H     H_    0.327188 0.365537 0.190313 0.136330
H9    H     H_    0.248974 0.658556 0.679400 0.191653
H10   H     H_    0.935583 0.825838 0.767421 0.202564
H11   H     H_    0.872161 0.384758 0.361103 0.164593
H12   H     H_    0.452567 0.809386 0.351184 0.235176
H13   H     H_    0.490531 0.838386 0.721860 0.208304
N1    N     N_R   0.523180 0.519350 0.790130 -0.194192
N2    N     N_R   0.476820 0.480650 0.209890 -0.230462
O1    O     O_R   0.506570 0.354460 0.582000 -0.584677
O2    O     O_R   0.490940 0.341410 0.386200 -0.593424
O3    O     O_R   0.327470 0.506530 0.597920 -0.603593
O4    O     O_R   0.311840 0.493480 0.402120 -0.586574
O5    O     O_R   0.509060 0.658590 0.613800 -0.583544
O6    O     O_R   0.493430 0.645540 0.418000 -0.560523
O7    O     O_R   0.688160 0.506520 0.597880 -0.580153
O8    O     O_R   0.672530 0.493470 0.402080 -0.556580
Br1   Br    Br    0.494144 0.060053 0.812242 -0.444040
C33   C     C_2   0.656266 0.610902 0.220396 0.889541
O9    O     O_2   0.759783 0.579311 0.229675 -0.582816
O10   O     O_R   0.636658 0.716098 0.258560 -0.740177
H14   H     H_    0.713691 0.757273 0.297828 0.362633
Br2   Br    Br    0.197638 0.835026 0.853064 -0.416346
Br3   Br    Br    0.770261 0.756844 0.569216 -0.538091
Br4   Br    Br    0.445201 0.936371 0.189448 -0.401390

loop_
_geom_bond_atom_site_label_1
_geom_bond_atom_site_label_2
_ccdc_geom_bond_type
Cu2   O8    S    
C6    C32   A    
C9    C14   A    
C29   Br2   S    
C23   O6    A    
C29   C30   A    
C1    C8    S    
C11   C13   A    
C1    O1    A    
C19   N2    A    
C28   H9    S    
C24   H4    S    
C31   C32   A    
C14   C15   A    
C19   H8    S    
C13   C17   A    
C17   Br1   S    
C21   C26   A    
O10   H14   S    
Cu1   O7    S    
C7    C15   A    
C2    C3    A    
Cu1   O1    S    
C4    H1    S    
Cu2   O6    S    
C18   C22   A    
C21   C22   A    
C25   H5    S    
Cu1   O3    S    
C1    O2    A    
C25   N1    A    
C30   H10   S    
Cu2   O2    S    
C20   N2    A    
Cu2   O4    S    
C8    C11   A    
C7    C23   S    
C16   H13   S    
C2    C32   A    
C28   C29   A    
C12   O3    A    
C10   H2    S    
Cu1   Cu2   S    
C22   C24   A    
C6    C27   S    
C5    C6    A    
C9    Br4   S    
C33   O10   S    
C16   C17   A    
C3    C4    A    
C24   N1    A    
C9    C10   A    
C33   O9    D    
C20   C21   A    
C23   O5    A    
C8    C10   A    
C18   C19   A    
C27   O8    A    
Cu1   O5    S    
C11   H3    S    
Cu1   N1    S    
C18   H6    S    
C27   O7    A    
C7    C16   A    
Cu2   N2    S    
C2    C28   A    
C3    C12   S    
C15   H12   S    
C25   C26   A    
C13   C14   A    
C5    H11   S    
C31   Br3   S    
C30   C31   A    
C12   O4    A    
C26   H7    S    
C4    C5    A    
C20   C33   S    
