data_mof_unit_27415.cif
_audit_creation_date              2012-12-11T14:08:20-0500
_audit_creation_method            fapswitch 2.2
_symmetry_space_group_name_H-M    P1
_symmetry_Int_Tables_number       1
_space_group_crystal_system       triclinic
_cell_length_a                    27.98313
_cell_length_b                    7.182738
_cell_length_c                    17.307644
_cell_angle_alpha                 89.90379
_cell_angle_beta                  101.771291
_cell_angle_gamma                 89.913987
_cell_volume                      3405.58834455

loop_
_atom_site_label
_atom_site_type_symbol
_atom_type_description
_atom_site_fract_x
_atom_site_fract_y
_atom_site_fract_z
_atom_type_partial_charge
O1    O     O_R   0.000700 0.436510 0.857920 -0.503018
O2    O     O_R   0.999300 0.563490 0.142080 -0.508672
O3    O     O_R   0.999300 0.936510 0.642080 -0.502576
O4    O     O_R   0.000700 0.063490 0.357920 -0.508232
O5    O     O_R   0.930080 0.766380 0.721890 -0.545306
O6    O     O_R   0.069920 0.233620 0.278110 -0.510708
O7    O     O_R   0.069920 0.266380 0.778110 -0.545085
O8    O     O_R   0.930080 0.733620 0.221890 -0.511038
C1    C     C_R   0.910362 0.597421 0.711833 0.762385
C2    C     C_R   0.089506 0.401871 0.292310 0.770254
C3    C     C_R   0.089621 0.097187 0.787972 0.763232
C4    C     C_R   0.910515 0.902365 0.207857 0.772481
O9    O     O_R   0.996180 0.766230 0.862310 -0.556318
O10   O     O_R   0.003820 0.233770 0.137690 -0.550994
O11   O     O_R   0.003820 0.266230 0.637690 -0.556461
O12   O     O_R   0.996180 0.733770 0.362310 -0.550846
O13   O     O_R   0.065870 0.936460 0.783500 -0.513626
O14   O     O_R   0.934130 0.063540 0.216500 -0.551702
O15   O     O_R   0.934130 0.436460 0.716500 -0.513402
O16   O     O_R   0.065870 0.563540 0.283500 -0.551547
C5    C     C_R   0.997679 0.596022 0.894149 0.682311
C6    C     C_R   0.002277 0.403959 0.105836 0.680711
C7    C     C_R   0.002270 0.096176 0.605798 0.681992
C8    C     C_R   0.997774 0.903803 0.394217 0.680786
O17   O     O_3   0.022790 0.603020 0.723980 -0.363806
O18   O     O_3   0.977210 0.396980 0.276020 -0.370024
O19   O     O_3   0.977210 0.103020 0.776020 -0.364067
O20   O     O_3   0.022790 0.896980 0.223980 -0.370402
V1    V     V_3+5 0.995770 0.877900 0.754830 1.545246
V2    V     V_3+5 0.004230 0.122100 0.245170 1.523734
V3    V     V_3+5 0.004230 0.377900 0.745170 1.545255
V4    V     V_3+5 0.995770 0.622100 0.254830 1.523865
C9    C     C_2   0.006511 0.080349 0.521200 0.144561
C10   C     C_2   0.993596 0.919563 0.478843 0.144617
C11   C     C_2   0.993294 0.580097 0.978634 0.144320
C12   C     C_2   0.006602 0.419818 0.021324 0.143882
C13   C     C_R   0.689097 0.018268 0.988030 0.713440
C14   C     C_R   0.319422 0.952508 0.920041 0.603259
C15   C     C_R   0.310674 0.516837 0.514228 0.730584
C16   C     C_R   0.680311 0.454820 0.575918 0.644223
O21   O     O_2   0.719924 0.089604 0.945333 -0.475558
O22   O     O_2   0.288708 0.870846 0.960421 -0.544749
O23   O     O_2   0.279931 0.590565 0.556489 -0.470939
O24   O     O_2   0.710671 0.370594 0.535477 -0.498371
N1    N     N_R   0.706426 0.900305 0.050285 -0.535993
N2    N     N_R   0.299876 0.059431 0.856132 -0.525191
N3    N     N_R   0.293280 0.396085 0.453322 -0.540452
N4    N     N_R   0.700048 0.560642 0.639928 -0.550685
C17   C     C_R   0.677051 0.749624 0.055950 0.662370
C18   C     C_R   0.328591 0.147194 0.812342 0.621008
C19   C     C_R   0.322955 0.245402 0.448918 0.662686
C20   C     C_R   0.671260 0.649894 0.683227 0.646743
C21   C     C_R   0.773522 0.795549 0.165901 0.100968
C22   C     C_R   0.219924 0.937299 0.786216 0.060652
C23   C     C_R   0.226324 0.286955 0.338785 0.099052
C24   C     C_R   0.779818 0.436511 0.710613 0.065738
C25   C     C_R   0.824585 0.780865 0.198132 0.260738
C26   C     C_R   0.168073 0.942014 0.771302 0.346760
C27   C     C_R   0.175375 0.274896 0.305193 0.262121
C28   C     C_R   0.831692 0.441619 0.726769 0.347508
C29   C     C_R   0.837209 0.062858 0.129426 -0.338067
C30   C     C_R   0.171747 0.226053 0.848745 -0.322011
C31   C     C_R   0.162784 0.561014 0.370792 -0.342880
C32   C     C_R   0.828350 0.726715 0.649665 -0.318473
C33   C     C_R   0.787312 0.072658 0.095241 0.187825
C34   C     C_R   0.222956 0.219903 0.864668 0.223965
C35   C     C_R   0.212514 0.569110 0.406098 0.180829
C36   C     C_R   0.777144 0.720155 0.632502 0.217495
C37   C     C_R   0.756072 0.918389 0.100876 0.307114
C38   C     C_R   0.247261 0.075181 0.833961 0.329974
C39   C     C_R   0.243645 0.412856 0.402502 0.306524
C40   C     C_R   0.752660 0.574790 0.662448 0.315903
C41   C     C_R   0.606151 0.919258 0.986128 -0.140300
C42   C     C_R   0.401115 0.013657 0.897020 -0.105650
C43   C     C_R   0.393732 0.420820 0.513757 -0.153347
C44   C     C_R   0.598615 0.521135 0.597835 -0.145537
C45   C     C_R   0.638226 0.047444 0.962029 -0.055502
C46   C     C_R   0.370659 0.927214 0.942992 -0.083948
C47   C     C_R   0.361564 0.547446 0.538844 -0.042282
C48   C     C_R   0.629054 0.431787 0.552999 -0.047230
C49   C     C_R   0.619124 0.203810 0.915662 0.152175
C50   C     C_R   0.392597 0.822483 0.011162 0.093481
C51   C     C_R   0.380658 0.703104 0.584809 0.137305
C52   C     C_R   0.607520 0.327709 0.485235 0.106410
C53   C     C_R   0.625618 0.763366 0.031824 -0.091202
C54   C     C_R   0.380257 0.125015 0.830745 -0.099461
C55   C     C_R   0.374389 0.262856 0.469961 -0.111251
C56   C     C_R   0.619533 0.636459 0.662225 -0.082094
C57   C     C_R   0.856801 0.912253 0.176798 -0.114476
C58   C     C_R   0.143941 0.086837 0.803606 -0.151833
C59   C     C_R   0.143198 0.409949 0.324199 -0.112308
C60   C     C_R   0.856015 0.587317 0.695330 -0.150814
H1    H     H_    0.860545 0.177450 0.120033 0.164415
H2    H     H_    0.153651 0.338358 0.873250 0.165461
H3    H     H_    0.139579 0.677438 0.378713 0.164957
H4    H     H_    0.846569 0.839481 0.625692 0.165182
C61   C     C_R   0.483786 0.085964 0.876569 0.036454
C62   C     C_R   0.523423 0.817334 0.989475 0.034022
C63   C     C_R   0.516105 0.597357 0.617722 0.035852
C64   C     C_R   0.476540 0.321626 0.508210 0.038159
C65   C     C_R   0.473039 0.863821 0.978616 0.012143
C66   C     C_R   0.535451 0.084622 0.908087 -0.003222
C67   C     C_R   0.526813 0.369397 0.517744 0.040897
C68   C     C_R   0.464363 0.591480 0.588130 0.018108
C69   C     C_R   0.452579 0.988534 0.917519 -0.080270
C70   C     C_R   0.555043 0.941347 0.961542 -0.090286
C71   C     C_R   0.547196 0.497019 0.577494 -0.085822
C72   C     C_R   0.444858 0.445228 0.536528 -0.097596
C73   C     C_R   0.462706 0.172530 0.804089 0.494855
C74   C     C_R   0.542541 0.646814 0.023679 0.422049
C75   C     C_R   0.537507 0.692731 0.687732 0.412279
C76   C     C_R   0.457628 0.150065 0.475128 0.416768
C77   C     C_R   0.411622 0.202844 0.783674 0.075499
C78   C     C_R   0.593615 0.624942 0.050590 0.112949
C79   C     C_R   0.588379 0.730114 0.704911 0.082320
C80   C     C_R   0.406465 0.125843 0.450303 0.103318
O25   O     O_2   0.306676 0.253838 0.751171 -0.521386
O26   O     O_2   0.697417 0.582564 0.076787 -0.515738
O27   O     O_2   0.692973 0.746668 0.747514 -0.490389
O28   O     O_2   0.303114 0.075675 0.433100 -0.497491
C81   C     C_R   0.567714 0.223245 0.889847 0.321329
C82   C     C_R   0.443734 0.798272 0.030343 0.445168
C83   C     C_R   0.432027 0.731304 0.605075 0.363192
C84   C     C_R   0.556199 0.301166 0.466396 0.369181
O29   O     O_3   0.025603 0.228245 0.485778 -0.648342
H5    H     H_    0.036875 0.326581 0.525254 0.298692
O30   O     O_3   0.974550 0.771597 0.514290 -0.647821
H6    H     H_    0.963288 0.673217 0.474832 0.301072
O31   O     O_3   0.973660 0.727344 0.013607 -0.648394
H7    H     H_    0.962068 0.825184 0.973829 0.298796
O32   O     O_3   0.026193 0.272504 0.986326 -0.648166
H8    H     H_    0.037774 0.174621 0.026087 0.300618
N5    N     N_3   0.768067 0.250250 0.066391 -0.578089
H9    H     H_    0.774825 0.344118 0.113464 0.242041
H10   H     H_    0.787474 0.297026 0.024472 0.267501
N6    N     N_3   0.250582 0.359192 0.913413 -0.629383
H11   H     H_    0.240549 0.489165 0.887908 0.252709
H12   H     H_    0.240578 0.356070 0.968395 0.240609
N7    N     N_3   0.231778 0.746669 0.434268 -0.554753
H13   H     H_    0.225419 0.839561 0.386701 0.236495
H14   H     H_    0.212071 0.795204 0.475466 0.268782
N8    N     N_3   0.749709 0.859862 0.583313 -0.621757
H15   H     H_    0.759411 0.989579 0.608998 0.254296
H16   H     H_    0.760231 0.857439 0.528729 0.246490
N9    N     N_3   0.652182 0.347185 0.900375 -0.593285
H17   H     H_    0.634563 0.464678 0.872882 0.239130
H18   H     H_    0.671164 0.395306 0.954820 0.295239
N10   N     N_3   0.364281 0.738375 0.062314 -0.666138
H19   H     H_    0.341128 0.637580 0.031331 0.288452
H20   H     H_    0.344811 0.840981 0.085639 0.275553
N11   N     N_3   0.347704 0.834507 0.608565 -0.586683
H21   H     H_    0.357882 0.855638 0.669482 0.224473
H22   H     H_    0.349250 0.960226 0.578835 0.245606
N12   N     N_3   0.637766 0.252570 0.435020 -0.592174
H23   H     H_    0.632949 0.108312 0.430962 0.240868
H24   H     H_    0.628186 0.313583 0.379097 0.232320
O33   O     O_3   0.139992 0.810824 0.724069 -0.634427
H25   H     H_    0.161130 0.716008 0.706560 0.334545
O34   O     O_3   0.843339 0.651783 0.255747 -0.639633
H26   H     H_    0.819776 0.549301 0.255143 0.288936
O35   O     O_3   0.859593 0.309984 0.774427 -0.634447
H27   H     H_    0.838363 0.214347 0.791070 0.334420
O36   O     O_3   0.156771 0.144135 0.248511 -0.639987
H28   H     H_    0.180104 0.040070 0.250576 0.286836
N13   N     N_3   0.244652 0.792936 0.752467 -0.641275
H29   H     H_    0.267206 0.719696 0.798030 0.254753
H30   H     H_    0.266682 0.855086 0.717685 0.276359
N14   N     N_3   0.739514 0.720438 0.209754 -0.635426
H31   H     H_    0.742607 0.575568 0.212920 0.255206
H32   H     H_    0.748081 0.773066 0.267208 0.240290
N15   N     N_3   0.754898 0.291647 0.743698 -0.640450
H33   H     H_    0.732672 0.219079 0.697753 0.252492
H34   H     H_    0.732504 0.353256 0.778014 0.283647
N16   N     N_3   0.260635 0.204247 0.297441 -0.639020
H35   H     H_    0.257060 0.059539 0.296725 0.251710
H36   H     H_    0.252930 0.252076 0.239113 0.238624
N17   N     N_3   0.393060 0.312681 0.714636 -0.682579
H37   H     H_    0.368854 0.233595 0.673652 0.254942
H38   H     H_    0.376172 0.432381 0.730641 0.292519
N18   N     N_3   0.612792 0.471947 0.101946 -0.612362
H39   H     H_    0.585162 0.393731 0.118554 0.233096
H40   H     H_    0.631346 0.529394 0.155124 0.259771
N19   N     N_3   0.607915 0.869936 0.762445 -0.595726
H41   H     H_    0.580109 0.943520 0.780792 0.239196
H42   H     H_    0.624272 0.971558 0.733139 0.265907
N20   N     N_3   0.387101 0.971480 0.400272 -0.604670
H43   H     H_    0.414543 0.897592 0.380927 0.233316
H44   H     H_    0.366464 0.027407 0.348162 0.262433
O37   O     O_3   0.492328 0.207318 0.750579 -0.625834
H45   H     H_    0.473495 0.261914 0.701215 0.330941
O38   O     O_3   0.510758 0.499945 0.024430 -0.615238
H46   H     H_    0.527819 0.382366 0.017355 0.300799
O39   O     O_3   0.508881 0.730868 0.742235 -0.606562
H47   H     H_    0.529574 0.732097 0.795955 0.311750
O40   O     O_3   0.489786 0.004202 0.473932 -0.619504
H48   H     H_    0.473074 0.885476 0.480025 0.298736
O41   O     O_3   0.548434 0.387481 0.855976 -0.633255
H49   H     H_    0.563892 0.411351 0.810286 0.306971
O42   O     O_3   0.466758 0.724407 0.102488 -0.617674
H50   H     H_    0.443251 0.702671 0.137110 0.334200
O43   O     O_3   0.451643 0.900101 0.634147 -0.616453
H51   H     H_    0.425833 0.993686 0.633927 0.286502
O44   O     O_3   0.532923 0.226069 0.394843 -0.619462
H52   H     H_    0.556553 0.173103 0.365690 0.299920

loop_
_geom_bond_atom_site_label_1
_geom_bond_atom_site_label_2
_ccdc_geom_bond_type
O17   V3    S    
C77   N17   S    
O44   H52   S    
O1    C5    A    
O33   H25   S    
C62   C74   A    
C23   C27   A    
O19   V1    S    
C18   O25   S    
O13   V1    S    
O43   H51   S    
O3    C7    A    
O36   H28   S    
C76   C80   A    
N15   H33   S    
C21   C37   A    
N9    H17   S    
O4    V2    S    
C23   N16   S    
C68   C83   A    
C34   C38   A    
O7    C3    A    
N15   H34   S    
N13   H29   S    
C43   C47   A    
C25   C57   A    
C54   C77   A    
C32   C36   A    
O9    V1    S    
C53   C78   A    
N10   H20   S    
C14   O22   S    
N4    C20   A    
N19   H42   S    
O34   H26   S    
O16   V4    S    
O4    C8    A    
C29   H1    S    
C31   H3    S    
C74   O38   S    
O1    V3    S    
O2    V4    S    
O3    V1    S    
N16   H35   S    
N14   H31   S    
C52   N12   S    
C1    O15   A    
C11   C12   D    
C73   O37   S    
C10   O30   S    
C24   C40   A    
O2    C6    A    
N11   H21   S    
C16   C48   A    
C36   N8    S    
O14   V2    S    
N1    C17   A    
C82   O42   S    
C66   C81   A    
C35   N7    S    
C11   O31   S    
N12   H24   S    
C61   C66   A    
O39   H47   S    
C73   C77   A    
C61   C69   A    
O11   C7    A    
C63   C68   A    
C25   O34   S    
O15   V3    S    
O42   H50   S    
O12   C8    A    
C33   N5    S    
C31   C59   A    
O37   H45   S    
O10   V2    S    
C67   C84   A    
C1    C60   S    
N9    H18   S    
C29   C57   A    
C19   O28   S    
C51   N11   S    
C28   C60   A    
C65   C69   A    
C31   C35   A    
C64   C72   A    
O7    V3    S    
C30   C34   A    
C84   O44   S    
N1    C37   S    
C48   C52   A    
O8    V4    S    
C17   C53   A    
C4    C57   S    
C20   C56   A    
C9    C10   D    
N10   H19   S    
C32   H4    S    
N6    H12   S    
C12   O32   S    
C2    O16   A    
C21   C25   A    
O18   V4    S    
N3    C19   A    
C14   C46   A    
C7    C9    S    
C80   N20   S    
C64   C67   A    
C8    C10   S    
C44   C56   A    
C24   C28   A    
C49   C81   A    
C36   C40   A    
C15   C47   A    
N19   H41   S    
C76   O40   S    
O5    C1    A    
C61   C73   A    
C46   C50   A    
C21   N14   S    
C50   N10   S    
C17   O26   S    
C22   C38   A    
C45   C49   A    
O8    C4    A    
C83   O43   S    
C63   C75   A    
C9    O29   S    
C28   O35   S    
C55   C80   A    
O9    C5    A    
C27   C59   A    
C42   C54   A    
C26   C58   A    
C41   C53   A    
N12   H23   S    
C75   O39   S    
C34   N6    S    
C75   C79   A    
C43   C55   A    
N4    C40   S    
O6    V2    S    
C2    C59   S    
C64   C76   A    
C44   C71   A    
C78   N18   S    
C30   H2    S    
C24   N15   S    
O29   H5    S    
N8    H16   S    
C52   C84   A    
N3    C39   S    
C22   N13   S    
N20   H44   S    
O30   H6    S    
O5    V1    S    
C68   C72   A    
N2    C38   S    
C6    C12   S    
N18   H39   S    
C15   N3    A    
O31   H7    S    
C22   C26   A    
C43   C72   A    
O38   H46   S    
C16   N4    A    
C74   C78   A    
C3    O13   A    
C41   C45   A    
N18   H40   S    
C44   C48   A    
N6    H11   S    
C26   O33   S    
O6    C2    A    
C79   N19   S    
N7    H13   S    
O11   V3    S    
C5    C11   S    
O12   V4    S    
C62   C65   A    
C63   C71   A    
N2    C18   A    
C19   C55   A    
C49   N9    S    
C65   C82   A    
C62   C70   A    
O10   C6    A    
C56   C79   A    
O20   V2    S    
O35   H27   S    
C42   C69   A    
C47   C51   A    
N7    H14   S    
C3    C58   S    
C41   C70   A    
N5    H9    S    
C13   C45   A    
C33   C37   A    
C30   C58   A    
N14   H32   S    
N17   H38   S    
C66   C70   A    
C35   C39   A    
N11   H22   S    
C13   O21   S    
O41   H49   S    
N16   H36   S    
C14   N2    A    
C27   O36   S    
C18   C54   A    
C81   O41   S    
O40   H48   S    
C20   O27   S    
C29   C33   A    
C16   O24   S    
C15   O23   S    
N13   H30   S    
N17   H37   S    
C42   C46   A    
C4    O14   A    
N5    H10   S    
C32   C60   A    
N8    H15   S    
C67   C71   A    
C51   C83   A    
N20   H43   S    
C13   N1    A    
C50   C82   A    
C23   C39   A    
O32   H8    S    
