data_mof_unit_8384.cif
_audit_creation_date              2012-12-10T17:36:21-0500
_audit_creation_method            fapswitch 2.2
_symmetry_space_group_name_H-M    P1
_symmetry_Int_Tables_number       1
_space_group_crystal_system       triclinic
_cell_length_a                    12.394779
_cell_length_b                    13.217553
_cell_length_c                    15.863531
_cell_angle_alpha                 76.875447
_cell_angle_beta                  101.195935
_cell_angle_gamma                 116.860735
_cell_volume                      2245.36021262

loop_
_atom_site_label
_atom_site_type_symbol
_atom_type_description
_atom_site_fract_x
_atom_site_fract_y
_atom_site_fract_z
_atom_type_partial_charge
C1    C     C_R   0.854826 0.286448 0.509744 0.771946
C2    C     C_3   0.991187 0.384358 0.069336 -0.335205
C3    C     C_3   0.000989 0.500970 0.082926 0.245238
C4    C     C_3   0.118136 0.601875 0.046562 -0.116207
C5    C     C_3   0.116971 0.599668 0.948583 -0.371123
C6    C     C_1   0.000281 0.500402 0.175276 -0.098906
C7    C     C_1   0.999368 0.499791 0.824596 -0.061662
C8    C     C_1   0.999635 0.499671 0.749096 -0.126063
C9    C     C_R   0.278616 0.032511 0.399497 -0.202896
C10   C     C_R   0.226620 0.837475 0.473932 -0.118642
C11   C     C_R   0.808982 0.090283 0.588017 -0.220606
C12   C     C_R   0.999778 0.499666 0.659478 0.814814
C13   C     C_R   0.723809 0.988302 0.628229 -0.087059
C14   C     C_R   0.598954 0.957332 0.606174 0.009061
C15   C     C_R   0.559106 0.019773 0.530509 0.012807
C16   C     C_R   0.647474 0.124781 0.490485 0.084596
C17   C     C_R   0.435514 0.984216 0.493300 0.075011
C18   C     C_R   0.400747 0.062078 0.430402 0.117840
C19   C     C_R   0.488782 0.164810 0.393444 -0.211743
C20   C     C_R   0.610355 0.190953 0.418223 -0.167985
C21   C     C_R   0.348020 0.870499 0.509388 -0.276098
C22   C     C_R   0.190632 0.921672 0.422134 0.270971
C23   C     C_R   0.144806 0.713951 0.486955 0.820305
C24   C     C_R   0.771141 0.163633 0.524799 -0.100544
C25   C     C_R   0.337949 0.317836 0.634040 0.182155
C26   C     C_R   0.752514 0.631619 0.374436 0.133506
C27   C     C_R   0.646552 0.642361 0.337288 -0.226268
C28   C     C_R   0.542940 0.584483 0.380967 -0.122270
C29   C     C_R   0.545790 0.520968 0.465415 0.034005
C30   C     C_R   0.652214 0.502467 0.496014 0.276025
C31   C     C_R   0.444075 0.467726 0.517063 -0.073351
C32   C     C_R   0.441520 0.379319 0.587888 0.080229
C33   C     C_R   0.543205 0.355286 0.612048 -0.175060
C34   C     C_R   0.000154 0.500256 0.340516 0.814276
C35   C     C_R   0.647152 0.417958 0.569125 -0.167156
C36   C     C_R   0.346504 0.500959 0.503566 0.126943
C37   C     C_R   0.240495 0.347640 0.611933 0.041350
C38   C     C_3   0.995630 0.385903 0.972206 -0.376845
C39   C     C_3   0.887926 0.518274 0.931393 -0.139276
C40   C     C_3   0.889000 0.516983 0.029978 -0.465662
C41   C     C_1   0.000162 0.500246 0.250862 -0.164172
C42   C     C_3   0.998690 0.500057 0.916775 0.184558
Cu1   Cu    Cu3+1 0.098280 0.475420 0.519630 0.955402
Cu2   Cu    Cu3+1 0.901720 0.524580 0.480370 0.963191
H1    H     H_    0.904125 0.313736 0.090762 0.159563
H2    H     H_    0.078116 0.376436 0.965204 0.208554
H3    H     H_    0.065365 0.364815 0.109853 0.215550
H4    H     H_    0.116061 0.683930 0.050902 0.099825
H5    H     H_    0.463829 0.221607 0.341096 0.150969
H6    H     H_    0.252136 0.094371 0.354240 0.169694
H7    H     H_    0.375087 0.804519 0.544938 0.209482
H8    H     H_    0.903799 0.117492 0.613565 0.171990
H9    H     H_    0.756059 0.939931 0.683328 0.189245
H10   H     H_    0.915842 0.310895 0.948903 0.154171
H11   H     H_    0.674938 0.264607 0.380190 0.165333
H12   H     H_    0.160123 0.299693 0.646079 0.157083
H13   H     H_    0.545116 0.289331 0.666232 0.201452
H14   H     H_    0.830918 0.672275 0.338343 0.168981
H15   H     H_    0.460159 0.586019 0.345267 0.132606
H16   H     H_    0.643385 0.692059 0.273167 0.162743
H17   H     H_    0.720027 0.393830 0.593516 0.199162
H18   H     H_    0.898240 0.604751 0.895894 0.177983
H19   H     H_    0.804207 0.447365 0.055862 0.177339
H20   H     H_    0.891745 0.599319 0.038873 0.179873
H21   H     H_    0.197429 0.590244 0.936809 0.215978
H22   H     H_    0.122977 0.683174 0.909588 0.154963
N1    N     N_R   0.246300 0.438200 0.549400 -0.236391
N2    N     N_R   0.754300 0.561180 0.451130 -0.211295
O1    O     O_R   0.972520 0.318130 0.524690 -0.576365
O2    O     O_R   0.806530 0.359650 0.491530 -0.609842
O3    O     O_R   0.083030 0.479240 0.637150 -0.566941
O4    O     O_R   0.917040 0.520750 0.603990 -0.581017
O5    O     O_R   0.193470 0.640350 0.508470 -0.593101
O6    O     O_R   0.027480 0.681870 0.475310 -0.532114
O7    O     O_R   0.082960 0.479250 0.396010 -0.601057
O8    O     O_R   0.916970 0.520760 0.362850 -0.588115
Br1   Br    Br    0.027641 0.892595 0.371592 -0.533246
C43   C     C_2   0.516717 0.873839 0.671607 0.350077
H23   H     H_    0.431987 0.876809 0.676096 0.081077
O9    O     O_2   0.543640 0.802152 0.722346 -0.505663
Br2   Br    Br    0.322631 0.191674 0.726980 -0.524911
C44   C     C_2   0.359798 0.611797 0.449782 0.407581
H24   H     H_    0.292352 0.616560 0.396406 0.082045
O10   O     O_2   0.448802 0.700075 0.464315 -0.544531
C45   C     C_2   0.767700 0.430420 0.896212 0.396969
H25   H     H_    0.735540 0.340468 0.925033 0.076933
O11   O     O_2   0.705375 0.459927 0.835437 -0.504405
C46   C     C_2   0.234514 0.603688 0.099513 0.357434
H26   H     H_    0.282963 0.665080 0.144231 0.065957
O12   O     O_2   0.273428 0.535434 0.094681 -0.541052

loop_
_geom_bond_atom_site_label_1
_geom_bond_atom_site_label_2
_ccdc_geom_bond_type
Cu1   O5    S    
C5    C42   S    
C19   C20   A    
C3    C6    S    
C36   N1    A    
C7    C8    T    
C45   H25   S    
C10   C22   A    
C26   C27   A    
C40   H19   S    
C30   C35   A    
C28   C29   A    
C38   C42   S    
C27   H16   S    
C43   O9    D    
C9    C22   A    
C15   C16   A    
C11   C24   A    
C18   C19   A    
C7    C42   S    
Cu2   O8    S    
C2    C38   S    
C11   H8    S    
C25   C37   A    
C37   H12   S    
C36   C44   S    
C6    C41   T    
C33   H13   S    
Cu2   O2    S    
C8    C12   S    
C34   O7    A    
C25   C32   A    
C12   O4    A    
C16   C24   A    
C13   C14   A    
C25   Br2   S    
C34   C41   S    
C23   O5    A    
C20   H11   S    
C39   C42   S    
C13   H9    S    
C45   O11   D    
C10   C21   A    
Cu1   O7    S    
C5    H21   S    
C39   C40   S    
C43   H23   S    
C4    C5    S    
C17   C21   A    
Cu1   Cu2   S    
C29   C30   A    
C19   H5    S    
C31   C32   A    
C38   H10   S    
C16   C20   A    
C17   C18   A    
C35   H17   S    
Cu2   O6    S    
C26   H14   S    
C12   O3    A    
C46   O12   D    
C3    C40   S    
C44   O10   D    
C2    H3    S    
Cu2   N2    S    
C39   C45   S    
C23   O6    A    
C3    C4    S    
C21   H7    S    
C4    H4    S    
C28   H15   S    
C15   C17   A    
C39   H18   S    
Cu1   O3    S    
C14   C15   A    
C9    H6    S    
C22   Br1   S    
C5    H22   S    
C4    C46   S    
C10   C23   S    
C1    O2    A    
C40   H20   S    
C26   N2    A    
C32   C33   A    
C2    C3    S    
C29   C31   A    
C11   C13   A    
C37   N1    A    
C33   C35   A    
Cu2   O4    S    
C14   C43   S    
C1    O1    A    
C38   H2    S    
C2    H1    S    
C9    C18   A    
C46   H26   S    
C1    C24   S    
Cu1   N1    S    
C44   H24   S    
C27   C28   A    
C31   C36   A    
Cu1   O1    S    
C30   N2    A    
C34   O8    A    
