data_mof_unit_17983.cif
_audit_creation_date              2012-12-10T18:21:20-0500
_audit_creation_method            fapswitch 2.2
_symmetry_space_group_name_H-M    P1
_symmetry_Int_Tables_number       1
_space_group_crystal_system       triclinic
_cell_length_a                    9.405174
_cell_length_b                    10.608934
_cell_length_c                    17.18601
_cell_angle_alpha                 89.103307
_cell_angle_beta                  86.633699
_cell_angle_gamma                 89.687198
_cell_volume                      1711.61449064

loop_
_atom_site_label
_atom_site_type_symbol
_atom_type_description
_atom_site_fract_x
_atom_site_fract_y
_atom_site_fract_z
_atom_type_partial_charge
C1    C     C_R   0.499827 0.740489 0.498256 0.786462
C2    C     C_R   0.500173 0.259511 0.501744 0.786459
C3    C     C_3   0.373174 0.961114 0.476237 -0.187558
C4    C     C_3   0.626826 0.038886 0.523763 -0.187555
C5    C     C_3   0.480802 0.045508 0.428941 0.134592
C6    C     C_3   0.519198 0.954492 0.571058 0.134593
C7    C     C_3   0.500881 0.122725 0.501764 -0.036252
C8    C     C_3   0.499120 0.877275 0.498236 -0.036253
C9    C     C_3   0.393533 0.039949 0.549953 -0.197994
C10   C     C_3   0.606467 0.960050 0.450046 -0.197993
C11   C     C_3   0.950198 0.386082 0.501188 -0.039018
C12   C     C_3   0.049802 0.613918 0.498812 -0.039018
C13   C     C_3   0.044410 0.443199 0.561559 -0.038441
C14   C     C_3   0.955590 0.556800 0.438441 -0.038435
C15   C     C_3   0.057370 0.442930 0.439567 -0.034871
C16   C     C_3   0.942630 0.557070 0.560433 -0.034877
C17   C     C_R   0.482418 0.504469 0.650055 0.787984
C18   C     C_R   0.517581 0.495526 0.349945 0.787980
C19   C     C_R   0.477020 0.520165 0.734657 -0.066428
C20   C     C_R   0.522976 0.479810 0.265345 -0.066425
C21   C     C_R   0.601439 0.554741 0.770345 -0.209835
C22   C     C_R   0.398564 0.445192 0.229665 -0.209828
C23   C     C_R   0.601526 0.569754 0.851252 0.127329
C24   C     C_R   0.398469 0.430164 0.148759 0.127325
C25   C     C_R   0.472778 0.547304 0.895924 0.140671
C26   C     C_R   0.527207 0.452628 0.104082 0.140663
C27   C     C_R   0.347747 0.517663 0.860000 -0.190451
C28   C     C_R   0.652234 0.482309 0.139998 -0.190445
C29   C     C_R   0.349498 0.504448 0.779681 -0.215258
C30   C     C_R   0.650488 0.495549 0.220315 -0.215263
C31   C     C_2   0.467407 0.546081 0.980924 -0.259008
C32   C     C_2   0.532566 0.453839 0.019081 -0.259005
Cu1   Cu    Cu3+1 0.356850 0.500010 0.499980 0.922365
Cu2   Cu    Cu3+1 0.643150 0.499990 0.500020 0.922365
H1    H     H_    0.697854 0.570088 0.734282 0.143148
H2    H     H_    0.302160 0.429823 0.265733 0.143144
H3    H     H_    0.904069 0.289960 0.502201 0.111386
H4    H     H_    0.095931 0.710040 0.497799 0.111386
H5    H     H_    0.110554 0.394707 0.388804 0.099384
H6    H     H_    0.889447 0.605294 0.611195 0.099388
H7    H     H_    0.747872 0.520615 0.246872 0.150864
H8    H     H_    0.252108 0.479418 0.753118 0.150871
H9    H     H_    0.596967 0.383532 0.987807 0.157939
H10   H     H_    0.403004 0.616386 0.012199 0.157943
H11   H     H_    0.249633 0.500611 0.894688 0.140003
H12   H     H_    0.750340 0.499375 0.105305 0.140005
H13   H     H_    0.270435 0.926786 0.456137 0.129392
H14   H     H_    0.729565 0.073214 0.543862 0.129391
H15   H     H_    0.307558 0.075583 0.591004 0.128980
H16   H     H_    0.692443 0.924417 0.408996 0.128978
H17   H     H_    0.086698 0.395214 0.613283 0.105590
H18   H     H_    0.913302 0.604786 0.386717 0.105589
N1    N     N_3   0.141720 0.500030 0.499940 -0.151526
N2    N     N_3   0.858280 0.499970 0.500060 -0.151526
O1    O     O_R   0.379130 0.683150 0.499960 -0.586975
O2    O     O_R   0.620870 0.316850 0.500040 -0.586977
O3    O     O_R   0.620910 0.683140 0.500000 -0.583725
O4    O     O_R   0.379090 0.316860 0.500000 -0.583727
O5    O     O_R   0.365090 0.500030 0.613580 -0.584388
O6    O     O_R   0.634910 0.499970 0.386420 -0.584386
O7    O     O_R   0.606870 0.500020 0.613610 -0.589431
O8    O     O_R   0.393130 0.499980 0.386390 -0.589429
C33   C     C_3   0.265752 0.388880 0.108895 -0.401485
C34   C     C_3   0.132959 0.361053 0.162887 -0.380639
C35   C     C_3   0.010004 0.315650 0.116533 -0.858786
H19   H     H_    0.982851 0.387715 0.072152 0.245195
H20   H     H_    0.039232 0.226062 0.086913 0.254303
H21   H     H_    0.914812 0.298834 0.156614 0.246871
H22   H     H_    0.157223 0.286663 0.206406 0.213135
H23   H     H_    0.098360 0.448156 0.193948 0.214486
H24   H     H_    0.236270 0.463783 0.066940 0.199702
H25   H     H_    0.293475 0.302493 0.075328 0.206565
C36   C     C_3   0.734244 0.611009 0.891124 -0.401478
C37   C     C_3   0.867031 0.638875 0.837137 -0.380636
C38   C     C_3   0.989982 0.684256 0.883500 -0.858812
H26   H     H_    0.960742 0.773817 0.913147 0.254309
H27   H     H_    0.017148 0.612160 0.927859 0.245192
H28   H     H_    0.085168 0.701112 0.843422 0.246872
H29   H     H_    0.901637 0.551793 0.806055 0.214478
H30   H     H_    0.842754 0.713289 0.793635 0.213145
H31   H     H_    0.706520 0.697375 0.924713 0.206572
H32   H     H_    0.763729 0.536080 0.933060 0.199685
C39   C     C_3   0.460025 0.104590 0.348648 -0.413673
C40   C     C_3   0.452068 0.003790 0.286288 -0.347296
C41   C     C_3   0.433298 0.063764 0.206226 -0.840867
H33   H     H_    0.331863 0.117684 0.206547 0.251866
H34   H     H_    0.523279 0.128158 0.189792 0.259027
H35   H     H_    0.430435 0.988941 0.161899 0.238182
H36   H     H_    0.551574 0.946608 0.283584 0.215371
H37   H     H_    0.360788 0.940053 0.301357 0.214951
H38   H     H_    0.360273 0.161451 0.351675 0.194103
H39   H     H_    0.550850 0.168662 0.333241 0.194066
C42   C     C_3   0.539975 0.895409 0.651351 -0.413675
C43   C     C_3   0.547946 0.996208 0.713710 -0.347301
C44   C     C_3   0.566715 0.936232 0.793772 -0.840854
H40   H     H_    0.476725 0.871847 0.810208 0.259023
H41   H     H_    0.668142 0.882301 0.793449 0.251857
H42   H     H_    0.569591 0.011054 0.838099 0.238183
H43   H     H_    0.639232 0.059937 0.698640 0.214950
H44   H     H_    0.448446 0.053398 0.716415 0.215373
H45   H     H_    0.449146 0.831343 0.666760 0.194066
H46   H     H_    0.639722 0.838541 0.648321 0.194108

loop_
_geom_bond_atom_site_label_1
_geom_bond_atom_site_label_2
_ccdc_geom_bond_type
Cu1   O1    S    
C16   H6    S    
C25   C31   S    
C42   C43   S    
C29   H8    S    
C27   C29   A    
C1    C8    S    
C36   C37   S    
C2    C7    S    
C6    C9    S    
C44   H42   S    
C20   C30   A    
C41   H33   S    
Cu2   O2    S    
C39   H39   S    
C28   H12   S    
Cu1   O4    S    
C15   N1    S    
C6    C42   S    
C19   C21   A    
C24   C26   A    
C5    C39   S    
C11   H3    S    
C17   O7    A    
C13   H17   S    
C11   C15   S    
C14   H18   S    
C31   C32   D    
Cu1   O8    S    
C35   H20   S    
Cu2   O3    S    
C30   H7    S    
C34   H23   S    
C12   N1    S    
C27   H11   S    
Cu1   O5    S    
C37   H30   S    
Cu2   O6    S    
C40   H37   S    
C23   C36   S    
C4    C7    S    
C36   H31   S    
C13   N1    S    
C41   H34   S    
Cu1   N1    S    
C31   H10   S    
C12   C16   S    
C9    H15   S    
C40   C41   S    
C4    C6    S    
C3    C8    S    
C37   C38   S    
C42   H45   S    
C5    C7    S    
C26   C32   S    
C18   O8    A    
C6    C8    S    
Cu2   O7    S    
C38   H26   S    
C3    C9    S    
C1    O3    A    
C39   C40   S    
C43   H44   S    
C35   H21   S    
C44   H41   S    
Cu1   Cu2   S    
C34   H22   S    
C38   H27   S    
C15   H5    S    
C11   N2    S    
C17   O5    A    
C18   O6    A    
C14   N2    S    
C20   C22   A    
Cu2   N2    S    
C24   C33   S    
C37   H29   S    
C21   C23   A    
C22   C24   A    
C40   H36   S    
C4    C10   S    
C19   C29   A    
C12   H4    S    
C36   H32   S    
C22   H2    S    
C4    H14   S    
C41   H35   S    
C7    C9    S    
C33   H24   S    
C3    C5    S    
C42   H46   S    
C2    O4    A    
C21   H1    S    
C25   C27   A    
C39   H38   S    
C26   C28   A    
C34   C35   S    
C28   C30   A    
C12   C14   S    
C5    C10   S    
C2    O2    A    
C11   C13   S    
C43   H43   S    
C3    H13   S    
C17   C19   S    
C32   H9    S    
C18   C20   S    
C23   C25   A    
C1    O1    A    
C43   C44   S    
C38   H28   S    
C16   N2    S    
C33   C34   S    
C33   H25   S    
C8    C10   S    
C35   H19   S    
C13   C16   S    
C44   H40   S    
C14   C15   S    
C10   H16   S    
