data_mof_unit_41630.cif
_audit_creation_date              2012-12-10T17:57:25-0500
_audit_creation_method            fapswitch 2.2
_symmetry_space_group_name_H-M    P1
_symmetry_Int_Tables_number       1
_space_group_crystal_system       triclinic
_cell_length_a                    9.549427
_cell_length_b                    10.820886
_cell_length_c                    13.401908
_cell_angle_alpha                 90.483542
_cell_angle_beta                  71.922036
_cell_angle_gamma                 89.463898
_cell_volume                      1316.34795705

loop_
_atom_site_label
_atom_site_type_symbol
_atom_type_description
_atom_site_fract_x
_atom_site_fract_y
_atom_site_fract_z
_atom_type_partial_charge
C1    C     C_R   0.499353 0.737805 0.500535 0.792296
C2    C     C_R   0.433291 0.482725 0.978924 0.065378
C3    C     C_R   0.464633 0.443148 0.872699 0.031201
C4    C     C_R   0.542502 0.467635 0.030178 0.074071
C5    C     C_R   0.667891 0.392264 0.981756 0.060915
C6    C     C_R   0.685864 0.337769 0.884026 -0.215569
C7    C     C_R   0.585018 0.359265 0.830033 0.153053
C8    C     C_R   0.532444 0.525295 0.127571 0.102597
C9    C     C_R   0.747537 0.409089 0.135793 -0.229471
C10   C     C_R   0.370714 0.486185 0.815662 -0.109521
C11   C     C_R   0.611473 0.935190 0.525407 -0.168600
C12   C     C_R   0.420722 0.493992 0.700298 0.789381
C13   C     C_R   0.611749 0.063039 0.525570 -0.182465
C14   C     C_R   0.499865 0.128255 0.500874 -0.018428
C15   C     C_R   0.386277 0.064705 0.477666 -0.175197
C16   C     C_R   0.385455 0.936818 0.478159 -0.190570
C17   C     C_R   0.498530 0.871668 0.501441 -0.024404
C18   C     C_R   0.899111 0.584634 0.558546 -0.056497
C19   C     C_R   0.047584 0.584125 0.558972 -0.050492
C20   C     C_R   0.102713 0.416550 0.441064 0.002689
C21   C     C_R   0.954948 0.414332 0.441748 0.248090
C22   C     C_R   0.500295 0.262160 0.500074 0.776770
C23   C     C_R   0.579167 0.501014 0.299446 0.796660
C24   C     C_R   0.771529 0.367039 0.033598 -0.183094
C25   C     C_R   0.624967 0.484033 0.184990 -0.092784
C26   C     C_R   0.231697 0.536462 0.870255 -0.184784
C27   C     C_R   0.189202 0.551230 0.978431 -0.163922
C28   C     C_R   0.289320 0.526916 0.032272 -0.120094
Cu1   Cu    Cu3+1 0.359340 0.499980 0.500000 0.931877
Cu2   Cu    Cu3+1 0.640660 0.500020 0.500000 0.923198
H1    H     H_    0.822007 0.378971 0.177412 0.152620
H2    H     H_    0.698380 0.110415 0.546142 0.142228
H3    H     H_    0.298755 0.113596 0.458351 0.147130
H4    H     H_    0.297510 0.889158 0.459233 0.149458
H5    H     H_    0.822106 0.652292 0.605712 0.133034
H6    H     H_    0.081947 0.651399 0.606522 0.128374
H7    H     H_    0.180920 0.349023 0.394697 0.137894
H8    H     H_    0.776800 0.273742 0.850517 0.155763
H9    H     H_    0.866918 0.308604 0.997306 0.146223
H10   H     H_    0.156204 0.566254 0.829079 0.155174
H11   H     H_    0.249283 0.537423 0.116458 0.153711
H12   H     H_    0.079813 0.585877 0.020415 0.149871
H13   H     H_    0.698863 0.886278 0.544870 0.144175
N1    N     N_R   0.147940 0.499970 0.499970 -0.182127
N2    N     N_R   0.852060 0.500060 0.499990 -0.174120
O1    O     O_R   0.381250 0.680340 0.500010 -0.587641
O2    O     O_R   0.618820 0.680370 0.500010 -0.583231
O3    O     O_R   0.323240 0.499950 0.650980 -0.576476
O4    O     O_R   0.560810 0.499980 0.650980 -0.578469
O5    O     O_R   0.381180 0.319630 0.499990 -0.585565
O6    O     O_R   0.618750 0.319660 0.499990 -0.609543
O7    O     O_R   0.439190 0.500020 0.349020 -0.584000
O8    O     O_R   0.676760 0.500050 0.349020 -0.587768
N3    N     N_3   0.917360 0.315829 0.383651 -0.630140
H14   H     H_    0.851362 0.347394 0.340548 0.260047
H15   H     H_    0.865318 0.247088 0.435538 0.227791
N4    N     N_3   0.445342 0.636207 0.160161 -0.611576
H16   H     H_    0.361175 0.621789 0.230197 0.235862
H17   H     H_    0.513199 0.705943 0.172844 0.218081
N5    N     N_3   0.594523 0.277178 0.743332 -0.593971
H18   H     H_    0.678534 0.306449 0.677623 0.253680
H19   H     H_    0.494555 0.270747 0.727397 0.211227

loop_
_geom_bond_atom_site_label_1
_geom_bond_atom_site_label_2
_ccdc_geom_bond_type
C2    C4    A    
Cu2   O6    S    
C6    H8    S    
C9    C24   A    
C11   H13   S    
C6    C7    A    
C20   H7    S    
C8    N4    S    
C2    C28   A    
C18   H5    S    
Cu2   O2    S    
C13   H2    S    
C1    C17   S    
C12   O3    A    
Cu1   O1    S    
C22   O5    A    
C26   H10   S    
C10   C26   A    
C12   O4    A    
C23   O7    A    
C9    C25   A    
C3    C10   A    
C13   C14   A    
C19   N1    A    
C8    C25   A    
C11   C13   A    
C27   H12   S    
C14   C22   S    
C26   C27   A    
Cu1   Cu2   S    
C5    C24   A    
C10   C12   S    
C21   N2    A    
C5    C6    A    
C1    O2    A    
C20   N1    A    
Cu2   O4    S    
C23   O8    A    
C3    C7    A    
N4    H16   S    
Cu1   O5    S    
C23   C25   S    
Cu1   N1    S    
C22   O6    A    
C21   N3    S    
Cu2   O8    S    
N3    H15   S    
C1    O1    A    
N4    H17   S    
C9    H1    S    
Cu1   O3    S    
C15   C16   A    
C18   N2    A    
C7    N5    S    
C4    C5    A    
C24   H9    S    
C20   C21   A    
N5    H19   S    
C18   C19   A    
C4    C8    A    
N3    H14   S    
N5    H18   S    
C2    C3    A    
Cu2   N2    S    
C16   H4    S    
C19   H6    S    
C14   C15   A    
C15   H3    S    
C11   C17   A    
C28   H11   S    
C16   C17   A    
C27   C28   A    
Cu1   O7    S    
