data_mof_unit_5964.cif
_audit_creation_date              2012-12-10T17:01:29-0500
_audit_creation_method            fapswitch 2.2
_symmetry_space_group_name_H-M    P1
_symmetry_Int_Tables_number       1
_space_group_crystal_system       triclinic
_cell_length_a                    12.809882
_cell_length_b                    10.739127
_cell_length_c                    10.228617
_cell_angle_alpha                 89.970761
_cell_angle_beta                  97.427676
_cell_angle_gamma                 92.124038
_cell_volume                      1394.34057865

loop_
_atom_site_label
_atom_site_type_symbol
_atom_type_description
_atom_site_fract_x
_atom_site_fract_y
_atom_site_fract_z
_atom_type_partial_charge
C1    C     C_R   0.493414 0.263555 0.498901 0.919138
C2    C     C_2   0.463707 0.134258 0.495738 -0.427232
C3    C     C_2   0.572905 0.552439 0.939031 0.558001
C4    C     C_R   0.299261 0.499928 0.473238 0.898541
C5    C     C_2   0.557167 0.574985 0.081623 0.593988
C6    C     C_R   0.501333 0.736334 0.499962 0.999319
C7    C     C_R   0.700880 0.498233 0.526652 0.916069
C8    C     C_R   0.813034 0.488490 0.542861 -0.161972
C9    C     C_R   0.187395 0.503032 0.453788 -0.174174
C10   C     C_R   0.035761 0.619666 0.377159 0.138106
C11   C     C_R   0.141577 0.598387 0.378680 -0.329634
C12   C     C_R   0.022107 0.439617 0.525368 -0.174909
C13   C     C_R   0.128240 0.416809 0.517745 0.513631
C14   C     C_3   0.687170 0.702552 0.874302 -0.262370
C15   C     C_3   0.366863 0.362802 0.840496 -0.009369
C16   C     C_3   0.542994 0.780202 0.119873 -0.336899
C17   C     C_3   0.373253 0.353697 0.126443 -0.057269
C18   C     C_3   0.970102 0.148707 0.612319 -0.249031
C19   C     C_3   0.193684 0.225843 0.487584 -0.358698
C20   C     C_3   0.273201 0.929750 0.310858 -0.377273
C21   C     C_R   0.975183 0.544288 0.456116 -0.001439
C22   C     C_R   0.869920 0.569003 0.469057 0.040994
C23   C     C_R   0.859276 0.388762 0.614213 -0.082682
C24   C     C_R   0.962898 0.361501 0.602474 0.580709
C25   C     C_2   0.446180 0.929828 0.407842 0.456514
C26   C     C_2   0.510911 0.868107 0.498237 -0.187314
C27   C     C_2   0.467662 0.061876 0.391004 0.021519
H1    H     H_    0.435653 0.095774 0.583874 0.128555
H2    H     H_    0.286678 0.344312 0.867586 0.138428
H3    H     H_    0.577497 0.859182 0.182545 0.199699
H4    H     H_    0.461697 0.760186 0.143640 0.223435
H5    H     H_    0.539077 0.809990 0.015489 0.123386
H6    H     H_    0.316756 0.427418 0.094308 0.150896
H7    H     H_    0.367105 0.331476 0.228902 0.186091
H8    H     H_    0.345792 0.265535 0.074806 0.080815
H9    H     H_    0.734498 0.272769 0.640751 0.174592
H10   H     H_    0.779029 0.367024 0.772029 0.252550
H11   H     H_    0.033719 0.802220 0.328097 0.168550
H12   H     H_    0.189442 0.660166 0.324990 0.194070
H13   H     H_    0.004965 0.702396 0.199257 0.196946
H14   H     H_    0.955744 0.154035 0.502612 0.117072
H15   H     H_    0.897081 0.115171 0.650893 0.171839
H16   H     H_    0.029959 0.077607 0.637852 0.179806
H17   H     H_    0.257425 0.256392 0.429594 0.140902
H18   H     H_    0.120685 0.201894 0.419543 0.152393
H19   H     H_    0.218870 0.139632 0.540379 0.187060
H20   H     H_    0.280248 0.019319 0.257742 0.168265
H21   H     H_    0.246625 0.945378 0.408704 0.159209
H22   H     H_    0.211296 0.871939 0.250953 0.186372
H23   H     H_    0.859713 0.757818 0.446347 0.192290
H24   H     H_    0.571560 0.977173 0.656384 0.189973
H25   H     H_    0.644039 0.982070 0.526579 0.191104
H26   H     H_    0.574685 0.065488 0.262349 0.168938
H27   H     H_    0.448769 0.075801 0.191754 0.187362
H28   H     H_    0.808464 0.669821 0.309222 0.261566
H29   H     H_    0.718858 0.754438 0.965495 0.189113
H30   H     H_    0.614689 0.745986 0.825813 0.160460
H31   H     H_    0.747058 0.711851 0.805296 0.192166
H32   H     H_    0.420509 0.290159 0.883422 0.129823
H33   H     H_    0.359201 0.347120 0.734926 0.216968
N1    N     N_2   0.501130 0.501330 0.852280 0.027609
N2    N     N_2   0.501160 0.501360 0.147950 0.036135
N3    N     N_3   0.817825 0.676406 0.412011 -0.428083
N4    N     N_3   0.801616 0.311864 0.697130 -0.428641
N5    N     N_3   0.992690 0.719329 0.296689 -0.486404
N6    N     N_3   0.598634 0.925275 0.582244 -0.510445
N7    N     N_3   0.503190 0.106357 0.271235 -0.389700
O1    O     O_R   0.499980 0.319060 0.613040 -0.663019
O2    O     O_3   0.403111 0.484183 0.884761 -0.581349
O3    O     O_3   0.607880 0.677487 0.145898 -0.635244
O4    O     O_3   0.476610 0.386186 0.098682 -0.564347
O5    O     O_3   0.008276 0.262656 0.673222 -0.543224
O6    O     O_3   0.176853 0.316515 0.581941 -0.578498
O7    O     O_3   0.368076 0.865390 0.323809 -0.619406
O8    O     O_R   0.500020 0.319100 0.386900 -0.581439
O9    O     O_R   0.346340 0.499960 0.594380 -0.587945
O10   O     O_R   0.346380 0.500000 0.368250 -0.666021
O11   O     O_R   0.499980 0.680900 0.613100 -0.634697
O12   O     O_R   0.500020 0.680940 0.386960 -0.569944
O13   O     O_R   0.653620 0.500000 0.631750 -0.600774
O14   O     O_R   0.653660 0.500040 0.405620 -0.577701
O15   O     O_3   0.672249 0.575112 0.902458 -0.628303
Zn1   Zn    Zn3+2 0.499980 0.499970 0.650990 0.988098
Zn2   Zn    Zn3+2 0.500020 0.500030 0.349010 1.016386

loop_
_geom_bond_atom_site_label_1
_geom_bond_atom_site_label_2
_ccdc_geom_bond_type
C14   H29   S    
C15   H33   S    
C8    C23   A    
C19   H19   S    
C7    C8    S    
C16   H4    S    
C20   H22   S    
C25   O7    S    
C18   H15   S    
O12   Zn2   S    
O8    Zn2   S    
C6    O11   A    
C16   H3    S    
C1    O1    A    
C1    C2    S    
C9    C13   A    
C22   N3    S    
O11   Zn1   S    
H28   N3    S    
C5    N2    D    
C8    C22   A    
C23   C24   A    
C2    C27   D    
C21   C22   A    
H23   N3    S    
C17   H6    S    
O13   Zn1   S    
C14   H31   S    
O9    Zn1   S    
C15   H2    S    
C3    N1    D    
C10   C21   A    
C18   O5    S    
C15   O2    S    
C26   N6    S    
C19   O6    S    
C16   O3    S    
N1    Zn1   S    
C18   H14   S    
H27   N7    S    
O10   Zn2   S    
C25   C26   D    
C12   C21   A    
H10   N4    S    
H24   N6    S    
C1    O8    A    
C5    O3    S    
H11   N5    S    
C3    O15   S    
C20   O7    S    
C11   H12   S    
C9    C11   A    
C20   H21   S    
C23   N4    S    
C7    O14   A    
C13   O6    S    
C17   O4    S    
H13   N5    S    
C16   H5    S    
C17   H7    S    
C14   O15   S    
O14   Zn2   S    
H25   N6    S    
C19   H17   S    
C24   O5    S    
C10   N5    S    
N1    O2    S    
C14   H30   S    
N2    Zn2   S    
O1    Zn1   S    
C15   H32   S    
C3    C5    S    
C19   H18   S    
C25   C27   S    
C12   C24   A    
C4    O10   A    
C18   H16   S    
C6    O12   A    
C6    C26   S    
N2    O4    S    
H26   N7    S    
C4    O9    A    
C20   H20   S    
C27   N7    S    
C10   C11   A    
C12   C13   A    
C2    H1    S    
C17   H8    S    
C4    C9    S    
H9    N4    S    
C7    O13   A    
