data_mof_unit_36050.cif
_audit_creation_date              2013-03-05T15:40:19-0500
_audit_creation_method            fapswitch 2.2
_symmetry_space_group_name_H-M    P1
_symmetry_Int_Tables_number       1
_space_group_crystal_system       triclinic
_cell_length_a                    10.840283
_cell_length_b                    10.921183
_cell_length_c                    17.72497
_cell_angle_alpha                 98.630825
_cell_angle_beta                  72.776081
_cell_angle_gamma                 99.049714
_cell_volume                      1967.4324363

loop_
_atom_site_label
_atom_site_type_symbol
_atom_site_description
_atom_site_fract_x
_atom_site_fract_y
_atom_site_fract_z
_atom_type_partial_charge
Zn1   Zn    Zn3+2 0.577310 0.422690 0.565550 0.968754
Zn2   Zn    Zn3+2 0.403760 0.371330 0.445150 1.042651
Zn3   Zn    Zn3+2 0.634990 0.589920 0.423760 1.069016
Zn4   Zn    Zn3+2 0.383940 0.616050 0.565540 0.961351
O1    O     O_3   0.500000 0.500000 0.500000 -0.504413
O2    O     O_R   0.209690 0.568800 0.556400 -0.640377
O3    O     O_R   0.763190 0.458310 0.535350 -0.653184
O4    O     O_R   0.414000 0.207090 0.472140 -0.628669
O5    O     O_R   0.613120 0.765800 0.436110 -0.582395
O6    O     O_R   0.470800 0.371790 0.332500 -0.603444
O7    O     O_R   0.380610 0.619380 0.674980 -0.656929
O8    O     O_R   0.632640 0.524780 0.317540 -0.639067
O9    O     O_R   0.515950 0.484050 0.674980 -0.650061
O10   O     O_R   0.535460 0.243030 0.556410 -0.654173
O11   O     O_R   0.437420 0.784080 0.535340 -0.677341
O12   O     O_R   0.223560 0.397520 0.472140 -0.613999
O13   O     O_R   0.803560 0.575360 0.436110 -0.584569
C1    C     C_R   0.157052 0.478100 0.518294 0.943211
C2    C     C_R   0.843456 0.523022 0.482924 0.800863
C3    C     C_R   0.467829 0.169006 0.517132 0.946008
C4    C     C_R   0.530551 0.833415 0.483367 0.814030
C5    C     C_R   0.563444 0.437012 0.287576 0.833794
C6    C     C_R   0.434742 0.561877 0.712736 0.790913
C7    C     C_R   0.386857 0.566269 0.799913 -0.053993
C8    C     C_R   0.587788 0.412496 0.201443 -0.087763
C9    C     C_R   0.205470 0.575388 0.921252 0.109341
C10   C     C_R   0.259704 0.591504 0.840018 -0.204324
C11   C     C_R   0.461396 0.525162 0.840810 -0.256023
C12   C     C_R   0.406979 0.494401 0.918524 0.052865
C13   C     C_R   0.282095 0.529430 0.961279 0.111733
C14   C     C_R   0.476645 0.434552 0.956152 0.046194
C15   C     C_R   0.443520 0.451191 0.040195 0.051342
C16   C     C_R   0.317177 0.479114 0.081580 -0.181607
C17   C     C_R   0.236838 0.515312 0.042779 -0.208321
C18   C     C_R   0.566393 0.347421 0.915206 0.063966
C19   C     C_R   0.639379 0.304554 0.957147 -0.198038
C20   C     C_R   0.625607 0.343492 0.037970 -0.038814
C21   C     C_R   0.529670 0.422874 0.080145 0.023448
C22   C     C_R   0.699938 0.297663 0.078805 0.317763
C23   C     C_R   0.673127 0.326001 0.160968 -0.276372
C24   C     C_R   0.525785 0.472429 0.160059 0.027020
H1    H     H_    0.140658 0.534908 0.078136 0.160750
H2    H     H_    0.724170 0.284993 0.193225 0.197956
H3    H     H_    0.703322 0.235030 0.926765 0.193791
H4    H     H_    0.203179 0.620975 0.806522 0.154074
H5    H     H_    0.563395 0.520032 0.811819 0.155216
H6    H     H_    0.275437 0.463210 0.143162 0.172108
C25   C     C_2   0.982508 0.536869 0.476453 0.152319
C26   C     C_2   0.022302 0.471330 0.521362 -0.430260
H7    H     H_    0.954879 0.406691 0.559617 0.148872
C27   C     C_2   0.542374 0.967638 0.478986 0.081627
C28   C     C_2   0.447544 0.037817 0.524370 -0.170007
N1    N     N_R   0.801250 0.220889 0.038353 0.197149
O14   O     O_R   0.815013 0.126233 0.070581 -0.384217
O15   O     O_R   0.893379 0.258410 0.977535 -0.428756
N2    N     N_R   0.072009 0.620248 0.423508 0.209545
O16   O     O_R   0.036009 0.723051 0.412888 -0.348482
O17   O     O_R   0.185501 0.589781 0.381197 -0.422698
N3    N     N_R   0.658480 0.023626 0.425284 0.200544
O18   O     O_R   0.771546 0.992510 0.421122 -0.337001
O19   O     O_R   0.650165 0.093244 0.373885 -0.398468
C29   C     C_3   0.317595 0.986545 0.579618 -0.413158
C30   C     C_3   0.221360 0.082921 0.618957 -0.393894
C31   C     C_3   0.097740 0.023539 0.674831 -0.820943
H8    H     H_    0.048274 0.946934 0.641520 0.272041
H9    H     H_    0.121298 0.985755 0.723041 0.258030
H10   H     H_    0.030268 0.094925 0.702066 0.252447
H11   H     H_    0.266959 0.160568 0.653743 0.211623
H12   H     H_    0.193839 0.121791 0.572565 0.245987
H13   H     H_    0.268021 0.912369 0.544716 0.258129
H14   H     H_    0.337801 0.946574 0.628202 0.238536
C32   C     C_3   0.480438 0.600244 0.195973 -0.378940
C33   C     C_3   0.561910 0.703690 0.146188 -0.383927
C34   C     C_3   0.523084 0.832089 0.184122 -0.736171
H15   H     H_    0.419149 0.836046 0.189141 0.263449
H16   H     H_    0.538721 0.852679 0.244157 0.277640
H17   H     H_    0.583539 0.904504 0.146626 0.269324
H18   H     H_    0.666516 0.702801 0.141000 0.241756
H19   H     H_    0.548970 0.687821 0.085480 0.234943
H20   H     H_    0.376142 0.603134 0.204217 0.222267
H21   H     H_    0.490971 0.625423 0.256853 0.213697
C35   C     C_3   0.066460 0.602076 0.965333 -0.416341
C36   C     C_3   0.987296 0.639924 0.915278 -0.343187
C37   C     C_3   0.849456 0.660117 0.965659 -0.840364
H22   H     H_    0.798195 0.573515 0.991926 0.265893
H23   H     H_    0.852490 0.736962 0.014093 0.273162
H24   H     H_    0.793885 0.685516 0.927922 0.249861
H25   H     H_    0.035278 0.728223 0.889927 0.228722
H26   H     H_    0.980496 0.565093 0.866164 0.228631
H27   H     H_    0.012401 0.516339 0.991830 0.239247
H28   H     H_    0.070642 0.677738 0.014381 0.209862
C38   C     C_3   0.566622 0.274964 0.834337 -0.416083
C39   C     C_3   0.434071 0.198683 0.836601 -0.302754
C40   C     C_3   0.438118 0.116643 0.758480 -0.874100
H29   H     H_    0.463943 0.175164 0.708695 0.282026
H30   H     H_    0.510536 0.049561 0.746538 0.261666
H31   H     H_    0.340935 0.063193 0.762234 0.251874
H32   H     H_    0.406123 0.138108 0.885581 0.233646
H33   H     H_    0.357947 0.261471 0.847626 0.239520
H34   H     H_    0.597234 0.334223 0.785325 0.211213
H35   H     H_    0.640441 0.208172 0.816958 0.200220

loop_
_geom_bond_atom_site_label_1
_geom_bond_atom_site_label_2
_geom_bond_distance
_ccdc_geom_bond_type
C39   C40   1.525143 S    
C33   C34   1.526656 S    
C18   C19   1.402528 A    
C17   H1    1.081018 S    
C7    C10   1.400575 A    
N1    O14   1.301332 A    
O6    C5    1.273432 A    
C11   H5    1.078953 S    
C9    C10   1.411404 A    
C29   C30   1.541652 S    
C34   H16   1.111150 S    
Zn1   O1    1.964392 S    
C19   C20   1.402111 A    
C20   C21   1.421512 A    
C37   H23   1.110951 S    
C8    C23   1.393304 A    
C30   H12   1.111435 S    
O8    C5    1.272970 A    
N2    O16   1.301156 A    
C29   H13   1.112325 S    
Zn3   O8    1.916293 S    
C23   H2    1.084345 S    
C36   C37   1.527463 S    
C5    C8    1.460521 S    
C6    C7    1.473094 S    
C37   H24   1.110909 S    
C15   C21   1.420362 A    
Zn2   O12   1.925562 S    
C39   H33   1.109805 S    
C32   H21   1.107755 S    
C18   C38   1.529357 S    
C10   H4    1.079984 S    
C36   H25   1.111863 S    
N3    O18   1.301213 A    
C9    C35   1.529296 S    
C12   C14   1.423652 A    
O2    C1    1.269881 A    
O9    C6    1.288809 A    
N1    O15   1.301418 A    
C36   H26   1.112063 S    
N3    O19   1.301637 A    
C34   H15   1.110859 S    
C13   C17   1.405205 A    
C27   C28   1.365421 D    
C31   H10   1.110470 S    
O10   C3    1.273835 A    
C37   H22   1.110725 S    
C21   C24   1.429277 A    
Zn4   O2    1.926149 S    
C8    C24   1.411638 A    
C22   C23   1.394102 A    
C2    C25   1.462623 S    
C32   C33   1.535853 S    
C40   H31   1.109824 S    
C34   H17   1.110600 S    
C35   H28   1.112029 S    
C31   H9    1.110826 S    
C12   C13   1.421864 A    
Zn3   O5    1.944220 S    
C20   C22   1.415848 A    
C14   C15   1.415476 A    
C33   H18   1.111694 S    
C16   C17   1.390091 A    
C33   H19   1.110565 S    
O4    C3    1.265287 A    
Zn4   O7    1.924398 S    
C40   H30   1.110762 S    
C38   H35   1.112448 S    
C24   C32   1.535971 S    
C25   C26   1.342956 D    
C9    C13   1.425583 A    
O3    C2    1.282527 A    
C16   H6    1.079836 S    
C14   C18   1.429869 A    
C19   H3    1.081098 S    
Zn2   O1    1.933321 S    
C27   N3    1.444691 S    
Zn2   O6    1.912473 S    
C4    C27   1.463011 S    
C38   H34   1.101870 S    
C25   N2    1.445879 S    
C30   H11   1.111446 S    
C11   C12   1.397724 A    
Zn1   O3    1.917081 S    
Zn2   O4    1.951962 S    
C7    C11   1.392332 A    
Zn4   O1    1.932067 S    
Zn3   O1    1.925362 S    
C35   H27   1.112255 S    
C3    C28   1.434188 S    
C15   C16   1.405759 A    
Zn4   O11   1.940758 S    
C32   H20   1.101188 S    
C28   C29   1.535054 S    
C31   H8    1.110939 S    
O5    C4    1.275283 A    
C22   N1    1.437414 S    
O7    C6    1.288882 A    
C38   C39   1.536102 S    
O13   C2    1.278652 A    
N2    O17   1.301623 A    
C29   H14   1.111185 S    
Zn3   O13   1.936789 S    
C40   H29   1.110066 S    
C30   C31   1.526628 S    
O11   C4    1.259069 A    
Zn1   O9    1.907820 S    
O12   C1    1.264017 A    
C26   H7    1.086351 S    
Zn1   O10   1.936490 S    
C35   C36   1.538507 S    
C39   H32   1.112072 S    
C1    C26   1.436086 S    
