data_mof_unit_66391.cif
_audit_creation_date              2012-12-10T17:54:43-0500
_audit_creation_method            fapswitch 2.2
_symmetry_space_group_name_H-M    P1
_symmetry_Int_Tables_number       1
_space_group_crystal_system       triclinic
_cell_length_a                    18.805174
_cell_length_b                    18.869193
_cell_length_c                    18.836567
_cell_angle_alpha                 109.576005
_cell_angle_beta                  109.560793
_cell_angle_gamma                 109.508852
_cell_volume                      5130.51262783

loop_
_atom_site_label
_atom_site_type_symbol
_atom_type_description
_atom_site_fract_x
_atom_site_fract_y
_atom_site_fract_z
_atom_type_partial_charge
C1    C     C_R   0.119181 0.000693 0.618910 0.785463
C2    C     C_R   0.262450 0.260951 0.587330 0.100245
C3    C     C_R   0.191501 0.186934 0.506741 -0.098563
C4    C     C_R   0.184009 0.180041 0.428030 -0.200698
C5    C     C_R   0.245097 0.245862 0.427750 -0.202091
C6    C     C_R   0.314698 0.320111 0.506151 -0.097191
C7    C     C_R   0.166730 0.929234 0.697139 0.095924
C8    C     C_R   0.185227 0.001872 0.686965 -0.064378
C9    C     C_R   0.264589 0.079506 0.750322 -0.211907
C10   C     C_R   0.329039 0.079669 0.815058 -0.210842
C11   C     C_R   0.313163 0.002740 0.818164 -0.093210
C12   C     C_R   0.121252 0.118948 0.502586 0.785180
C13   C     C_R   0.229442 0.929847 0.762177 0.142330
C14   C     C_3   0.201703 0.837532 0.704648 -0.469726
C15   C     C_3   0.132784 0.837069 0.633128 -0.469857
C16   C     C_R   0.746196 0.741169 0.425799 0.125733
C17   C     C_R   0.816575 0.815561 0.502009 -0.093170
C18   C     C_R   0.821577 0.825048 0.581435 -0.210157
C19   C     C_R   0.757136 0.759713 0.581456 -0.210584
C20   C     C_R   0.685757 0.685936 0.501933 -0.088378
C21   C     C_R   0.682925 0.680263 0.425681 0.128020
C22   C     C_3   0.632510 0.624646 0.329006 -0.487152
C23   C     C_R   0.880843 0.999587 0.381284 0.799377
C24   C     C_3   0.704211 0.694831 0.329077 -0.469144
C25   C     C_R   0.830214 0.021627 0.256026 0.104543
C26   C     C_R   0.814732 0.001092 0.315845 -0.075817
C27   C     C_R   0.738692 0.992501 0.318586 -0.211587
C28   C     C_R   0.674117 0.992481 0.254136 -0.208752
C29   C     C_R   0.686773 0.004029 0.188486 -0.087402
C30   C     C_R   0.767601 0.024043 0.193889 0.142883
C31   C     C_3   0.787886 0.984355 0.125697 -0.477726
C32   C     C_3   0.856560 0.981479 0.194100 -0.470919
C33   C     C_R   0.499521 0.618235 0.619131 0.798140
C34   C     C_R   0.881616 0.881399 0.500297 0.798210
C35   C     C_R   0.381130 0.383435 0.502127 0.785216
C36   C     C_R   0.499694 0.381004 0.381224 0.804233
C37   C     C_R   0.618804 0.618667 0.500216 0.803889
C38   C     C_R   0.499905 0.118596 0.118448 0.799818
C39   C     C_R   0.380898 0.000156 0.881438 0.791766
C40   C     C_R   0.500835 0.881408 0.882191 0.801596
C41   C     C_R   0.619053 0.000280 0.118955 0.783573
C42   C     C_R   0.490551 0.751602 0.676889 0.114844
C43   C     C_R   0.502389 0.686119 0.687649 -0.132312
C44   C     C_R   0.526227 0.691805 0.769440 -0.217832
C45   C     C_R   0.275722 0.267672 0.668373 -0.174484
C46   C     C_R   0.527729 0.756235 0.835797 0.157467
C47   C     C_R   0.505353 0.815952 0.819214 -0.081224
C48   C     C_R   0.492824 0.815754 0.741836 0.085679
C49   C     C_3   0.420441 0.816469 0.677921 -0.499479
C50   C     C_3   0.417905 0.745744 0.606412 -0.427239
C51   C     C_R   0.480251 0.306638 0.234569 0.130637
C52   C     C_R   0.499116 0.313498 0.315187 -0.102250
C53   C     C_R   0.519112 0.252426 0.330846 -0.202466
C54   C     C_R   0.518603 0.187264 0.265779 -0.212216
C55   C     C_R   0.500812 0.184383 0.185688 -0.077262
C56   C     C_R   0.343088 0.343120 0.746614 -0.140990
C57   C     C_R   0.482825 0.246161 0.173559 0.121330
C58   C     C_3   0.458090 0.275420 0.109631 -0.497323
C59   C     C_3   0.455824 0.345061 0.179512 -0.458826
C60   C     C_R   0.398454 0.413141 0.745901 -0.137219
C61   C     C_R   0.388739 0.406937 0.667030 -0.169679
C62   C     C_R   0.322815 0.329839 0.586861 0.098242
Cu1   Cu    Cu3+1 0.000020 0.938200 0.438210 0.939355
Cu2   Cu    Cu3+1 0.999980 0.061800 0.561790 0.948699
Cu3   Cu    Cu3+1 0.438170 0.500030 0.438220 0.939065
Cu4   Cu    Cu3+1 0.561770 0.500000 0.561810 0.944437
Cu5   Cu    Cu3+1 0.561810 0.061820 0.000030 0.947568
Cu6   Cu    Cu3+1 0.438190 0.938280 0.000080 0.946662
H1    H     H_    0.129778 0.123808 0.366270 0.151641
H2    H     H_    0.173671 0.794083 0.727511 0.204560
H3    H     H_    0.143884 0.830454 0.577414 0.213174
H4    H     H_    0.065022 0.793481 0.614878 0.198057
H5    H     H_    0.875428 0.881814 0.642936 0.157224
H6    H     H_    0.762319 0.767402 0.642918 0.154794
H7    H     H_    0.631785 0.561800 0.307128 0.189001
H8    H     H_    0.567851 0.619906 0.299858 0.206460
H9    H     H_    0.744016 0.672047 0.306309 0.206586
H10   H     H_    0.681203 0.731317 0.300776 0.194444
H11   H     H_    0.727599 0.981807 0.367888 0.148793
H12   H     H_    0.235300 0.214754 0.672494 0.141529
H13   H     H_    0.614017 0.981811 0.254575 0.156454
H14   H     H_    0.732833 0.918870 0.071303 0.195436
H15   H     H_    0.816158 0.030365 0.105317 0.205359
H16   H     H_    0.841172 0.914241 0.179514 0.211128
H17   H     H_    0.924386 0.025759 0.213064 0.193929
H18   H     H_    0.540687 0.644286 0.780781 0.160469
H19   H     H_    0.360690 0.793635 0.683023 0.189256
H20   H     H_    0.442631 0.878944 0.677910 0.206082
H21   H     H_    0.356552 0.682076 0.569994 0.205980
H22   H     H_    0.351929 0.347471 0.808050 0.132619
H23   H     H_    0.438788 0.767464 0.565179 0.196369
H24   H     H_    0.533858 0.254248 0.392375 0.163209
H25   H     H_    0.533035 0.140268 0.278298 0.146505
H26   H     H_    0.511444 0.302650 0.096625 0.205050
H27   H     H_    0.392871 0.225731 0.050872 0.196770
H28   H     H_    0.508018 0.412423 0.206950 0.189179
H29   H     H_    0.389365 0.335861 0.160791 0.205715
H30   H     H_    0.449594 0.472315 0.806732 0.131679
H31   H     H_    0.432616 0.463494 0.669799 0.140611
H32   H     H_    0.238748 0.238222 0.365910 0.153314
H33   H     H_    0.278217 0.138551 0.747299 0.136228
H34   H     H_    0.391527 0.138935 0.861032 0.158918
H35   H     H_    0.252675 0.831179 0.690372 0.186874
O1    O     O_R   0.090180 0.947810 0.537990 -0.584817
O2    O     O_R   0.552150 0.590170 0.642370 -0.597744
O3    O     O_R   0.357600 0.409850 0.447820 -0.583964
O4    O     O_R   0.461980 0.409830 0.552180 -0.589527
O5    O     O_R   0.447790 0.409860 0.357660 -0.587291
O6    O     O_R   0.552170 0.409840 0.462020 -0.584830
O7    O     O_R   0.537960 0.590200 0.447840 -0.586462
O8    O     O_R   0.642340 0.590180 0.552210 -0.583589
O9    O     O_R   0.552220 0.142430 0.090190 -0.584718
O10   O     O_R   0.447830 0.038100 0.090230 -0.585640
O11   O     O_R   0.462030 0.052220 0.909860 -0.588709
O12   O     O_R   0.090150 0.052180 0.642350 -0.593365
O13   O     O_R   0.357640 0.947890 0.909900 -0.582944
O14   O     O_R   0.552170 0.962000 0.909870 -0.584038
O15   O     O_R   0.447780 0.857670 0.909910 -0.580662
O16   O     O_R   0.642360 0.052210 0.090200 -0.580640
O17   O     O_R   0.537970 0.947880 0.090240 -0.591627
O18   O     O_R   0.090190 0.037990 0.447830 -0.583782
O19   O     O_R   0.090170 0.142360 0.552190 -0.587009
O20   O     O_R   0.909850 0.947820 0.357650 -0.589408
O21   O     O_R   0.909820 0.052190 0.462010 -0.579718
O22   O     O_R   0.909830 0.857640 0.447810 -0.585804
O23   O     O_R   0.909810 0.962010 0.552170 -0.586967
O24   O     O_R   0.447770 0.590190 0.538000 -0.584744
C63   C     C_3   0.552253 0.757656 0.921296 -0.868610
H36   H     H_    0.559567 0.815014 0.972208 0.233811
H37   H     H_    0.501627 0.697828 0.911127 0.237875
H38   H     H_    0.615724 0.759477 0.946416 0.221456

loop_
_geom_bond_atom_site_label_1
_geom_bond_atom_site_label_2
_ccdc_geom_bond_type
C40   C47   S    
C40   O15   A    
C16   C21   A    
C36   O5    A    
C1    C8    S    
C49   H19   S    
C19   C20   A    
C22   H8    S    
Cu4   O4    S    
C58   H27   S    
C63   H36   S    
C57   C58   S    
C7    C8    A    
C53   C54   A    
C15   H4    S    
C26   C27   A    
C31   H14   S    
Cu3   O24   S    
C46   C63   S    
C28   C29   A    
Cu5   O11   S    
C27   H11   S    
C5    C6    A    
C33   O24   A    
C31   H15   S    
C6    C35   S    
C18   C19   A    
C23   C26   S    
C54   H25   S    
C3    C12   S    
Cu6   O15   S    
C46   C47   A    
C38   C55   S    
C47   C48   A    
C45   C56   A    
C8    C9    A    
C51   C57   A    
Cu4   O8    S    
C45   H12   S    
C9    C10   A    
Cu3   O5    S    
C36   C52   S    
Cu6   O10   S    
C25   C32   S    
C56   H22   S    
C40   O14   A    
C16   C24   S    
Cu2   O12   S    
C21   C22   S    
C14   H2    S    
C49   H20   S    
C61   H31   S    
C22   H7    S    
C44   H18   S    
C4    H1    S    
Cu1   O18   S    
C44   C46   A    
C2    C45   A    
C32   H16   S    
C12   O18   A    
Cu5   Cu6   S    
C33   C43   S    
C10   H34   S    
C33   O2    A    
C38   O10   A    
C16   C17   A    
C23   O20   A    
C25   C26   A    
Cu2   O21   S    
C56   C60   A    
C60   C61   A    
C43   C44   A    
C29   C30   A    
C24   H9    S    
C50   H21   S    
C31   C32   S    
C5    H32   S    
C34   O23   A    
C39   O11   A    
C53   H24   S    
C17   C18   A    
C42   C48   A    
C41   O16   A    
C11   C39   S    
Cu5   O14   S    
C1    O1    A    
C37   O7    A    
Cu1   O22   S    
Cu6   O13   S    
C24   H10   S    
C48   C49   S    
C42   C50   S    
C39   O13   A    
C18   H5    S    
Cu2   O23   S    
C55   C57   A    
C59   H29   S    
C22   C24   S    
C51   C59   S    
C17   C34   S    
Cu4   O2    S    
C38   O9    A    
C3    C4    A    
C63   H38   S    
Cu3   O3    S    
C36   O6    A    
C52   C53   A    
C25   C30   A    
C54   C55   A    
C29   C41   S    
C28   H13   S    
C19   H6    S    
C4    C5    A    
C63   H37   S    
Cu1   O20   S    
C23   O21   A    
C41   O17   A    
C15   H3    S    
C60   H30   S    
C6    C62   A    
C2    C3    A    
C58   C59   S    
C51   C52   A    
C35   O3    A    
Cu6   O17   S    
C20   C37   S    
C11   C13   A    
C14   H35   S    
C30   C31   S    
C34   O22   A    
Cu2   O19   S    
C32   H17   S    
C7    C15   S    
C59   H28   S    
Cu1   O1    S    
Cu3   Cu4   S    
Cu4   O6    S    
C58   H26   S    
C61   C62   A    
Cu3   O7    S    
C37   O8    A    
C35   O4    A    
C10   C11   A    
Cu1   Cu2   S    
Cu5   O9    S    
C7    C13   A    
C12   O19   A    
C20   C21   A    
C9    H33   S    
C49   C50   S    
C42   C43   A    
C27   C28   A    
C14   C15   S    
C1    O12   A    
C13   C14   S    
Cu5   O16   S    
C50   H23   S    
C2    C62   A    
