data_mof_unit_23768.cif
_audit_creation_date              2012-10-26T18:28:57-0400
_audit_creation_method            fapswitch 2.2
_symmetry_space_group_name_H-M    P1
_symmetry_Int_Tables_number       1
_space_group_crystal_system       triclinic
_cell_length_a                    11.784678
_cell_length_b                    12.939986
_cell_length_c                    15.832424
_cell_angle_alpha                 93.676915
_cell_angle_beta                  72.919452
_cell_angle_gamma                 99.018938
_cell_volume                      2278.90159394

loop_
_atom_site_label
_atom_site_type_symbol
_atom_type_description
_atom_site_fract_x
_atom_site_fract_y
_atom_site_fract_z
_atom_type_partial_charge
C1    C     C_R   0.519992 0.700315 0.501849 0.550033
C2    C     C_R   0.397392 0.020543 0.435103 -0.144409
C3    C     C_R   0.599990 0.871703 0.555477 -0.133947
C4    C     C_R   0.400011 0.128297 0.444523 -0.133947
C5    C     C_R   0.464015 0.863139 0.465001 -0.138971
C6    C     C_R   0.535986 0.136862 0.534998 -0.138972
C7    C     C_R   0.465224 0.970711 0.474682 0.038550
C8    C     C_R   0.534778 0.029289 0.525316 0.038551
C9    C     C_R   0.932189 0.594657 0.586012 -0.184866
C10   C     C_R   0.067811 0.405343 0.413988 -0.184867
C11   C     C_R   0.816546 0.585681 0.577187 0.030251
C12   C     C_R   0.480008 0.299685 0.498150 0.550033
C13   C     C_R   0.183453 0.414319 0.422813 0.030250
C14   C     C_R   0.864127 0.458750 0.461630 0.125031
C15   C     C_R   0.135873 0.541251 0.538370 0.125032
C16   C     C_R   0.426485 0.493774 0.668085 0.547811
C17   C     C_R   0.573515 0.506227 0.331915 0.547812
C18   C     C_R   0.982808 0.465560 0.468474 -0.008537
C19   C     C_R   0.017192 0.534440 0.531526 -0.008537
C20   C     C_R   0.382853 0.482222 0.764460 0.001713
C21   C     C_R   0.617148 0.517791 0.235542 0.001713
C22   C     C_R   0.233763 0.412562 0.896033 -0.141028
C23   C     C_R   0.361293 0.441645 0.084242 -0.139008
C24   C     C_R   0.766227 0.587485 0.103977 -0.141028
C25   C     C_R   0.268098 0.430902 0.805728 -0.143441
C26   C     C_R   0.731897 0.569125 0.194279 -0.143442
C27   C     C_R   0.463161 0.514154 0.814245 -0.131057
C28   C     C_R   0.536841 0.485866 0.185755 -0.131054
C29   C     C_R   0.433824 0.490372 0.904343 0.031872
C30   C     C_R   0.566168 0.509675 0.095664 0.031873
C31   C     C_R   0.315798 0.440741 0.945290 0.050069
C32   C     C_R   0.684191 0.559316 0.054720 0.050067
C33   C     C_R   0.518331 0.512822 0.954323 0.032224
C34   C     C_R   0.638690 0.558433 0.915772 -0.139005
C35   C     C_R   0.481658 0.487238 0.045687 0.032224
C36   C     C_R   0.169411 0.613394 0.606193 0.085683
C37   C     C_R   0.139656 0.580492 0.693753 -0.082920
C38   C     C_R   0.159697 0.651015 0.760359 -0.124164
C39   C     C_R   0.205067 0.755828 0.740561 -0.114520
C40   C     C_R   0.227315 0.790695 0.654705 -0.120062
C41   C     C_R   0.207032 0.720167 0.588168 -0.079582
C42   C     C_R   0.830591 0.386610 0.393804 0.085682
C43   C     C_R   0.792969 0.279836 0.411825 -0.079582
C44   C     C_R   0.772686 0.209312 0.345286 -0.120062
C45   C     C_R   0.280809 0.418334 0.034727 -0.137370
C46   C     C_R   0.794933 0.244183 0.259432 -0.114520
C47   C     C_R   0.840303 0.348997 0.239637 -0.124165
C48   C     C_R   0.860345 0.419516 0.306245 -0.082919
C49   C     C_R   0.719173 0.581743 0.965288 -0.137369
C50   C     C_R   0.470658 0.186567 0.493370 0.008690
C51   C     C_R   0.529343 0.813433 0.506629 0.008691
C52   C     C_R   0.602610 0.979457 0.564896 -0.144408
Cu1   Cu    Cu3+1 0.386820 0.492450 0.493500 0.938583
Cu2   Cu    Cu3+1 0.613180 0.507550 0.506500 0.938581
H1    H     H_    0.190141 0.381923 0.066894 0.102821
H2    H     H_    0.206322 0.402171 0.767954 0.118980
H3    H     H_    0.144095 0.373191 0.926917 0.102265
H4    H     H_    0.855891 0.626865 0.073097 0.102266
H5    H     H_    0.325068 0.422610 0.152996 0.098659
H6    H     H_    0.674910 0.577490 0.847023 0.098651
H7    H     H_    0.588194 0.182046 0.574420 0.110574
H8    H     H_    0.411809 0.817955 0.425579 0.110574
H9    H     H_    0.349147 0.166398 0.412008 0.119524
H10   H     H_    0.650853 0.833602 0.587992 0.119523
H11   H     H_    0.656648 0.023543 0.603502 0.103342
H12   H     H_    0.809837 0.618167 0.933125 0.102821
H13   H     H_    0.343354 0.976457 0.396497 0.103343
H14   H     H_    0.099815 0.500492 0.710180 0.094941
H15   H     H_    0.138670 0.624691 0.827464 0.111223
H16   H     H_    0.220353 0.810462 0.792126 0.110805
H17   H     H_    0.258827 0.872538 0.639955 0.121778
H18   H     H_    0.219899 0.748481 0.522690 0.100952
H19   H     H_    0.780102 0.251519 0.477302 0.100953
H20   H     H_    0.741173 0.127468 0.360033 0.121777
H21   H     H_    0.779647 0.189551 0.207865 0.110805
H22   H     H_    0.861329 0.375324 0.172534 0.111220
H23   H     H_    0.247088 0.367604 0.380588 0.120042
H24   H     H_    0.900185 0.499518 0.289821 0.094941
H25   H     H_    0.752912 0.632395 0.619413 0.120041
H26   H     H_    0.953639 0.649056 0.635748 0.102902
H27   H     H_    0.046361 0.350943 0.364252 0.102902
H28   H     H_    0.451064 0.443824 0.219937 0.111297
H29   H     H_    0.548946 0.556175 0.780056 0.111303
H30   H     H_    0.793673 0.597850 0.232054 0.118981
N1    N     N_R   0.216750 0.481110 0.483710 -0.233347
N2    N     N_R   0.783250 0.518890 0.516290 -0.233347
O1    O     O_R   0.419950 0.645670 0.495380 -0.497771
O2    O     O_R   0.580050 0.354330 0.504620 -0.497771
O3    O     O_R   0.611110 0.658410 0.506370 -0.510375
O4    O     O_R   0.388890 0.341590 0.493630 -0.510374
O5    O     O_R   0.350820 0.490050 0.621260 -0.492447
O6    O     O_R   0.649180 0.509950 0.378740 -0.492447
O7    O     O_R   0.541970 0.502800 0.632250 -0.512795
O8    O     O_R   0.458030 0.497200 0.367750 -0.512794

loop_
_geom_bond_atom_site_label_1
_geom_bond_atom_site_label_2
_ccdc_geom_bond_type
C1    O1    A    
C30   C32   A    
C21   C26   A    
C43   H19   S    
C23   C45   A    
C40   H17   S    
C27   C29   A    
C14   C18   A    
C2    C7    A    
C25   H2    S    
C22   H3    S    
C7    C8    A    
C3    H10   S    
C23   H5    S    
C4    H9    S    
C16   O7    A    
C30   C35   A    
C6    H7    S    
C12   O4    A    
C36   C37   A    
C24   C26   A    
C47   H22   S    
C38   C39   A    
C20   C25   A    
C11   N2    A    
C37   H14   S    
C29   C33   A    
C18   C19   A    
C48   H24   S    
Cu2   O7    S    
C15   C19   A    
C9    C19   A    
C22   C25   A    
Cu1   O5    S    
C1    O3    A    
C8    C52   A    
C14   C42   S    
C38   H15   S    
C34   H6    S    
C36   C41   A    
C17   O6    A    
C46   H21   S    
C44   C46   A    
C13   H23   S    
C22   C31   A    
C12   O2    A    
C28   H28   S    
C14   N2    A    
Cu2   O3    S    
C2    H13   S    
C49   H12   S    
C39   C40   A    
Cu2   N2    S    
C3    C51   A    
C6    C8    A    
Cu1   Cu2   S    
C17   C21   S    
C4    C50   A    
C9    H26   S    
C2    C4    A    
C43   C44   A    
C24   C32   A    
Cu2   O6    S    
C37   C38   A    
C1    C51   S    
C47   C48   A    
C16   C20   S    
C33   C34   A    
Cu1   O1    S    
C42   C48   A    
C6    C50   A    
C44   H20   S    
C9    C11   A    
C11   H25   S    
C41   H18   S    
C40   C41   A    
C21   C28   A    
C23   C35   A    
C42   C43   A    
C15   C36   S    
C5    C7    A    
C46   C47   A    
C34   C49   A    
C26   H30   S    
Cu1   O8    S    
C10   C13   A    
C12   C50   S    
C3    C52   A    
C20   C27   A    
C10   H27   S    
C15   N1    A    
C27   H29   S    
C29   C31   A    
Cu2   O2    S    
C10   C18   A    
C28   C30   A    
C33   C35   A    
C39   H16   S    
C5    H8    S    
C32   C49   A    
C45   H1    S    
C16   O5    A    
C24   H4    S    
C31   C45   A    
C13   N1    A    
Cu1   O4    S    
C5    C51   A    
Cu1   N1    S    
C17   O8    A    
C52   H11   S    
