data_mof_unit_48577.cif
_audit_creation_date              2012-12-11T17:36:16-0500
_audit_creation_method            fapswitch 2.2
_symmetry_space_group_name_H-M    P1
_symmetry_Int_Tables_number       1
_space_group_crystal_system       triclinic
_cell_length_a                    26.069392
_cell_length_b                    6.937338
_cell_length_c                    21.38123
_cell_angle_alpha                 90.000104
_cell_angle_beta                  96.408211
_cell_angle_gamma                 90.000408
_cell_volume                      3842.68185371

loop_
_atom_site_label
_atom_site_type_symbol
_atom_type_description
_atom_site_fract_x
_atom_site_fract_y
_atom_site_fract_z
_atom_type_partial_charge
O1    O     O_R   0.208650 0.594520 0.175450 -0.543950
O2    O     O_R   0.791350 0.405480 0.824550 -0.531387
O3    O     O_R   0.291350 0.094520 0.324550 -0.543951
O4    O     O_R   0.708650 0.905480 0.675450 -0.531388
O5    O     O_R   0.192980 0.260780 0.300160 -0.520965
O6    O     O_R   0.807020 0.739220 0.699840 -0.509729
O7    O     O_R   0.307020 0.760780 0.199840 -0.520962
O8    O     O_R   0.692980 0.239220 0.800160 -0.509743
C1    C     C_R   0.178256 0.432372 0.317663 0.716166
C2    C     C_R   0.821734 0.568094 0.682535 0.714261
C3    C     C_R   0.321743 0.932373 0.182335 0.716180
C4    C     C_R   0.678265 0.068095 0.817463 0.714291
O9    O     O_R   0.202550 0.264660 0.174420 -0.537635
O10   O     O_R   0.797450 0.735340 0.825580 -0.553183
O11   O     O_R   0.297450 0.764660 0.325580 -0.537639
O12   O     O_R   0.702550 0.235340 0.674420 -0.553205
O13   O     O_R   0.300990 0.096480 0.197920 -0.536180
O14   O     O_R   0.699010 0.903520 0.802080 -0.542605
O15   O     O_R   0.199010 0.596480 0.302080 -0.536182
O16   O     O_R   0.800990 0.403520 0.697920 -0.542600
C5    C     C_R   0.190940 0.433467 0.150810 0.742503
C6    C     C_R   0.808830 0.566188 0.849289 0.742405
C7    C     C_R   0.309057 0.933468 0.349191 0.742509
C8    C     C_R   0.691166 0.066184 0.650714 0.742417
O17   O     O_3   0.282290 0.427760 0.257860 -0.370819
O18   O     O_3   0.717710 0.572240 0.742140 -0.366392
O19   O     O_3   0.217710 0.927760 0.242140 -0.370822
O20   O     O_3   0.782290 0.072240 0.757860 -0.366340
V1    V     V_3+5 0.244010 0.152080 0.248540 1.436190
V2    V     V_3+5 0.755990 0.847920 0.751460 1.452088
V3    V     V_3+5 0.255990 0.652080 0.251460 1.436185
V4    V     V_3+5 0.744010 0.347920 0.748540 1.452024
C9    C     C_R   0.657186 0.054161 0.590625 -0.141001
C10   C     C_R   0.342867 0.940377 0.409663 -0.143168
C11   C     C_R   0.842808 0.554182 0.909380 -0.141006
C12   C     C_R   0.157129 0.440367 0.090340 -0.143182
C13   C     C_R   0.647273 0.029067 0.476941 -0.213146
C14   C     C_R   0.353029 0.923455 0.523603 -0.211748
C15   C     C_R   0.852721 0.529115 0.023064 -0.213142
C16   C     C_R   0.146962 0.423364 0.976401 -0.211775
C17   C     C_R   0.678379 0.064985 0.533280 0.380238
C18   C     C_R   0.321123 0.935253 0.466668 0.380162
C19   C     C_R   0.821614 0.565006 0.966725 0.380232
C20   C     C_R   0.178870 0.435188 0.033334 0.380199
C21   C     C_R   0.603890 0.021620 0.590482 -0.270716
C22   C     C_R   0.396862 0.946486 0.410658 -0.270590
C23   C     C_R   0.896105 0.521688 0.909524 -0.270685
C24   C     C_R   0.103134 0.446512 0.089347 -0.270594
C25   C     C_R   0.571014 0.993051 0.533273 0.063792
C26   C     C_R   0.430158 0.941218 0.468438 0.064000
C27   C     C_R   0.928982 0.493143 0.966734 0.063802
C28   C     C_R   0.069837 0.441237 0.031569 0.064014
C29   C     C_R   0.594068 0.993940 0.476040 -0.003950
C30   C     C_R   0.407112 0.928189 0.525376 -0.006144
C31   C     C_R   0.905927 0.494014 0.023967 -0.003948
C32   C     C_R   0.092880 0.428148 0.974630 -0.006216
C33   C     C_R   0.516261 0.963709 0.530909 0.013471
C34   C     C_R   0.485353 0.950129 0.471481 0.018118
C35   C     C_R   0.983736 0.463811 0.969099 0.013421
C36   C     C_R   0.014643 0.450192 0.028526 0.018109
C37   C     C_R   0.510632 0.936365 0.416943 -0.265922
C38   C     C_R   0.491689 0.939441 0.585869 -0.267678
C39   C     C_R   0.989363 0.436428 0.083064 -0.265917
C40   C     C_R   0.008307 0.439574 0.914138 -0.267537
C41   C     C_R   0.564087 0.958942 0.418341 0.400032
C42   C     C_R   0.437940 0.921216 0.583674 0.409004
C43   C     C_R   0.935909 0.459016 0.081665 0.400039
C44   C     C_R   0.062051 0.421202 0.916335 0.409032
H1    H     H_    0.411456 0.959512 0.365609 0.104720
H2    H     H_    0.589369 0.021625 0.635745 0.111299
H3    H     H_    0.088541 0.459580 0.134395 0.104724
H4    H     H_    0.910623 0.521702 0.864260 0.111246
H5    H     H_    0.665133 0.032815 0.433553 0.169468
H6    H     H_    0.334862 0.915605 0.566707 0.170299
H7    H     H_    0.834861 0.532859 0.066452 0.169472
H8    H     H_    0.165128 0.415479 0.933296 0.170264
H9    H     H_    0.489748 0.897252 0.372641 0.118267
H10   H     H_    0.513531 0.925191 0.631379 0.125989
H11   H     H_    0.010247 0.397298 0.127365 0.118272
H12   H     H_    0.986466 0.425438 0.868628 0.125929
C45   C     C_R   0.435007 0.794772 0.088279 0.377473
C46   C     C_R   0.578525 0.220655 0.926549 0.357371
C47   C     C_R   0.064989 0.294769 0.411715 0.377449
C48   C     C_R   0.921457 0.720647 0.573423 0.357357
C49   C     C_R   0.397182 0.782434 0.131096 0.350964
C50   C     C_R   0.610616 0.230718 0.877303 0.353036
C51   C     C_R   0.102816 0.282429 0.368900 0.350979
C52   C     C_R   0.889376 0.730709 0.622680 0.353172
C53   C     C_R   0.365299 0.943120 0.141812 -0.226464
C54   C     C_R   0.635332 0.061688 0.858551 -0.188211
C55   C     C_R   0.134697 0.443120 0.358183 -0.226466
C56   C     C_R   0.864662 0.561682 0.641438 -0.188215
C57   C     C_R   0.375248 0.118513 0.112899 -0.207080
C58   C     C_R   0.618629 0.884445 0.880261 -0.261707
C59   C     C_R   0.124744 0.618518 0.387089 -0.207096
C60   C     C_R   0.881360 0.384437 0.619724 -0.261692
H13   H     H_    0.352199 0.244947 0.119785 0.203631
H14   H     H_    0.636904 0.752899 0.867734 0.215194
H15   H     H_    0.147792 0.744956 0.380203 0.203641
H16   H     H_    0.863092 0.252888 0.632262 0.215206
C61   C     C_R   0.414783 0.135145 0.074425 -0.201536
C62   C     C_R   0.578148 0.874834 0.917979 -0.266645
C63   C     C_R   0.085204 0.635154 0.425556 -0.201556
C64   C     C_R   0.921831 0.374825 0.581992 -0.266892
H17   H     H_    0.421004 0.273349 0.054085 0.179164
H18   H     H_    0.562952 0.736324 0.928806 0.187242
H19   H     H_    0.078980 0.773365 0.445891 0.179180
H20   H     H_    0.937028 0.236316 0.571166 0.187293
C65   C     C_R   0.445430 0.977472 0.061776 -0.056179
C66   C     C_R   0.558836 0.042158 0.943204 -0.014996
C67   C     C_R   0.054559 0.477476 0.438207 -0.056211
C68   C     C_R   0.941139 0.542150 0.556761 -0.015159
C69   C     C_1   0.486228 0.009142 0.021446 -0.030986
C70   C     C_1   0.519499 0.028714 0.986341 -0.020008
C71   C     C_1   0.013755 0.509146 0.478529 -0.030898
C72   C     C_1   0.980479 0.528712 0.513628 -0.019919
O21   O     O_3   0.588298 0.916918 0.365269 -0.574015
C73   C     C_3   0.573131 0.047835 0.315949 0.061735
H21   H     H_    0.593949 0.186562 0.325404 0.122022
H22   H     H_    0.530950 0.076867 0.310091 0.122755
C74   C     C_3   0.587436 0.963178 0.254146 -0.280180
H23   H     H_    0.630092 0.964795 0.254371 0.190350
H24   H     H_    0.574129 0.811061 0.249769 0.210272
C75   C     C_3   0.562639 0.075850 0.197291 -0.854177
H25   H     H_    0.519899 0.065151 0.194116 0.235692
H26   H     H_    0.575368 0.014558 0.153597 0.237765
H27   H     H_    0.574139 0.229901 0.201045 0.240224
O22   O     O_3   0.415342 0.872168 0.637381 -0.576276
C76   C     C_3   0.426009 0.009104 0.686255 0.066301
H28   H     H_    0.388548 0.070925 0.696593 0.142335
H29   H     H_    0.450353 0.132976 0.674315 0.111256
C77   C     C_3   0.451445 0.907427 0.745346 -0.290361
H30   H     H_    0.428185 0.779134 0.755485 0.208196
H31   H     H_    0.490661 0.857539 0.737260 0.179860
C78   C     C_3   0.455728 0.040636 0.802469 -0.851409
H32   H     H_    0.479356 0.168826 0.794019 0.232205
H33   H     H_    0.474429 0.962543 0.844188 0.241918
H34   H     H_    0.416831 0.088302 0.812603 0.235636
O23   O     O_3   0.911697 0.416982 0.134736 -0.574016
C79   C     C_3   0.926868 0.547873 0.184062 0.061734
H35   H     H_    0.906037 0.686583 0.174628 0.122024
H36   H     H_    0.969046 0.576960 0.189906 0.122755
C80   C     C_3   0.912586 0.463146 0.245868 -0.280189
H37   H     H_    0.869932 0.464738 0.245663 0.190344
H38   H     H_    0.925899 0.311033 0.250222 0.210283
C81   C     C_3   0.937399 0.575777 0.302723 -0.854162
H39   H     H_    0.980139 0.565080 0.305881 0.235686
H40   H     H_    0.924682 0.514452 0.346420 0.237766
H41   H     H_    0.925900 0.729830 0.298987 0.240222
O24   O     O_3   0.084636 0.372079 0.862626 -0.576293
C82   C     C_3   0.074035 0.509147 0.813780 0.066474
H42   H     H_    0.111550 0.570086 0.803273 0.142562
H43   H     H_    0.049949 0.633618 0.825853 0.111067
C83   C     C_3   0.048261 0.407990 0.754767 -0.290489
H44   H     H_    0.071135 0.278642 0.744659 0.208315
H45   H     H_    0.008917 0.359783 0.762918 0.179406
C84   C     C_3   0.044318 0.540874 0.697572 -0.851340
H46   H     H_    0.021256 0.670530 0.706071 0.232173
H47   H     H_    0.025181 0.463440 0.655967 0.241878
H48   H     H_    0.083354 0.586160 0.687220 0.235715
O25   O     O_3   0.268238 0.936110 0.467246 -0.560172
C85   C     C_3   0.252271 0.128525 0.474848 0.097440
H49   H     H_    0.254707 0.211652 0.430778 0.133795
H50   H     H_    0.275797 0.202575 0.514591 0.115088
C86   C     C_3   0.196653 0.128804 0.489239 -0.713715
H51   H     H_    0.194055 0.057905 0.535343 0.215399
H52   H     H_    0.182369 0.279235 0.491357 0.180045
H53   H     H_    0.172246 0.049064 0.452032 0.244833
O26   O     O_3   0.730325 0.101909 0.531746 -0.562264
C87   C     C_3   0.737045 0.301378 0.521240 0.096504
H54   H     H_    0.742191 0.377754 0.567221 0.137669
H55   H     H_    0.704085 0.369080 0.491165 0.113134
C88   C     C_3   0.785109 0.331364 0.488156 -0.726332
H56   H     H_    0.779689 0.264920 0.440623 0.217908
H57   H     H_    0.792700 0.487931 0.483371 0.187508
H58   H     H_    0.818807 0.263737 0.515700 0.230127
O27   O     O_3   0.231755 0.436055 0.032753 -0.560171
C89   C     C_3   0.247718 0.628475 0.025145 0.097429
H59   H     H_    0.245276 0.711620 0.069211 0.133791
H60   H     H_    0.224192 0.702498 0.985397 0.115094
C90   C     C_3   0.303337 0.628772 0.010759 -0.713737
H61   H     H_    0.305941 0.557839 0.964662 0.215409
H62   H     H_    0.317616 0.779208 0.008631 0.180067
H63   H     H_    0.327744 0.549072 0.047976 0.244818
O28   O     O_3   0.769668 0.601914 0.968258 -0.562264
C91   C     C_3   0.762944 0.801384 0.978758 0.096511
H64   H     H_    0.757804 0.877751 0.932776 0.137661
H65   H     H_    0.795901 0.869096 0.008838 0.113139
C92   C     C_3   0.714876 0.831370 0.011832 -0.726353
H66   H     H_    0.720290 0.764931 0.059366 0.217917
H67   H     H_    0.707284 0.987937 0.016615 0.187510
H68   H     H_    0.681181 0.763740 0.984283 0.230109
O29   O     O_3   0.463453 0.627210 0.081110 -0.584883
C93   C     C_3   0.475096 0.584606 0.019370 0.086023
H69   H     H_    0.488952 0.433658 0.020637 0.179812
H70   H     H_    0.508921 0.666145 0.007755 0.149556
C94   C     C_3   0.429086 0.596230 0.967555 -0.365600
H71   H     H_    0.397628 0.501884 0.980146 0.195805
H72   H     H_    0.414111 0.745596 0.962065 0.199064
C95   C     C_3   0.444578 0.529727 0.904244 -0.791502
H73   H     H_    0.475660 0.623130 0.889610 0.233081
H74   H     H_    0.410761 0.538751 0.867876 0.223712
H75   H     H_    0.458216 0.377940 0.907278 0.248274
O30   O     O_3   0.566422 0.384975 0.958226 -0.596202
C96   C     C_3   0.609387 0.438165 0.001558 0.037603
H76   H     H_    0.604131 0.590495 0.015217 0.141595
H77   H     H_    0.646603 0.431923 0.980463 0.158359
C97   C     C_3   0.612645 0.317223 0.061950 -0.333556
H78   H     H_    0.575180 0.324609 0.082029 0.213466
H79   H     H_    0.620831 0.164368 0.051260 0.192942
C98   C     C_3   0.655468 0.390546 0.110638 -0.827209
H80   H     H_    0.693235 0.386080 0.091190 0.244150
H81   H     H_    0.657924 0.297788 0.153171 0.235716
H82   H     H_    0.647288 0.540816 0.124516 0.231755
O31   O     O_3   0.036551 0.127191 0.418896 -0.584880
C99   C     C_3   0.024912 0.084625 0.480641 0.085995
H83   H     H_    0.011058 0.933673 0.479388 0.179772
H84   H     H_    0.991085 0.166157 0.492252 0.149589
C100  C     C_3   0.070924 0.096288 0.532452 -0.365470
H85   H     H_    0.102361 0.001779 0.519895 0.195763
H86   H     H_    0.085933 0.245621 0.537888 0.199081
C101  C     C_3   0.055417 0.030086 0.595787 -0.791578
H87   H     H_    0.024376 0.123729 0.610402 0.233068
H88   H     H_    0.089243 0.039034 0.632145 0.223818
H89   H     H_    0.041720 0.878368 0.592801 0.248249
O32   O     O_3   0.933561 0.884972 0.541749 -0.596224
C102  C     C_3   0.890598 0.938155 0.498414 0.037601
H90   H     H_    0.895851 0.090493 0.484761 0.141620
H91   H     H_    0.853380 0.931882 0.519501 0.158325
C103  C     C_3   0.887352 0.817238 0.438017 -0.333528
H92   H     H_    0.924822 0.824641 0.417949 0.213474
H93   H     H_    0.879164 0.664377 0.448698 0.192952
C104  C     C_3   0.844537 0.890572 0.389321 -0.827222
H94   H     H_    0.806765 0.886088 0.408758 0.244135
H95   H     H_    0.842090 0.797832 0.346784 0.235714
H96   H     H_    0.852718 0.040850 0.375453 0.231756
O33   O     O_3   0.389410 0.605620 0.158584 -0.565764
C105  C     C_3   0.414517 0.601310 0.220851 0.140670
H97   H     H_    0.392569 0.500311 0.248190 0.148067
H98   H     H_    0.414449 0.743418 0.245391 0.058896
C106  C     C_3   0.469856 0.526209 0.221782 -0.309792
H99   H     H_    0.469928 0.391948 0.193413 0.227374
H100  H     H_    0.493844 0.636109 0.200963 0.211189
C107  C     C_3   0.493818 0.484249 0.288678 -0.870524
H101  H     H_    0.492218 0.613953 0.318527 0.246955
H102  H     H_    0.534880 0.443647 0.288001 0.235482
H103  H     H_    0.473012 0.364320 0.309285 0.226823
O34   O     O_3   0.618778 0.405921 0.849185 -0.567012
C108  C     C_3   0.574686 0.454670 0.806936 0.082069
H104  H     H_    0.575859 0.611683 0.797710 0.143433
H105  H     H_    0.537759 0.428865 0.827256 0.114198
C109  C     C_3   0.574614 0.350938 0.743452 -0.349709
H106  H     H_    0.612797 0.368448 0.725777 0.224436
H107  H     H_    0.567248 0.194615 0.749412 0.169152
C110  C     C_3   0.533313 0.433295 0.694453 -0.833767
H108  H     H_    0.494852 0.428828 0.712090 0.230528
H109  H     H_    0.531789 0.347384 0.650461 0.238296
H110  H     H_    0.542641 0.584976 0.683498 0.232160
O35   O     O_3   0.110590 0.105612 0.341415 -0.565764
C111  C     C_3   0.085485 0.101289 0.279148 0.140670
H111  H     H_    0.107432 0.000282 0.251813 0.148060
H112  H     H_    0.085556 0.243392 0.254605 0.058915
C112  C     C_3   0.030145 0.026195 0.278216 -0.309822
H113  H     H_    0.030072 0.891917 0.306577 0.227365
H114  H     H_    0.006159 0.136084 0.299044 0.211200
C113  C     C_3   0.006179 0.984278 0.211319 -0.870546
H115  H     H_    0.007773 0.114009 0.181482 0.246959
H116  H     H_    0.965119 0.943654 0.211997 0.235472
H117  H     H_    0.026986 0.864379 0.190699 0.226834
O36   O     O_3   0.881227 0.905901 0.650811 -0.567029
C114  C     C_3   0.925338 0.954661 0.693029 0.082210
H118  H     H_    0.924134 0.111640 0.702308 0.143403
H119  H     H_    0.962248 0.929049 0.672651 0.114273
C115  C     C_3   0.925491 0.850698 0.756485 -0.349907
H120  H     H_    0.887305 0.867811 0.774186 0.224290
H121  H     H_    0.932946 0.694461 0.750470 0.169385
C116  C     C_3   0.966758 0.933228 0.805493 -0.833367
H122  H     H_    0.005218 0.929102 0.787846 0.230441
H123  H     H_    0.968334 0.847202 0.849465 0.238228
H124  H     H_    0.957357 0.084809 0.816486 0.232158

loop_
_geom_bond_atom_site_label_1
_geom_bond_atom_site_label_2
_ccdc_geom_bond_type
O17   V3    S    
C112  C113  S    
C93   H70   S    
C110  H109  S    
O1    C5    A    
C86   H51   S    
C97   H79   S    
C51   C55   A    
O19   V1    S    
C115  C116  S    
C9    C21   A    
O26   C87   S    
O3    C7    A    
C10   C18   A    
C99   C100  S    
C56   C60   A    
C11   C23   A    
O22   C76   S    
C1    C55   S    
O25   C85   S    
C33   C34   A    
C18   O25   S    
C25   C33   A    
C78   H32   S    
C5    C12   S    
C39   H11   S    
C96   H76   S    
C94   C95   S    
O7    C3    A    
C6    C11   S    
C105  C106  S    
C108  H104  S    
C48   C68   A    
C87   H55   S    
C74   H23   S    
C36   C39   A    
C46   C66   A    
C4    C54   S    
C79   H36   S    
C14   C18   A    
C97   C98   S    
O16   V4    S    
C63   H19   S    
O4    C8    A    
C59   H15   S    
C88   H58   S    
C93   C94   S    
C87   H54   S    
C58   H14   S    
C61   C65   A    
C114  H118  S    
C81   H41   S    
C102  H91   S    
C90   H61   S    
C110  H108  S    
O1    V3    S    
O13   V1    S    
C107  H101  S    
C27   C31   A    
C103  C104  S    
O2    V4    S    
C115  H120  S    
C82   C83   S    
C92   H67   S    
C73   H21   S    
C22   H1    S    
C28   C36   A    
C69   C70   T    
C1    O15   A    
C84   H46   S    
C15   C31   A    
C52   C56   A    
C37   H9    S    
C95   H73   S    
C16   C32   A    
O2    C6    A    
C82   H42   S    
C79   C80   S    
C12   C24   A    
C10   C22   A    
C15   H7    S    
C11   C19   A    
C104  H94   S    
C66   C70   S    
C16   C20   A    
C83   H45   S    
C43   O23   S    
C19   O28   S    
C65   C69   S    
C76   C77   S    
C13   C29   A    
C34   C37   A    
C88   H57   S    
C93   H69   S    
C110  H110  S    
O15   V3    S    
C35   C36   A    
O12   C8    A    
C78   H33   S    
O33   C105  S    
O17   V1    S    
C40   H12   S    
C103  H92   S    
O10   V2    S    
C111  C112  S    
C2    C56   S    
C59   C63   A    
C54   C58   A    
C81   H40   S    
C90   H62   S    
C61   H17   S    
C42   O22   S    
C105  H98   S    
C108  H105  S    
O7    V3    S    
C38   C42   A    
O19   V3    S    
O8    V4    S    
C89   H59   S    
C112  H113  S    
C44   O24   S    
C99   H83   S    
C83   C84   S    
C111  H112  S    
C50   C54   A    
C80   C81   S    
C51   O35   S    
C100  H85   S    
C64   C68   A    
C49   C53   A    
O18   V4    S    
C77   H30   S    
C106  H99   S    
C15   C19   A    
C101  H89   S    
C33   C38   A    
C88   H56   S    
C17   O26   S    
C63   C67   A    
O4    V2    S    
C16   H8    S    
C116  H124  S    
C53   C57   A    
C106  H100  S    
C73   C74   S    
C26   C34   A    
C84   H47   S    
C92   H68   S    
C103  H93   S    
O31   C99   S    
C39   C43   A    
O5    C1    A    
C23   C27   A    
C100  H86   S    
C85   C86   S    
C3    C53   S    
C57   H13   S    
C47   O31   S    
C102  H90   S    
C14   C30   A    
O20   V4    S    
O8    C4    A    
C7    C10   S    
C102  C103  S    
C40   C44   A    
C21   C25   A    
C35   C40   A    
O9    C5    A    
C26   C30   A    
C79   H35   S    
C101  H88   S    
C104  H95   S    
C97   H78   S    
C83   H44   S    
C78   H34   S    
C113  H116  S    
O27   C89   S    
C109  C110  S    
O14   V2    S    
O18   V2    S    
C77   H31   S    
C98   H81   S    
C45   C65   A    
O32   C102  S    
C86   H53   S    
C116  H123  S    
C47   C67   A    
C62   C66   A    
C49   O33   S    
C27   C35   A    
O9    V1    S    
C24   H3    S    
C57   C61   A    
O35   C111  S    
O5    V1    S    
C114  H119  S    
C64   H20   S    
C29   C41   A    
O34   C108  S    
C75   H26   S    
C81   H39   S    
C14   H6    S    
C96   C97   S    
C52   O36   S    
C92   H66   S    
C80   H38   S    
C60   C64   A    
C13   H5    S    
C105  H97   S    
C3    O13   A    
C108  C109  S    
C50   O34   S    
C90   H63   S    
O6    V2    S    
C21   H2    S    
O36   C114  S    
C38   H10   S    
C48   C52   A    
C99   H84   S    
C111  H111  S    
C113  H117  S    
C47   C51   A    
O6    C2    A    
C20   O27   S    
C89   H60   S    
O23   C79   S    
C68   C72   S    
O20   V2    S    
O11   V3    S    
C85   H49   S    
C30   C42   A    
C109  H107  S    
C84   H48   S    
O12   V4    S    
C22   C26   A    
C8    C9    S    
C107  H103  S    
C95   H75   S    
C106  C107  S    
C9    C17   A    
O10   C6    A    
C91   C92   S    
C94   H72   S    
C80   H37   S    
C76   H28   S    
C31   C43   A    
O29   C93   S    
C85   H50   S    
C112  H114  S    
O21   C73   S    
C100  C101  S    
C46   C50   A    
O3    V1    S    
O28   C91   S    
C2    O16   A    
C77   C78   S    
C25   C29   A    
C60   H16   S    
O11   C7    A    
C32   C44   A    
C107  H102  S    
C62   H18   S    
C115  H121  S    
C82   H43   S    
C13   C17   A    
C94   H71   S    
C75   H27   S    
C104  H96   S    
C73   H22   S    
C23   H4    S    
C74   H24   S    
C89   C90   S    
C12   C20   A    
C113  H115  S    
C45   O29   S    
C98   H80   S    
C37   C41   A    
C24   C28   A    
C98   H82   S    
O30   C96   S    
C58   C62   A    
C55   C59   A    
C86   H52   S    
C48   O32   S    
C114  C115  S    
C4    O14   A    
C74   C75   S    
C41   O21   S    
O24   C82   S    
C75   H25   S    
C67   C71   S    
C71   C72   T    
C91   H64   S    
C116  H122  S    
C96   H77   S    
C91   H65   S    
C101  H87   S    
C95   H74   S    
C45   C49   A    
C28   C32   A    
C46   O30   S    
C109  H106  S    
C76   H29   S    
C87   C88   S    
