data_mof_unit_66257.cif
_audit_creation_date              2012-12-10T19:21:00-0500
_audit_creation_method            fapswitch 2.2
_symmetry_space_group_name_H-M    P1
_symmetry_Int_Tables_number       1
_space_group_crystal_system       triclinic
_cell_length_a                    14.757306
_cell_length_b                    15.997868
_cell_length_c                    16.991417
_cell_angle_alpha                 89.608937
_cell_angle_beta                  93.360004
_cell_angle_gamma                 90.006527
_cell_volume                      4004.43690218

loop_
_atom_site_label
_atom_site_type_symbol
_atom_type_description
_atom_site_fract_x
_atom_site_fract_y
_atom_site_fract_z
_atom_type_partial_charge
C1    C     C_R   0.499975 0.340824 0.499980 0.831234
C2    C     C_R   0.500025 0.659176 0.500020 0.831234
C3    C     C_R   0.500015 0.912791 0.499994 0.150898
C4    C     C_R   0.499985 0.087209 0.500006 0.150898
C5    C     C_R   0.417876 0.956349 0.501453 -0.166684
C6    C     C_R   0.582124 0.043651 0.498547 -0.166684
C7    C     C_1   0.500029 0.823340 0.499998 -0.057761
C8    C     C_1   0.499971 0.176660 0.500002 -0.057761
C9    C     C_1   0.499967 0.251704 0.499993 -0.163161
C10   C     C_1   0.500033 0.748296 0.500007 -0.163160
C11   C     C_R   0.947554 0.525377 0.432838 -0.146193
C12   C     C_R   0.052446 0.474623 0.567162 -0.146193
C13   C     C_R   0.902869 0.500014 0.500012 0.045582
C14   C     C_R   0.097131 0.499986 0.499988 0.045583
C15   C     C_R   0.956626 0.474637 0.567174 -0.150354
C16   C     C_R   0.043374 0.525363 0.432826 -0.150354
C17   C     C_1   0.802738 0.500020 0.500019 0.124350
C18   C     C_1   0.197262 0.499980 0.499980 0.124350
C19   C     C_R   0.510697 0.497499 0.651642 0.848500
C20   C     C_R   0.489303 0.502501 0.348358 0.848501
C21   C     C_R   0.515445 0.490468 0.738078 -0.163855
C22   C     C_R   0.484555 0.509534 0.261922 -0.163856
C23   C     C_R   0.436205 0.474209 0.777202 -0.211556
C24   C     C_R   0.563792 0.525801 0.222798 -0.211557
C25   C     C_R   0.439066 0.464314 0.858743 0.352861
C26   C     C_R   0.560931 0.535700 0.141258 0.352870
C27   C     C_R   0.522731 0.475400 0.902982 0.232497
C28   C     C_R   0.477267 0.524609 0.097019 0.232498
C29   C     C_R   0.602879 0.489049 0.864197 0.379832
C30   C     C_R   0.397120 0.510952 0.135804 0.379833
C31   C     C_R   0.598808 0.496483 0.781617 -0.330522
C32   C     C_R   0.401192 0.503514 0.218383 -0.330521
C33   C     C_R   0.582139 0.956411 0.498541 -0.167113
C34   C     C_R   0.417861 0.043589 0.501459 -0.167113
Cu1   Cu    Cu3+1 0.589220 0.500000 0.499980 0.983850
Cu2   Cu    Cu3+1 0.410780 0.500000 0.500020 0.983850
H1    H     H_    0.628363 0.533217 0.255766 0.195922
H2    H     H_    0.371633 0.466798 0.744235 0.195923
H3    H     H_    0.660448 0.507881 0.751615 0.172726
H4    H     H_    0.339554 0.492110 0.248385 0.172727
H5    H     H_    0.645910 0.077067 0.497418 0.143865
H6    H     H_    0.354090 0.922933 0.502582 0.143865
H7    H     H_    0.645936 0.923043 0.497409 0.143689
H8    H     H_    0.354064 0.076957 0.502591 0.143689
H9    H     H_    0.075532 0.545254 0.380148 0.136018
H10   H     H_    0.924468 0.454746 0.619852 0.136018
N1    N     N_2   0.527764 0.475432 0.986326 -0.198770
N2    N     N_2   0.472234 0.524578 0.013674 -0.198776
N3    N     N_1   0.276710 0.499980 0.499980 -0.152062
N4    N     N_1   0.723290 0.500020 0.500020 -0.152062
O1    O     O_R   0.575320 0.380310 0.499960 -0.568002
O2    O     O_R   0.424680 0.619690 0.500040 -0.568002
O3    O     O_R   0.424640 0.380310 0.500000 -0.570236
O4    O     O_R   0.575360 0.619690 0.500000 -0.570236
O5    O     O_R   0.583590 0.499240 0.613900 -0.575668
O6    O     O_R   0.416410 0.500760 0.386100 -0.575668
O7    O     O_R   0.432900 0.499240 0.613940 -0.581595
O8    O     O_R   0.567100 0.500760 0.386060 -0.581595
O9    O     O_3   0.640578 0.557205 0.107479 -0.682521
H11   H     H_    0.625827 0.582480 0.054945 0.365373
O10   O     O_3   0.359415 0.442816 0.892523 -0.682514
H12   H     H_    0.374166 0.417541 0.945057 0.365378
O11   O     O_3   0.683785 0.497051 0.908613 -0.688923
H13   H     H_    0.733456 0.506825 0.872776 0.327167
O12   O     O_3   0.316214 0.502946 0.091388 -0.688925
H14   H     H_    0.266543 0.493166 0.127224 0.327166
H15   H     H_    0.908282 0.545277 0.380167 0.140602
H16   H     H_    0.091717 0.454723 0.619832 0.140602

loop_
_geom_bond_atom_site_label_1
_geom_bond_atom_site_label_2
_ccdc_geom_bond_type
C17   N4    T    
C16   H9    S    
C7    C10   T    
C5    H6    S    
C29   O11   S    
C13   C15   A    
Cu2   O6    S    
C14   C16   A    
C19   O5    A    
C27   C29   A    
C23   H2    S    
C1    O1    A    
C11   C16   A    
C14   C18   S    
C26   C28   A    
N1    N2    D    
Cu2   O2    S    
C12   C15   A    
C13   C17   S    
C20   O6    A    
C5    C34   A    
C21   C31   A    
Cu1   N4    S    
C28   C30   A    
C24   H1    S    
C12   C14   A    
C34   H8    S    
O9    H11   S    
C29   C31   A    
C6    C33   A    
C25   O10   S    
C23   C25   A    
C19   O7    A    
Cu1   O4    S    
C30   C32   A    
C11   C13   A    
C2    O2    A    
Cu1   O8    S    
C19   C21   S    
C20   C22   S    
Cu2   O7    S    
C3    C7    S    
C32   H4    S    
C4    C34   A    
Cu1   O1    S    
O10   H12   S    
C22   C24   A    
C30   O12   S    
C25   C27   A    
C3    C33   A    
Cu1   O5    S    
O11   H13   S    
C2    C10   S    
C22   C32   A    
C1    C9    S    
C11   H15   S    
C4    C6    A    
O12   H14   S    
C2    O4    A    
C27   N1    S    
C4    C8    S    
C31   H3    S    
C1    O3    A    
C28   N2    S    
C26   O9    S    
Cu2   O3    S    
C15   H10   S    
C20   O8    A    
C21   C23   A    
C12   H16   S    
Cu2   N3    S    
Cu1   Cu2   S    
C18   N3    T    
C24   C26   A    
C8    C9    T    
C3    C5    A    
C6    H5    S    
C33   H7    S    
