data_mof_unit_40064.cif
_audit_creation_date              2012-12-10T17:09:28-0500
_audit_creation_method            fapswitch 2.2
_symmetry_space_group_name_H-M    P1
_symmetry_Int_Tables_number       1
_space_group_crystal_system       triclinic
_cell_length_a                    10.494813
_cell_length_b                    10.678178
_cell_length_c                    10.098153
_cell_angle_alpha                 88.858901
_cell_angle_beta                  88.828785
_cell_angle_gamma                 90.487066
_cell_volume                      1131.14865384

loop_
_atom_site_label
_atom_site_type_symbol
_atom_type_description
_atom_site_fract_x
_atom_site_fract_y
_atom_site_fract_z
_atom_type_partial_charge
C1    C     C_R   0.493073 0.262806 0.501383 0.925669
C2    C     C_3   0.963895 0.483045 0.375330 -0.135563
C3    C     C_3   0.043659 0.388465 0.454973 -0.193352
C4    C     C_3   0.122443 0.498375 0.503987 0.036062
C5    C     C_2   0.443304 0.933083 0.401295 -0.179129
C6    C     C_2   0.503720 0.869753 0.495941 -0.309595
C7    C     C_2   0.450640 0.068136 0.395759 -0.180680
C8    C     C_2   0.469717 0.131426 0.506319 -0.336827
C9    C     C_2   0.537928 0.592899 0.924633 -0.196191
C10   C     C_2   0.561033 0.582156 0.070609 -0.016164
C11   C     C_R   0.257594 0.499484 0.501334 0.850953
C12   C     C_R   0.500314 0.737267 0.498843 0.926554
C13   C     C_R   0.742483 0.498577 0.498973 0.862993
C14   C     C_3   0.036684 0.511912 0.626956 -0.146250
C15   C     C_3   0.954917 0.402094 0.577555 -0.179667
C16   C     C_3   0.877812 0.496956 0.497847 0.037882
C17   C     C_3   0.956822 0.606675 0.547381 -0.172902
C18   C     C_3   0.045287 0.593070 0.424710 -0.166911
H1    H     H_    0.913293 0.324276 0.639372 0.133806
H2    H     H_    0.464566 0.087057 0.604003 0.162656
H3    H     H_    0.557632 0.682702 0.875961 0.162261
H4    H     H_    0.423963 0.456589 0.109081 0.169811
H5    H     H_    0.070529 0.523636 0.729463 0.138029
H6    H     H_    0.916665 0.695573 0.584400 0.130626
H7    H     H_    0.087898 0.671241 0.364245 0.124346
H8    H     H_    0.931943 0.467765 0.273091 0.134361
H9    H     H_    0.083940 0.299682 0.417788 0.130504
H10   H     H_    0.392433 0.885396 0.324111 0.153478
H11   H     H_    0.558404 0.914137 0.572281 0.140763
H12   H     H_    0.443665 0.114734 0.299548 0.179780
N1    N     N_2   0.501360 0.501330 0.852150 -0.143850
N2    N     N_2   0.501400 0.501360 0.147810 -0.210302
O1    O     O_R   0.499980 0.319060 0.613040 -0.614433
O2    O     O_R   0.500020 0.319100 0.386900 -0.610958
O3    O     O_R   0.313930 0.499950 0.613050 -0.628516
O4    O     O_R   0.313970 0.499990 0.386910 -0.627976
O5    O     O_R   0.499980 0.680900 0.613100 -0.624619
O6    O     O_R   0.500020 0.680940 0.386960 -0.605514
O7    O     O_R   0.686030 0.500010 0.613090 -0.621001
O8    O     O_R   0.686070 0.500050 0.386950 -0.610592
Zn1   Zn    Zn3+2 0.499970 0.499970 0.650990 0.935953
Zn2   Zn    Zn3+2 0.500030 0.500030 0.349010 0.939476
C19   C     C_R   0.511630 0.375323 0.899403 0.290642
C20   C     C_R   0.403784 0.296834 0.899892 -0.164361
C21   C     C_R   0.413284 0.170957 0.938832 -0.183786
C22   C     C_R   0.530905 0.122298 0.975473 -0.126360
C23   C     C_R   0.639415 0.199220 0.972669 -0.163662
C24   C     C_R   0.630357 0.325126 0.933470 -0.149330
H13   H     H_    0.312619 0.333544 0.870145 0.125411
H14   H     H_    0.329637 0.110934 0.939816 0.131910
H15   H     H_    0.538054 0.024734 0.004764 0.124796
H16   H     H_    0.730666 0.160999 0.999789 0.129869
H17   H     H_    0.715314 0.383416 0.929029 0.117119
C25   C     C_R   0.655077 0.669946 0.123001 0.218151
C26   C     C_R   0.783967 0.637139 0.124113 -0.138462
C27   C     C_R   0.876119 0.724894 0.159739 -0.159097
C28   C     C_R   0.839954 0.845751 0.194425 -0.127879
C29   C     C_R   0.711924 0.880067 0.189632 -0.155259
C30   C     C_R   0.620045 0.793118 0.151273 -0.136567
H18   H     H_    0.813070 0.544743 0.094080 0.103712
H19   H     H_    0.975699 0.699672 0.158558 0.124618
H20   H     H_    0.911352 0.913425 0.222444 0.122162
H21   H     H_    0.684216 0.974518 0.213466 0.142611
H22   H     H_    0.521837 0.821579 0.142602 0.108792

loop_
_geom_bond_atom_site_label_1
_geom_bond_atom_site_label_2
_ccdc_geom_bond_type
C20   H13   S    
C14   H5    S    
C19   C20   A    
C23   H16   S    
C27   H19   S    
C2    C18   S    
C5    H10   S    
C2    C16   S    
C19   C24   A    
N1    C19   S    
O4    Zn2   S    
C23   C24   A    
O2    Zn2   S    
C26   C27   A    
C4    C18   S    
C11   O3    A    
C17   C18   S    
C28   C29   A    
O1    Zn1   S    
C28   H20   S    
O7    Zn1   S    
C7    H12   S    
C22   C23   A    
C26   H18   S    
C27   C28   A    
C4    C11   S    
C15   H1    S    
C14   C17   S    
C9    H3    S    
C30   H22   S    
C8    H2    S    
C18   H7    S    
H4    N2    S    
C21   H14   S    
O5    Zn1   S    
O3    Zn1   S    
C5    C6    D    
C6    C12   S    
C3    H9    S    
C11   O4    A    
C1    O2    A    
O6    Zn2   S    
C2    C3    S    
C25   C30   A    
C4    C14   S    
C24   H17   S    
C10   C25   S    
C13   O7    A    
C17   H6    S    
C15   C16   S    
C9    N1    D    
C1    O1    A    
C3    C4    S    
C1    C8    S    
C12   O6    A    
C10   N2    D    
C7    C8    D    
C6    H11   S    
C3    C15   S    
C20   C21   A    
C2    H8    S    
C9    C10   S    
C13   C16   S    
C12   O5    A    
C5    C7    S    
N2    Zn2   S    
C25   C26   A    
C16   C17   S    
C13   O8    A    
C14   C15   S    
N1    Zn1   S    
C29   C30   A    
C21   C22   A    
C22   H15   S    
C29   H21   S    
O8    Zn2   S    
