data_mof_unit_21637.cif
_audit_creation_date              2012-12-10T18:23:14-0500
_audit_creation_method            fapswitch 2.2
_symmetry_space_group_name_H-M    P1
_symmetry_Int_Tables_number       1
_space_group_crystal_system       triclinic
_cell_length_a                    27.759991
_cell_length_b                    10.907313
_cell_length_c                    9.533122
_cell_angle_alpha                 87.48036
_cell_angle_beta                  90.580627
_cell_angle_gamma                 89.787298
_cell_volume                      2883.54087264

loop_
_atom_site_label
_atom_site_type_symbol
_atom_type_description
_atom_site_fract_x
_atom_site_fract_y
_atom_site_fract_z
_atom_type_partial_charge
C1    C     C_R   0.499697 0.259124 0.502380 0.860307
C2    C     C_R   0.499038 0.740417 0.497133 0.927834
C3    C     C_R   0.101026 0.464973 0.468485 -0.172212
C4    C     C_R   0.897926 0.475430 0.434074 -0.179550
C5    C     C_R   0.126583 0.353175 0.464742 -0.152125
C6    C     C_R   0.873592 0.586505 0.396386 -0.190779
C7    C     C_R   0.101059 0.242867 0.490624 0.302748
C8    C     C_R   0.901268 0.690906 0.355583 0.341732
C9    C     C_R   0.126083 0.575199 0.486940 -0.142861
C10   C     C_R   0.871416 0.368926 0.469635 -0.167045
C11   C     C_R   0.353211 0.501396 0.496030 -0.356480
C12   C     C_R   0.645340 0.502442 0.497318 -0.359747
C13   C     C_R   0.973062 0.356044 0.456291 -0.075430
C14   C     C_R   0.025201 0.578211 0.456172 -0.005102
C15   C     C_R   0.975356 0.579831 0.422890 -0.026027
C16   C     C_R   0.024408 0.353997 0.469529 -0.059074
C17   C     C_R   0.948892 0.470394 0.438242 -0.059211
C18   C     C_R   0.050147 0.465579 0.461167 -0.061078
C19   C     C_R   0.944636 0.248402 0.448524 0.442445
C20   C     C_R   0.048938 0.682259 0.506750 0.405085
C21   C     C_R   0.894949 0.253898 0.471874 0.332821
C22   C     C_R   0.099717 0.679240 0.525771 0.298809
C23   C     C_R   0.407230 0.503089 0.499467 0.850512
C24   C     C_R   0.592211 0.506158 0.500011 0.952039
C25   C     C_R   0.051043 0.247052 0.510419 0.449549
C26   C     C_R   0.951727 0.685835 0.364655 0.452924
C27   C     C_3   0.527714 0.029940 0.602355 0.286394
C28   C     C_3   0.467591 0.965663 0.394665 0.330994
C29   C     C_3   0.543174 0.960422 0.472359 0.247150
C30   C     C_3   0.452327 0.037200 0.523022 0.283303
C31   C     C_3   0.498023 0.877785 0.491778 -0.295199
C32   C     C_3   0.497574 0.121010 0.505284 -0.367999
C33   C     C_3   0.482570 0.949149 0.620026 0.357643
C34   C     C_3   0.512695 0.047359 0.374152 0.291189
C35   C     C_3   0.507676 0.607866 0.043789 0.361712
C36   C     C_3   0.492715 0.391757 0.956559 0.365126
C37   C     C_3   0.466777 0.570303 0.945834 0.416180
C38   C     C_3   0.533241 0.429411 0.054589 0.403397
C39   C     C_3   0.541105 0.537558 0.949268 0.184843
C40   C     C_3   0.458989 0.461333 0.051250 0.214522
C41   C     C_R   0.177079 0.357517 0.450196 0.685273
C42   C     C_R   0.822567 0.586225 0.396539 0.710307
C43   C     C_R   0.176787 0.573466 0.480089 0.730596
C44   C     C_R   0.821944 0.381678 0.495120 0.683018
C45   C     C_R   0.279199 0.513107 0.354125 0.304860
C46   C     C_R   0.716502 0.403738 0.406508 0.321523
C47   C     C_R   0.328561 0.536444 0.369871 0.411599
C48   C     C_R   0.667200 0.402979 0.434217 0.354263
C49   C     C_R   0.325152 0.464174 0.613853 0.204297
C50   C     C_R   0.674426 0.595003 0.550817 0.267603
C51   C     C_R   0.275638 0.440705 0.598009 0.403043
C52   C     C_R   0.724855 0.585675 0.543774 0.413018
C53   C     C_R   0.252654 0.466535 0.468339 0.018822
C54   C     C_R   0.746216 0.492897 0.465655 -0.012366
Cu1   Cu    Cu3+1 0.500010 0.499990 0.643150 1.088405
Cu2   Cu    Cu3+1 0.499990 0.500010 0.356850 1.086991
N1    N     N_R   0.200897 0.465974 0.461477 -0.421257
N2    N     N_R   0.798031 0.486863 0.451863 -0.438008
N3    N     N_3   0.500040 0.499970 0.858290 -0.282430
N4    N     N_3   0.499960 0.500030 0.141710 -0.289980
O1    O     O_R   0.500020 0.316850 0.620870 -0.564854
O2    O     O_R   0.499980 0.683150 0.379130 -0.562891
O3    O     O_R   0.500000 0.316860 0.379090 -0.493244
O4    O     O_R   0.500000 0.683140 0.620910 -0.493780
O5    O     O_R   0.430270 0.500020 0.620880 -0.540440
O6    O     O_R   0.569730 0.499980 0.379120 -0.555712
O7    O     O_R   0.430250 0.500030 0.379090 -0.512619
O8    O     O_R   0.569750 0.499970 0.620910 -0.526857
O9    O     O_2   0.202307 0.255733 0.422724 -0.473796
O10   O     O_2   0.797394 0.683439 0.342787 -0.414934
O11   O     O_2   0.797964 0.291350 0.565418 -0.451646
O12   O     O_2   0.202070 0.678349 0.487961 -0.438312
Cl1   Cl    Cl    0.347385 0.467316 0.786593 -0.538015
Cl2   Cl    Cl    0.649152 0.724836 0.623896 -0.514687
O13   O     O_3   0.555860 0.072398 0.714246 -0.601778
C55   C     C_3   0.584605 0.976124 0.772320 -0.202427
H1    H     H_    0.616129 0.961205 0.704722 0.233144
H2    H     H_    0.564149 0.889347 0.790439 0.231594
H3    H     H_    0.598639 0.003451 0.875619 0.145484
O14   O     O_3   0.438502 0.917652 0.288065 -0.579954
C56   C     C_3   0.411156 0.011866 0.219695 -0.311106
H4    H     H_    0.398837 0.979805 0.116697 0.149548
H5    H     H_    0.432084 0.097350 0.198358 0.211737
H6    H     H_    0.378349 0.030349 0.280802 0.214093
O15   O     O_3   0.467649 0.879375 0.740017 -0.507485
C57   C     C_3   0.456381 0.955359 0.849497 -0.233581
H7    H     H_    0.419811 0.995064 0.832841 0.173583
H8    H     H_    0.484159 0.025845 0.864822 0.191878
H9    H     H_    0.455944 0.898817 0.948343 0.199676
O16   O     O_3   0.526802 0.115268 0.251733 -0.514420
C58   C     C_3   0.534837 0.038568 0.139739 -0.242899
H10   H     H_    0.507654 0.965342 0.131756 0.209956
H11   H     H_    0.571621 0.999779 0.145390 0.125258
H12   H     H_    0.532999 0.095498 0.041154 0.226027
O17   O     O_3   0.432958 0.649625 0.877390 -0.493755
C59   C     C_3   0.400437 0.693671 0.975620 -0.084087
H13   H     H_    0.419029 0.726681 0.070590 0.167828
H14   H     H_    0.373680 0.622448 0.005191 0.271818
H15   H     H_    0.380174 0.772177 0.925903 0.167833
O18   O     O_3   0.566824 0.349320 0.123557 -0.487939
C60   C     C_3   0.600463 0.305838 0.027609 -0.126059
H16   H     H_    0.630265 0.372482 0.013288 0.199148
H17   H     H_    0.584139 0.284711 0.924311 0.169671
H18   H     H_    0.616548 0.219497 0.072954 0.184041
O19   O     O_3   0.513858 0.726119 0.094560 -0.572491
C61   C     C_3   0.562076 0.741586 0.138635 -0.179549
H19   H     H_    0.582613 0.789840 0.053781 0.173902
H20   H     H_    0.580906 0.655078 0.173343 0.193531
H21   H     H_    0.562356 0.799654 0.230132 0.200687
O20   O     O_3   0.489153 0.272323 0.907374 -0.571582
C62   C     C_3   0.441846 0.251169 0.860807 -0.182203
H22   H     H_    0.423671 0.334644 0.817909 0.228938
H23   H     H_    0.420599 0.205764 0.946023 0.177568
H24   H     H_    0.443240 0.189745 0.772627 0.176673
Cl3   Cl    Cl    0.597605 0.589400 0.884710 -0.592689
Cl4   Cl    Cl    0.404666 0.397472 0.120746 -0.558789
O21   O     O_3   0.247816 0.408986 0.713674 -0.512237
C63   C     C_3   0.253657 0.282369 0.747058 -0.124963
H25   H     H_    0.228004 0.255515 0.831295 0.205679
H26   H     H_    0.290531 0.260682 0.787355 0.182071
H27   H     H_    0.245519 0.225599 0.655917 0.181458
O22   O     O_3   0.753212 0.672306 0.606085 -0.495103
C64   C     C_3   0.766277 0.626587 0.741837 -0.154564
H28   H     H_    0.788383 0.541506 0.737750 0.136731
H29   H     H_    0.733983 0.609566 0.808159 0.189889
H30   H     H_    0.788544 0.696465 0.792927 0.208042
Cl5   Cl    Cl    0.130484 0.100859 0.526122 -0.486916
Cl6   Cl    Cl    0.875587 0.831896 0.292918 -0.408287
O23   O     O_3   0.640555 0.299870 0.409282 -0.523415
C65   C     C_3   0.636661 0.232500 0.538767 -0.249473
H31   H     H_    0.629955 0.289537 0.630905 0.153898
H32   H     H_    0.669550 0.175934 0.559219 0.197816
H33   H     H_    0.605131 0.172759 0.532415 0.206686
O24   O     O_3   0.351165 0.607374 0.267076 -0.526771
C66   C     C_3   0.347540 0.731243 0.303675 -0.168541
H34   H     H_    0.310354 0.757351 0.334398 0.187558
H35   H     H_    0.356349 0.791089 0.211052 0.175720
H36   H     H_    0.373451 0.750483 0.389584 0.186559
Cl7   Cl    Cl    0.739720 0.291919 0.296737 -0.486455
Cl8   Cl    Cl    0.250039 0.551876 0.192924 -0.456990
Cl9   Cl    Cl    0.863092 0.113627 0.480354 -0.367607
Cl10  Cl    Cl    0.128163 0.789518 0.629241 -0.456642
O25   O     O_3   0.963982 0.138126 0.409816 -0.524908
C67   C     C_3   0.969562 0.142269 0.262818 -0.202350
H37   H     H_    0.996068 0.213363 0.228271 0.123896
H38   H     H_    0.934425 0.158219 0.207506 0.185724
H39   H     H_    0.983641 0.052214 0.231817 0.210228
O26   O     O_3   0.020585 0.767380 0.572314 -0.595141
C68   C     C_3   0.031244 0.888728 0.527153 0.033974
H40   H     H_    0.052371 0.897458 0.428278 0.165155
H41   H     H_    0.050314 0.933911 0.613070 0.239296
H42   H     H_    0.996686 0.937886 0.508965 0.255883
O27   O     O_3   0.029869 0.151827 0.586930 -0.561111
C69   C     C_3   0.026207 0.184457 0.728043 -0.261153
H43   H     H_    0.001475 0.263973 0.738448 0.156652
H44   H     H_    0.062215 0.204519 0.773988 0.179803
H45   H     H_    0.010901 0.105698 0.789984 0.195300
O28   O     O_3   0.977801 0.783730 0.308682 -0.570788
C70   C     C_3   0.992625 0.756111 0.172510 -0.293153
H46   H     H_    0.961197 0.738434 0.102870 0.189550
H47   H     H_    0.017921 0.676677 0.175114 0.159855
H48   H     H_    0.012088 0.836526 0.126228 0.198100
O29   O     O_3   0.586768 0.896861 0.451344 -0.574249
C71   C     C_3   0.622530 0.971164 0.388093 -0.190509
H49   H     H_    0.609862 0.061278 0.343837 0.198970
H50   H     H_    0.638531 0.921072 0.301032 0.180599
H51   H     H_    0.651800 0.984924 0.465523 0.215095
O30   O     O_3   0.404062 0.064784 0.556278 -0.559562
C72   C     C_3   0.390649 0.182399 0.502013 -0.299396
H52   H     H_    0.350865 0.185784 0.490251 0.199569
H53   H     H_    0.406172 0.206344 0.397456 0.177264
H54   H     H_    0.400897 0.252666 0.576712 0.145306

loop_
_geom_bond_atom_site_label_1
_geom_bond_atom_site_label_2
_ccdc_geom_bond_type
C66   H36   S    
Cu1   Cu2   S    
C43   O12   S    
C40   N4    S    
Cu1   N3    S    
C27   C29   S    
C8    C26   A    
C72   H52   S    
C14   C18   A    
C11   C47   A    
C62   H22   S    
C55   H3    S    
C12   C48   A    
C36   N3    S    
C42   N2    A    
C56   H4    S    
O16   C58   S    
C64   H28   S    
O15   C57   S    
C27   C33   S    
C70   H48   S    
C71   H50   S    
C60   H16   S    
C44   O11   S    
C11   C49   A    
C71   H49   S    
C35   C37   S    
C55   H2    S    
C37   C40   S    
C68   H41   S    
C38   C39   S    
C57   H8    S    
C9    C22   A    
C64   H29   S    
C41   N1    A    
C61   H19   S    
O25   C67   S    
C59   H15   S    
C42   O10   S    
C37   O17   S    
C3    C18   A    
C15   C17   A    
C23   O7    A    
C29   O29   S    
O20   C62   S    
C15   C26   A    
C33   O15   S    
Cu1   O5    S    
C63   H25   S    
C52   O22   S    
C8    Cl6   S    
O17   C59   S    
C44   N2    A    
C49   C51   A    
C59   H14   S    
C50   C52   A    
C70   H47   S    
C65   H32   S    
C69   H44   S    
C24   O6    A    
C28   C34   S    
C60   H17   S    
Cu1   O4    S    
C72   H53   S    
C46   C54   A    
C67   H39   S    
C27   O13   S    
C1    O3    A    
C56   H5    S    
C52   C54   A    
Cu1   O8    S    
C45   C47   A    
C10   C21   A    
C46   C48   A    
C9    C43   A    
C13   C19   A    
C25   O27   S    
C14   C20   A    
C66   H34   S    
O26   C68   S    
C2    O4    A    
C69   H45   S    
C67   H38   S    
C68   H42   S    
C58   H10   S    
C5    C7    A    
C53   N1    S    
C57   H7    S    
O14   C56   S    
C64   H30   S    
C6    C8    A    
C24   O8    A    
C10   C44   A    
C29   C34   S    
C45   Cl8   S    
Cu2   N4    S    
C30   O30   S    
C35   N4    S    
C51   C53   A    
C63   H27   S    
C32   C34   S    
C35   C39   S    
O13   C55   S    
C34   O16   S    
C35   O19   S    
C58   H11   S    
C70   H46   S    
C36   C40   S    
C39   N3    S    
C59   H13   S    
C22   Cl10  S    
C31   C33   S    
Cu2   O3    S    
C62   H23   S    
C55   H1    S    
C3    C9    A    
C69   H43   S    
C37   N3    S    
C38   N4    S    
C4    C17   A    
C4    C6    A    
O30   C72   S    
C20   C22   A    
C60   H18   S    
C39   Cl3   S    
C47   O24   S    
C36   O20   S    
O28   C70   S    
C72   H54   S    
Cu2   O2    S    
C48   O23   S    
C65   H33   S    
C4    C10   A    
C36   C38   S    
C56   H6    S    
C41   O9    S    
O23   C65   S    
C54   N2    S    
C16   C25   A    
C66   H35   S    
C5    C41   A    
C19   O25   S    
C30   C33   S    
C19   C21   A    
C27   C32   S    
C28   C31   S    
C67   H37   S    
C3    C5    A    
C57   H9    S    
C1    O1    A    
C12   C50   A    
O24   C66   S    
Cu2   O7    S    
O19   C61   S    
C12   C24   S    
C7    C25   A    
C13   C17   A    
C23   O5    A    
C50   Cl2   S    
C65   H31   S    
O22   C64   S    
C21   Cl9   S    
C28   C30   S    
C29   C31   S    
C68   H40   S    
C58   H12   S    
C30   C32   S    
C38   O18   S    
C20   O26   S    
C40   Cl4   S    
C61   H20   S    
Cu2   O6    S    
Cu1   O1    S    
C11   C23   S    
O18   C60   S    
C51   O21   S    
C26   O28   S    
C62   H24   S    
C49   Cl1   S    
C1    C32   S    
C28   O14   S    
C63   H26   S    
O29   C71   S    
C43   N1    A    
C45   C53   A    
C16   C18   A    
C6    C42   A    
C13   C16   A    
C14   C15   A    
C2    C31   S    
C71   H51   S    
C7    Cl5   S    
O27   C69   S    
O21   C63   S    
C2    O2    A    
C46   Cl7   S    
C61   H21   S    
