data_mof_unit_55744.cif
_audit_creation_date              2013-03-05T16:37:41-0500
_audit_creation_method            fapswitch 2.2
_symmetry_space_group_name_H-M    P1
_symmetry_Int_Tables_number       1
_space_group_crystal_system       triclinic
_cell_length_a                    19.026819
_cell_length_b                    18.617057
_cell_length_c                    18.981998
_cell_angle_alpha                 109.266356
_cell_angle_beta                  110.327039
_cell_angle_gamma                 109.065677
_cell_volume                      5159.75676415

loop_
_atom_site_label
_atom_site_type_symbol
_atom_site_description
_atom_site_fract_x
_atom_site_fract_y
_atom_site_fract_z
_atom_type_partial_charge
O1    O     O_R   0.408360 0.551710 0.460090 -0.639150
O2    O     O_R   0.408390 0.448280 0.356670 -0.553744
C1    C     C_R   0.378847 0.499435 0.379975 0.948229
O3    O     O_R   0.591600 0.643340 0.551710 -0.664118
O4    O     O_R   0.591630 0.539900 0.448290 -0.532397
C2    C     C_R   0.620364 0.621350 0.500911 0.900972
Zn1   Zn    Zn3+2 0.499980 0.569070 0.569050 1.131054
Zn2   Zn    Zn3+2 0.500020 0.430930 0.430950 1.233189
O5    O     O_R   0.591610 0.551720 0.643330 -0.563673
O6    O     O_R   0.591640 0.448290 0.539910 -0.582076
O7    O     O_R   0.408370 0.460100 0.551710 -0.612198
O8    O     O_R   0.408400 0.356660 0.448290 -0.578951
C3    C     C_R   0.617154 0.497636 0.619940 0.889684
C4    C     C_R   0.376344 0.379716 0.496161 0.896211
H1    H     H_    0.855658 0.900210 0.914915 0.235776
C5    C     C_R   0.749694 0.843956 0.786495 0.447497
C6    C     C_R   0.722306 0.807681 0.697900 -0.135233
H2    H     H_    0.661533 0.798126 0.653620 0.178566
C7    C     C_R   0.774777 0.787271 0.667506 -0.011576
C8    C     C_R   0.857244 0.808755 0.728597 -0.239630
H3    H     H_    0.899774 0.796997 0.706474 0.232519
C9    C     C_R   0.888727 0.853602 0.817971 0.250981
C10   C     C_R   0.833432 0.868888 0.846295 -0.290296
C11   C     C_R   0.818846 0.824224 0.572852 -0.152620
H4    H     H_    0.874432 0.882704 0.631989 0.190284
C12   C     C_R   0.812002 0.810739 0.494259 -0.123404
C13   C     C_R   0.738320 0.739648 0.415407 -0.103258
C14   C     C_R   0.672261 0.678637 0.416879 0.449032
C15   C     C_R   0.682827 0.690034 0.498782 -0.186412
C16   C     C_R   0.755877 0.765496 0.577512 0.014424
C17   C     C_R   0.697824 0.772427 0.294371 -0.013053
H5    H     H_    0.692610 0.826037 0.332793 0.180846
C18   C     C_R   0.666126 0.744031 0.206180 -0.093286
H6    H     H_    0.640215 0.777915 0.177937 0.175495
C19   C     C_R   0.663154 0.668784 0.153498 0.023360
H7    H     H_    0.635018 0.644430 0.084458 0.208265
C20   C     C_R   0.696434 0.624819 0.189809 0.051149
H8    H     H_    0.693088 0.565917 0.148652 0.204414
C21   C     C_R   0.731850 0.655339 0.278687 -0.062392
H9    H     H_    0.753038 0.618023 0.305276 0.205594
C22   C     C_R   0.729456 0.727137 0.330893 0.065020
H10   H     H_    0.547240 0.841576 0.639505 0.281830
C23   C     C_R   0.414583 0.740233 0.557531 0.405421
C24   C     C_R   0.349714 0.673460 0.472109 0.253534
C25   C     C_R   0.368612 0.660406 0.404624 -0.189491
C26   C     C_R   0.446891 0.722376 0.420135 0.481338
C27   C     C_R   0.511394 0.786069 0.505621 -0.220455
H11   H     H_    0.573374 0.831025 0.519021 0.209770
C28   C     C_R   0.496119 0.793146 0.573734 -0.213198
C29   C     C_R   0.247637 0.573606 0.255547 -0.075475
H12   H     H_    0.247598 0.633923 0.262572 0.198498
C30   C     C_R   0.182492 0.493522 0.182131 -0.069440
C31   C     C_R   0.177332 0.413409 0.174789 -0.011273
C32   C     C_R   0.245559 0.417009 0.238423 0.256959
C33   C     C_R   0.311101 0.498313 0.312894 -0.161309
C34   C     C_R   0.310106 0.576547 0.322396 0.116016
C35   C     C_R   0.027049 0.293970 0.120221 0.336031
C36   C     C_R   0.964252 0.204240 0.068311 -0.109143
H13   H     H_    0.909243 0.178718 0.076096 0.208970
C37   C     C_R   0.974170 0.145631 0.009680 -0.093700
H14   H     H_    0.927409 0.076228 0.972966 0.165682
C38   C     C_R   0.044283 0.176230 0.998308 0.037464
H15   H     H_    0.051633 0.130370 0.952798 0.217642
C39   C     C_R   0.105397 0.265506 0.046280 -0.038009
H16   H     H_    0.160956 0.287074 0.038482 0.235275
C40   C     C_R   0.099226 0.325315 0.109126 -0.034468
H17   H     H_    0.146278 0.565123 0.559862 0.203417
C41   C     C_R   0.246684 0.533897 0.600379 -0.020572
H18   H     H_    0.286195 0.592687 0.663417 0.227681
C42   C     C_R   0.273839 0.472924 0.579692 -0.019175
H19   H     H_    0.332818 0.484704 0.629655 0.231753
C43   C     C_R   0.220076 0.392548 0.501070 -0.060265
C44   C     C_R   0.137823 0.375208 0.441017 0.232099
C45   C     C_R   0.111794 0.438626 0.463085 0.308870
C46   C     C_R   0.166516 0.517136 0.542529 -0.128091
C47   C     C_R   0.176331 0.251095 0.495013 -0.110722
H20   H     H_    0.121051 0.254543 0.496689 0.186568
C48   C     C_R   0.185871 0.179976 0.493650 -0.069196
C49   C     C_R   0.256297 0.172767 0.489806 0.102959
C50   C     C_R   0.317484 0.240284 0.491221 -0.090183
H21   H     H_    0.372464 0.236048 0.489576 0.167599
C51   C     C_R   0.308854 0.312859 0.494458 -0.025678
C52   C     C_R   0.236730 0.318588 0.495883 0.097549
C53   C     C_R   0.285858 0.076657 0.546183 -0.178403
H22   H     H_    0.295209 0.120157 0.607212 0.213684
C54   C     C_R   0.297867 0.005422 0.538384 -0.248811
H23   H     H_    0.313945 0.994686 0.593118 0.243889
C55   C     C_R   0.289727 0.949016 0.462022 0.301916
C56   C     C_R   0.270192 0.965779 0.391702 0.297980
C57   C     C_R   0.262372 0.041452 0.401937 0.180530
C58   C     C_R   0.265100 0.093825 0.477695 -0.107501
C59   C     C_R   0.781350 0.574371 0.642859 -0.214558
H24   H     H_    0.730333 0.577659 0.598434 0.160762
C60   C     C_R   0.855990 0.601338 0.640314 0.289609
C61   C     C_R   0.925513 0.604401 0.699108 -0.211960
H25   H     H_    0.981684 0.622762 0.691970 0.242128
C62   C     C_R   0.926823 0.591187 0.768521 0.396978
C63   C     C_R   0.843383 0.551364 0.766465 -0.044150
C64   C     C_R   0.771441 0.543593 0.699514 -0.011442
C65   C     C_R   0.688479 0.505762 0.688328 -0.144145
C66   C     C_R   0.672405 0.482075 0.745399 0.225597
C67   C     C_R   0.739106 0.490725 0.814206 0.277883
C68   C     C_R   0.821892 0.516194 0.820300 -0.258440
O9    O     O_R   0.051730 0.908360 0.460070 -0.642375
O10   O     O_R   0.948280 0.908380 0.356650 -0.562466
C69   C     C_R   0.000263 0.878979 0.380273 0.910732
O11   O     O_R   0.960110 0.908350 0.551690 -0.579209
O12   O     O_R   0.856660 0.908370 0.448270 -0.646816
C70   C     C_R   0.879845 0.877007 0.496680 0.874745
Zn3   Zn    Zn3+2 0.069080 0.999960 0.569030 1.097332
Zn4   Zn    Zn3+2 0.930920 0.999990 0.430930 1.116771
O13   O     O_R   0.051720 0.091580 0.643310 -0.613904
O14   O     O_R   0.948270 0.091600 0.539890 -0.598746
O15   O     O_R   0.143340 0.091590 0.551680 -0.649133
O16   O     O_R   0.039890 0.091610 0.448270 -0.565047
C71   C     C_R   0.002765 0.122513 0.620348 0.877667
C72   C     C_R   0.119917 0.115449 0.495612 0.902209
O17   O     O_R   0.051710 0.460040 0.908380 -0.516938
O18   O     O_R   0.948270 0.356620 0.908410 -0.601691
C73   C     C_R   0.000174 0.379393 0.880581 0.958461
O19   O     O_R   0.143330 0.551680 0.091590 -0.595787
O20   O     O_R   0.039890 0.448260 0.091620 -0.615398
C74   C     C_R   0.118901 0.496918 0.117533 0.933073
Zn5   Zn    Zn3+2 0.069060 0.569020 0.999970 1.152728
Zn6   Zn    Zn3+2 0.930920 0.430910 0.000010 1.164454
O21   O     O_R   0.051700 0.643310 0.091570 -0.609144
O22   O     O_R   0.948260 0.539890 0.091600 -0.575594
O23   O     O_R   0.960080 0.551670 0.908360 -0.563828
O24   O     O_R   0.856640 0.448250 0.908390 -0.558827
C75   C     C_R   0.996722 0.620777 0.115469 0.901239
C76   C     C_R   0.881401 0.502585 0.880326 0.936475
H26   H     H_    0.077117 0.698285 0.598486 0.246103
C77   C     C_R   0.121314 0.786970 0.555069 0.446909
C78   C     C_R   0.108366 0.798868 0.483808 -0.141309
H27   H     H_    0.155113 0.858195 0.492962 0.194944
C79   C     C_R   0.034702 0.736495 0.401588 -0.105103
C80   C     C_R   0.978040 0.655252 0.389078 0.202000
C81   C     C_R   0.993834 0.641211 0.460832 0.240658
C82   C     C_R   0.065716 0.707595 0.543033 -0.233105
C83   C     C_R   0.024807 0.691725 0.260545 -0.047234
H28   H     H_    0.039888 0.642468 0.268585 0.186675
C84   C     C_R   0.000111 0.689819 0.181916 -0.072350
C85   C     C_R   0.983105 0.754527 0.169807 -0.011756
C86   C     C_R   0.996536 0.824515 0.241158 0.286553
C87   C     C_R   0.008156 0.817952 0.316177 -0.216777
C88   C     C_R   0.023875 0.751273 0.326586 0.075560
C89   C     C_R   0.987227 0.762567 0.042743 -0.038050
H29   H     H_    0.055671 0.785126 0.076059 0.233979
C90   C     C_R   0.947785 0.755533 0.961861 -0.055006
H30   H     H_    0.985066 0.771263 0.932002 0.246189
C91   C     C_R   0.860108 0.727747 0.918429 -0.324845
H31   H     H_    0.830928 0.719267 0.854130 0.190363
C92   C     C_R   0.810559 0.711426 0.957163 0.251616
C93   C     C_R   0.851105 0.720616 0.040519 0.368774
C94   C     C_R   0.939174 0.742556 0.081536 -0.076235
H32   H     H_    0.378462 0.280242 0.777354 0.240470
C95   C     C_R   0.276924 0.221865 0.798860 -0.213496
H33   H     H_    0.302855 0.183022 0.817495 0.224959
C96   C     C_R   0.202516 0.217572 0.799969 0.378887
C97   C     C_R   0.168555 0.267564 0.772660 -0.150051
C98   C     C_R   0.214007 0.326130 0.751207 0.317422
C99   C     C_R   0.291253 0.331341 0.754447 0.258144
C100  C     C_R   0.320137 0.277329 0.775870 -0.275693
C101  C     C_R   0.083961 0.319339 0.831422 0.451671
C102  C     C_R   0.002991 0.312802 0.817153 -0.129326
C103  C     C_R   0.925060 0.243950 0.740071 0.164624
C104  C     C_R   0.927822 0.183225 0.677115 -0.093581
H34   H     H_    0.867805 0.129596 0.618390 0.161418
C105  C     C_R   0.005933 0.189854 0.688492 -0.098440
C106  C     C_R   0.085017 0.257568 0.765271 0.033058
C107  C     C_R   0.787060 0.166778 0.734221 0.288549
C108  C     C_R   0.695577 0.128772 0.688739 0.181939
C109  C     C_R   0.657527 0.166842 0.645038 0.224806
C110  C     C_R   0.708510 0.230252 0.632595 0.097002
C111  C     C_R   0.797814 0.260564 0.668167 0.235371
C112  C     C_R   0.837498 0.230182 0.720753 -0.270662
S1    S     S_3+6 0.399369 0.754264 0.646707 0.109267
O25   O     O_2   0.307327 0.729540 0.621616 -0.232510
O26   O     O_2   0.422332 0.696649 0.678398 -0.309167
O27   O     O_3   0.464804 0.859590 0.726732 -0.436374
H35   H     H_    0.462353 0.859920 0.778133 0.409473
N1    N     N_R   0.266580 0.615387 0.453925 0.239079
O28   O     O_R   0.207796 0.638505 0.442161 -0.276839
O29   O     O_R   0.244190 0.534005 0.431514 -0.404107
S2    S     S_3+6 0.463164 0.730852 0.336003 0.074878
O30   O     O_2   0.438215 0.795315 0.320696 -0.217109
O31   O     O_2   0.557214 0.765393 0.364328 -0.314374
O32   O     O_3   0.403553 0.634789 0.242189 -0.533100
H36   H     H_    0.415061 0.648980 0.200049 0.403493
N2    N     N_R   0.244734 0.337156 0.230381 0.207961
O33   O     O_R   0.269225 0.299409 0.180405 -0.328109
O34   O     O_R   0.236266 0.312328 0.284788 -0.312573
S3    S     S_3+6 0.678902 0.857318 0.822601 0.069275
O35   O     O_2   0.656281 0.921692 0.804302 -0.227889
O36   O     O_2   0.597982 0.770103 0.774411 -0.215031
O37   O     O_3   0.724699 0.893579 0.929735 -0.517511
H37   H     H_    0.678703 0.893352 0.943017 0.411249
N3    N     N_R   0.017803 0.350333 0.185384 0.229577
O38   O     O_R   0.941348 0.331227 0.174743 -0.280843
O39   O     O_R   0.085073 0.415923 0.258873 -0.317966
N4    N     N_R   0.080719 0.293004 0.359975 0.218102
O40   O     O_R   0.111856 0.252571 0.321148 -0.283809
O41   O     O_R   0.997425 0.254865 0.327047 -0.280834
N5    N     N_R   0.030574 0.425169 0.405274 0.267957
O42   O     O_R   0.960761 0.375792 0.400915 -0.238915
O43   O     O_R   0.029813 0.479899 0.377066 -0.248494
S4    S     S_3+6 0.308853 0.861625 0.460431 0.102914
O44   O     O_2   0.224871 0.776384 0.402155 -0.265815
O45   O     O_2   0.369410 0.857802 0.427358 -0.173092
O46   O     O_3   0.351826 0.874268 0.560309 -0.476900
H38   H     H_    0.408663 0.928678 0.595208 0.414841
S5    S     S_3+6 0.256572 0.894923 0.291719 0.117159
O47   O     O_2   0.211954 0.800456 0.268006 -0.282511
O48   O     O_2   0.203693 0.904207 0.218908 -0.267277
O49   O     O_3   0.354784 0.922904 0.302814 -0.404793
H39   H     H_    0.343651 0.880206 0.246867 0.397006
N6    N     N_R   0.258684 0.069084 0.338985 0.252594
O50   O     O_R   0.322089 0.087763 0.323792 -0.263047
O51   O     O_R   0.198281 0.085941 0.304806 -0.241210
N7    N     N_R   0.585837 0.445710 0.730613 0.233261
O52   O     O_R   0.552391 0.495817 0.745314 -0.237074
O53   O     O_R   0.543506 0.364465 0.710304 -0.276377
N8    N     N_R   0.862634 0.630110 0.580250 0.223005
O54   O     O_R   0.794433 0.598642 0.506297 -0.357941
O55   O     O_R   0.935368 0.693946 0.602693 -0.394499
S6    S     S_3+6 0.040071 0.638858 0.848412 0.076222
O56   O     O_2   0.062045 0.567066 0.838332 -0.196439
O57   O     O_2   0.097635 0.701473 0.832764 -0.246163
O58   O     O_3   0.069083 0.697406 0.952325 -0.568638
H40   H     H_    0.130182 0.713680 0.986708 0.381474
S7    S     S_3+6 0.715020 0.469372 0.891526 0.095532
O59   O     O_2   0.643720 0.485890 0.894778 -0.181576
O60   O     O_2   0.687015 0.374697 0.865309 -0.220725
O61   O     O_3   0.801455 0.533585 0.992059 -0.580696
H41   H     H_    0.784777 0.509793 0.026901 0.418789
S8    S     S_3+6 0.203291 0.874364 0.660323 0.083208
O62   O     O_2   0.288973 0.881560 0.676521 -0.191063
O63   O     O_2   0.206457 0.958534 0.668082 -0.326510
O64   O     O_3   0.183052 0.856951 0.734452 -0.482761
H42   H     H_    0.229694 0.910065 0.790950 0.415144
N9    N     N_R   0.908581 0.585548 0.303353 0.225179
O65   O     O_R   0.858787 0.601404 0.251201 -0.404240
O66   O     O_R   0.901924 0.508449 0.273312 -0.232115
N10   N     N_R   0.935929 0.561788 0.452236 0.289601
O67   O     O_R   0.962864 0.538201 0.509064 -0.349648
O68   O     O_R   0.853847 0.518814 0.394785 -0.237683
N11   N     N_R   0.003814 0.904177 0.240517 0.241213
O69   O     O_R   0.957065 0.903166 0.170997 -0.298567
O70   O     O_R   0.062669 0.979871 0.309587 -0.373422
N12   N     N_R   0.977310 0.886133 0.879579 0.208928
O71   O     O_R   0.010236 0.938851 0.961670 -0.335591
O72   O     O_R   0.026978 0.866560 0.853771 -0.312487
N13   N     N_R   0.720179 0.685292 0.910748 0.246762
O73   O     O_R   0.688022 0.685978 0.838434 -0.326485
O74   O     O_R   0.667815 0.655175 0.936259 -0.252828
N14   N     N_R   0.806114 0.715039 0.086892 0.223254
O75   O     O_R   0.807752 0.667668 0.123965 -0.403676
O76   O     O_R   0.780442 0.771435 0.107772 -0.338829
N15   N     N_R   0.161203 0.160482 0.826517 0.238575
O77   O     O_R   0.116302 0.177020 0.861308 -0.393631
O78   O     O_R   0.173277 0.094463 0.821456 -0.316768
S9    S     S_3+6 0.175170 0.391668 0.718511 0.069901
O79   O     O_2   0.230274 0.485400 0.790991 -0.153399
O80   O     O_2   0.182950 0.386930 0.641713 -0.379497
O81   O     O_3   0.071432 0.359527 0.689695 -0.517266
H43   H     H_    0.055716 0.391946 0.660630 0.429265
N16   N     N_R   0.341836 0.391293 0.736639 0.240750
O82   O     O_R   0.368655 0.474634 0.779587 -0.265011
O83   O     O_R   0.376288 0.366090 0.692038 -0.363814
S10   S     S_3+6 0.182635 0.403227 0.931725 0.065281
O84   O     O_2   0.166957 0.410678 0.005057 -0.389998
O85   O     O_2   0.255984 0.384644 0.945927 -0.267459
O86   O     O_3   0.212560 0.499888 0.934046 -0.445890
H44   H     H_    0.257731 0.544574 0.995226 0.384737
S11   S     S_3+6 0.839421 0.131486 0.803366 0.063078
O87   O     O_2   0.850417 0.059431 0.751772 -0.321966
O88   O     O_2   0.927319 0.204534 0.877044 -0.312781
O89   O     O_3   0.781911 0.096081 0.846735 -0.426044
H45   H     H_    0.801511 0.058205 0.863702 0.388605
S12   S     S_3+6 0.628691 0.024590 0.671850 0.129792
O90   O     O_2   0.605874 0.037570 0.741615 -0.120662
O91   O     O_2   0.547026 0.972011 0.585148 -0.249352
O92   O     O_3   0.678908 0.965422 0.673190 -0.524457
H46   H     H_    0.693960 0.961762 0.627606 0.348863
S13   S     S_3+6 0.545215 0.133900 0.601628 0.144230
O93   O     O_2   0.494808 0.058676 0.510095 -0.192634
O94   O     O_2   0.512908 0.106327 0.655389 -0.243256
O95   O     O_3   0.527201 0.215696 0.599384 -0.458956
H47   H     H_    0.463560 0.189305 0.570227 0.371647
N17   N     N_R   0.667055 0.255496 0.574379 0.319789
O96   O     O_R   0.665342 0.328106 0.604540 -0.314202
O97   O     O_R   0.624818 0.202419 0.491019 -0.245058
S14   S     S_3+6 0.858319 0.328071 0.638474 0.070989
O98   O     O_2   0.944779 0.398327 0.717012 -0.289105
O99   O     O_2   0.871347 0.271706 0.572258 -0.242890
O100  O     O_3   0.810082 0.376996 0.596467 -0.475896
H48   H     H_    0.848757 0.409334 0.580520 0.401135
S15   S     S_3+6 0.576717 0.588611 0.316135 0.077808
O101  O     O_2   0.557689 0.606807 0.242258 -0.276852
O102  O     O_2   0.587228 0.508929 0.292064 -0.236805
O103  O     O_3   0.490370 0.566886 0.327061 -0.555947
H49   H     H_    0.441444 0.519602 0.268218 0.408657

loop_
_geom_bond_atom_site_label_1
_geom_bond_atom_site_label_2
_geom_bond_distance
_ccdc_geom_bond_type
C53   C54   1.387381 A    
C18   C19   1.396464 A    
C107  C108  1.422674 A    
Zn2   O6    2.026563 S    
N2    O33   1.300778 A    
C35   N3    1.441266 S    
C61   H25   1.081654 S    
O16   C72   1.291394 A    
C105  C106  1.414970 A    
C59   C60   1.367166 A    
C101  C106  1.406883 A    
S11   O87   1.503705 D    
S12   O92   1.678129 S    
O13   C71   1.274068 A    
C35   C40   1.424538 A    
C33   C34   1.414663 A    
S4    O45   1.501144 D    
S9    O81   1.677940 S    
O9    C69   1.274852 A    
C62   C63   1.496856 A    
S2    O30   1.502172 D    
C21   C22   1.402779 A    
C93   N14   1.429758 S    
C31   C32   1.396078 A    
O12   C70   1.273044 A    
C41   C46   1.388924 A    
Zn1   O7    2.027995 S    
C12   C13   1.407154 A    
C102  C103  1.412750 A    
C69   C87   1.455971 S    
N5    O43   1.299769 A    
C65   C66   1.385252 A    
C14   C15   1.428196 A    
C19   C20   1.397740 A    
C20   H8    1.082289 S    
C47   C48   1.387191 A    
N17   O96   1.298910 A    
S14   O100  1.680711 S    
O1    C1    1.283785 A    
C90   C91   1.389069 A    
N13   O73   1.300739 A    
C50   H21   1.084679 S    
C30   C74   1.428944 S    
C54   C55   1.400375 A    
S2    O31   1.502137 D    
O21   C75   1.282420 A    
C11   C16   1.385758 A    
C36   C37   1.394232 A    
C63   C68   1.482268 A    
C99   N16   1.435116 S    
N10   O67   1.301776 A    
S13   O93   1.502995 D    
C37   C38   1.391197 A    
N9    O65   1.299494 A    
C44   C45   1.419315 A    
O5    C3    1.273478 A    
C110  C111  1.409471 A    
C96   N15   1.443736 S    
O19   Zn5   2.021581 S    
C38   C39   1.395248 A    
C5    S3    1.758852 S    
C89   H29   1.080504 S    
O1    Zn1   2.026563 S    
N1    O28   1.300185 A    
C1    C33   1.451842 S    
C98   S9    1.786081 S    
O46   H38   0.989044 S    
C95   H33   1.082630 S    
C7    C8    1.409425 A    
C25   C34   1.470431 S    
S8    O63   1.503560 D    
C5    C6    1.402689 A    
S1    O26   1.500893 D    
N14   O76   1.301128 A    
C71   C105  1.440427 S    
S4    O46   1.679612 S    
C29   C30   1.386646 A    
C91   H31   1.080567 S    
C17   C18   1.397091 A    
N16   O83   1.300347 A    
N3    O38   1.301482 A    
C53   C58   1.395758 A    
C15   C16   1.426396 A    
C89   C94   1.394005 A    
O81   H43   0.990523 S    
Zn3   O15   2.033288 S    
N6    O51   1.300858 A    
C49   C58   1.485079 S    
Zn5   O23   2.028415 S    
O14   C71   1.291796 A    
C80   N9    1.438904 S    
C55   C56   1.422425 A    
S1    O27   1.681665 S    
H1    C10   1.081885 S    
C62   S6    1.822803 S    
O10   Zn4   2.027454 S    
C95   C96   1.399673 A    
C109  C110  1.409051 A    
O11   C70   1.292653 A    
S10   O86   1.680877 S    
C101  C102  1.423894 A    
C103  C104  1.378338 A    
C67   C68   1.438271 A    
S15   O102  1.503128 D    
N4    O41   1.300099 A    
O3    Zn1   2.045317 S    
C47   C52   1.389081 A    
C14   S15   1.802759 S    
N7    O52   1.300934 A    
O58   H40   0.990707 S    
C73   C102  1.446592 S    
C87   C88   1.425769 A    
C56   S5    1.786625 S    
Zn3   O13   2.027581 S    
C47   H20   1.085114 S    
N11   O70   1.299441 A    
O64   H42   0.990527 S    
C83   H28   1.086458 S    
C20   C21   1.396647 A    
O2    Zn2   2.022997 S    
O20   C74   1.274788 A    
C84   C85   1.412260 A    
S6    O56   1.499891 D    
O92   H46   0.990647 S    
S4    O44   1.500738 D    
C43   C52   1.491046 S    
C66   C67   1.385115 A    
S11   O89   1.679964 S    
C18   H6    1.082206 S    
C11   H4    1.086448 S    
H32   C100  1.083159 S    
N8    O54   1.301051 A    
C27   C28   1.395393 A    
S8    O62   1.500714 D    
C45   C46   1.398175 A    
C83   C88   1.382747 A    
C104  H34   1.086166 S    
N13   O74   1.300353 A    
C54   H23   1.081271 S    
C41   H18   1.080793 S    
S2    O32   1.681041 S    
S9    O80   1.492784 D    
N4    O40   1.299777 A    
C29   H12   1.086521 S    
N12   O71   1.301802 A    
O103  H49   0.991194 S    
C44   N4    1.444963 S    
C57   N6    1.438214 S    
C29   C34   1.374658 A    
C104  C105  1.382131 A    
C95   C100  1.387331 A    
C37   H14   1.081987 S    
N9    O66   1.300916 A    
C19   H7    1.082363 S    
C39   C40   1.408142 A    
C107  C112  1.417464 A    
H26   C82   1.082299 S    
C23   C24   1.405321 A    
S14   O98   1.497711 D    
C111  C112  1.419292 A    
C61   C62   1.411482 A    
Zn6   O24   2.021666 S    
C42   C43   1.406564 A    
C77   C78   1.393314 A    
C13   C22   1.481911 S    
C85   C94   1.488182 S    
C96   C97   1.425134 A    
S5    O49   1.681026 S    
S15   O103  1.662448 S    
Zn2   O8    2.045317 S    
S3    O37   1.682038 S    
N14   O75   1.298548 A    
C48   C72   1.447894 S    
C38   H15   1.081661 S    
S3    O36   1.500610 D    
C6    H2    1.080237 S    
Zn4   O14   2.031129 S    
O7    C4    1.280314 A    
O17   Zn5   2.020863 S    
C30   C31   1.418159 A    
C53   H22   1.083087 S    
O18   C73   1.292597 A    
C31   C40   1.491189 S    
C12   C70   1.439224 S    
C93   C94   1.420374 A    
C108  S12   1.782679 S    
C79   C80   1.423426 A    
S1    O25   1.501625 D    
O18   Zn6   2.038425 S    
C50   C51   1.397649 A    
O100  H48   0.990540 S    
N6    O50   1.301275 A    
O8    C4    1.296402 A    
S3    O35   1.500009 D    
C5    C10   1.398246 A    
S6    O57   1.505681 D    
S7    O60   1.503863 D    
C110  N17   1.429502 S    
C67   S7    1.804286 S    
C111  S14   1.787584 S    
O11   Zn3   2.039887 S    
S10   O85   1.501879 D    
O3    C2    1.284299 A    
H17   C46   1.083247 S    
O61   H41   0.990764 S    
C8    C9    1.402331 A    
C55   S4    1.772669 S    
C57   C58   1.418136 A    
N15   O77   1.300160 A    
O23   C76   1.261422 A    
C24   N1    1.430795 S    
S7    O59   1.502326 D    
C42   H19   1.081381 S    
C81   N10   1.441669 S    
C108  C109  1.421457 A    
C9    C10   1.401630 A    
Zn5   O21   2.038554 S    
C99   C100  1.397889 A    
C80   C81   1.419751 A    
C32   C33   1.405200 A    
Zn1   O5    2.022997 S    
C26   S2    1.774557 S    
C101  S10   1.796554 S    
C26   C27   1.393303 A    
C23   S1    1.765051 S    
C60   N8    1.435880 S    
N2    O34   1.299309 A    
C17   C22   1.407539 A    
N1    O29   1.298097 A    
C89   C90   1.392880 A    
C8    H3    1.081783 S    
O89   H45   0.989067 S    
C9    N12   1.439261 S    
C17   H5    1.082800 S    
C23   C28   1.393515 A    
C24   C25   1.414564 A    
C11   C12   1.379193 A    
S12   O91   1.499231 D    
O37   H37   0.990492 S    
C27   H11   1.078054 S    
O6    C3    1.289460 A    
O4    Zn2   2.027995 S    
C78   C79   1.403448 A    
N16   O82   1.300522 A    
N8    O55   1.300320 A    
C77   C82   1.393918 A    
S9    O79   1.501804 D    
C83   C84   1.384420 A    
S13   O95   1.676854 S    
S6    O58   1.677824 S    
O10   C69   1.298646 A    
C78   H27   1.079539 S    
C103  C112  1.486729 S    
N12   O72   1.301814 A    
O12   Zn4   2.033037 S    
C97   C106  1.488394 S    
N7    O53   1.299505 A    
C86   C87   1.416092 A    
O95   H47   0.990074 S    
S11   O88   1.495443 D    
C3    C65   1.435994 S    
N3    O39   1.299849 A    
O2    C1    1.289622 A    
C36   H13   1.082559 S    
O22   C75   1.294422 A    
C92   N13   1.444993 S    
S12   O90   1.502462 D    
S13   O94   1.502706 D    
N15   O78   1.301743 A    
C98   C99   1.418962 A    
C64   C65   1.405322 A    
C97   C98   1.422741 A    
O9    Zn3   2.031045 S    
C48   C49   1.413455 A    
C66   N7    1.440488 S    
C35   C36   1.407466 A    
O4    C2    1.294387 A    
C45   N5    1.429178 S    
O20   Zn6   2.028287 S    
C43   C44   1.428485 A    
C39   H16   1.082253 S    
O24   C76   1.321984 A    
C59   H24   1.077619 S    
C6    C7    1.406159 A    
N10   O68   1.301192 A    
C32   N2    1.437694 S    
S7    O61   1.674853 S    
N17   O97   1.300756 A    
C91   C92   1.401286 A    
O49   H39   0.990532 S    
C60   C61   1.371727 A    
C75   C84   1.437590 S    
O17   C73   1.284540 A    
O19   C74   1.295651 A    
O15   C72   1.280768 A    
C107  S11   1.798656 S    
C81   C82   1.404675 A    
S5    O48   1.502507 D    
H10   C28   1.076210 S    
C49   C50   1.391410 A    
C21   H9    1.083003 S    
C25   C26   1.408767 A    
C2    C15   1.457340 S    
C109  S13   1.791250 S    
N5    O42   1.300775 A    
C59   C64   1.413272 A    
S14   O99   1.502814 D    
C63   C64   1.431934 A    
S15   O101  1.501090 D    
C86   N11   1.448363 S    
C13   C14   1.408331 A    
Zn6   O22   2.020950 S    
C41   C42   1.392713 A    
C4    C51   1.449022 S    
S10   O84   1.494633 D    
O32   H36   0.990422 S    
Zn4   O16   2.039970 S    
C51   C52   1.419442 A    
C56   C57   1.421632 A    
C90   H30   1.078550 S    
C7    C16   1.494252 S    
C68   C76   1.458108 S    
C77   S8    1.761694 S    
S8    O64   1.682044 S    
C79   C88   1.495580 S    
O27   H35   0.990968 S    
C85   C86   1.405288 A    
N11   O69   1.300049 A    
S5    O47   1.501006 D    
C92   C93   1.419520 A    
O86   H44   0.990609 S    
