data_mof_unit_25212.cif
_audit_creation_date              2012-12-11T16:24:16-0500
_audit_creation_method            fapswitch 2.2
_symmetry_space_group_name_H-M    P1
_symmetry_Int_Tables_number       1
_space_group_crystal_system       triclinic
_cell_length_a                    14.75087
_cell_length_b                    14.763359
_cell_length_c                    33.28213
_cell_angle_alpha                 96.049824
_cell_angle_beta                  96.169386
_cell_angle_gamma                 61.156842
_cell_volume                      6300.06396457

loop_
_atom_site_label
_atom_site_type_symbol
_atom_type_description
_atom_site_fract_x
_atom_site_fract_y
_atom_site_fract_z
_atom_type_partial_charge
C1    C     C_R   0.390837 0.700177 0.446309 0.574994
C2    C     C_R   0.329929 0.348282 0.308704 0.039565
C3    C     C_R   0.412244 0.265665 0.328258 -0.104008
C4    C     C_R   0.432267 0.274534 0.369993 -0.118953
C5    C     C_R   0.393481 0.252565 0.165916 -0.106438
C6    C     C_R   0.384581 0.233970 0.124110 -0.121953
C7    C     C_R   0.209792 0.378456 0.121716 -0.106805
C8    C     C_R   0.218913 0.396779 0.163572 -0.085813
C9    C     C_R   0.309549 0.331813 0.185766 0.042592
C10   C     C_1   0.313984 0.340672 0.229070 -0.004563
C11   C     C_1   0.319459 0.344877 0.265412 -0.005958
C12   C     C_R   0.405883 0.386386 0.433975 0.542737
C13   C     C_R   0.291196 0.294348 0.101803 0.020670
C14   C     C_R   0.757376 0.372789 0.410367 0.021055
C15   C     C_R   0.790479 0.434675 0.393854 -0.129552
C16   C     C_R   0.821052 0.413261 0.354344 -0.114928
C17   C     C_R   0.819307 0.329460 0.330687 0.040094
C18   C     C_R   0.795825 0.261802 0.348477 -0.092438
C19   C     C_R   0.764941 0.283388 0.388051 -0.113180
C20   C     C_R   0.838908 0.309842 0.205393 0.346132
C21   C     C_R   0.831426 0.319565 0.286869 0.351820
C22   C     C_R   0.838117 0.389097 0.142862 -0.114650
C23   C     C_R   0.700844 0.409934 0.447543 0.545418
C24   C     C_R   0.866976 0.378460 0.103496 -0.126282
C25   C     C_R   0.910770 0.197174 0.099434 -0.125726
C26   C     C_R   0.881834 0.207850 0.138906 -0.112090
C27   C     C_R   0.849972 0.302755 0.161578 0.032371
C28   C     C_R   0.908253 0.281276 0.082166 0.019003
C29   C     C_R   0.373727 0.752600 0.408820 0.000086
C30   C     C_R   0.274084 0.822169 0.392603 0.177607
C31   C     C_R   0.262015 0.853398 0.352833 0.192138
C32   C     C_R   0.349738 0.813510 0.329527 0.010639
C33   C     C_R   0.448551 0.752231 0.347568 -0.161112
C34   C     C_R   0.393453 0.701141 0.561307 0.550083
C35   C     C_R   0.460401 0.722486 0.386610 -0.173954
C36   C     C_R   0.338498 0.828552 0.204210 0.359081
C37   C     C_R   0.341884 0.826690 0.285803 0.360471
C38   C     C_R   0.265754 0.817731 0.132372 0.166915
C39   C     C_R   0.247517 0.850519 0.093061 -0.093880
C40   C     C_R   0.371719 0.914396 0.107330 -0.142345
C41   C     C_R   0.389339 0.883340 0.146659 -0.147663
C42   C     C_R   0.332819 0.839856 0.160367 0.044636
C43   C     C_R   0.296660 0.903192 0.080922 -0.010839
C44   C     C_R   0.371900 0.370509 0.585474 0.023183
C45   C     C_R   0.407336 0.389015 0.549050 0.544833
C46   C     C_R   0.288170 0.452084 0.605123 -0.129037
C47   C     C_R   0.270618 0.443741 0.644532 -0.123124
C48   C     C_R   0.336357 0.353603 0.664801 0.033927
C49   C     C_R   0.413918 0.268694 0.643770 -0.119695
C50   C     C_R   0.431538 0.277069 0.604424 -0.127667
C51   C     C_R   0.326381 0.349337 0.789629 0.349780
C52   C     C_R   0.330300 0.350895 0.708458 0.346674
C53   C     C_R   0.230698 0.412466 0.852796 -0.086801
C54   C     C_R   0.215822 0.394503 0.891345 0.150382
C55   C     C_R   0.386020 0.242248 0.892180 -0.157816
C56   C     C_R   0.701325 0.413574 0.562688 0.545393
C57   C     C_R   0.399878 0.260988 0.853898 -0.133259
C58   C     C_R   0.320103 0.342927 0.832991 0.001901
C59   C     C_R   0.291769 0.304501 0.910466 0.032145
C60   C     C_R   0.754367 0.380245 0.602864 0.021249
C61   C     C_R   0.779192 0.446965 0.629397 -0.125045
C62   C     C_R   0.808006 0.426131 0.670122 -0.110011
C63   C     C_R   0.812747 0.338374 0.684711 0.041063
C64   C     C_R   0.794310 0.268358 0.658107 -0.112117
C65   C     C_R   0.765629 0.288876 0.617364 -0.124031
C66   C     C_R   0.887696 0.211916 0.822677 -0.109534
C67   C     C_R   0.370238 0.366585 0.392500 0.017402
C68   C     C_R   0.914719 0.200950 0.864102 -0.126936
C69   C     C_R   0.873142 0.381777 0.873170 -0.106970
C70   C     C_R   0.845975 0.392543 0.831807 -0.103165
C71   C     C_R   0.856072 0.306972 0.806372 0.038934
C72   C     C_1   0.840790 0.315487 0.763351 -0.019675
C73   C     C_1   0.828984 0.324485 0.727389 -0.020652
C74   C     C_R   0.911075 0.284973 0.889544 0.017274
C75   C     C_R   0.376671 0.752574 0.602403 0.008544
C76   C     C_R   0.282916 0.782889 0.619985 -0.125935
C77   C     C_R   0.274443 0.806959 0.661721 0.000049
C78   C     C_R   0.283194 0.446295 0.372917 -0.119240
C79   C     C_R   0.360517 0.803391 0.685999 0.033457
C80   C     C_R   0.451411 0.780472 0.668144 -0.125583
C81   C     C_R   0.459638 0.755071 0.626640 -0.131717
C82   C     C_R   0.402127 0.877345 0.833956 -0.110017
C83   C     C_R   0.380155 0.907510 0.874461 -0.123691
C84   C     C_R   0.230120 0.879368 0.863187 -0.122674
C85   C     C_R   0.252388 0.849106 0.822736 -0.108572
C86   C     C_R   0.336697 0.850767 0.807878 0.039710
C87   C     C_1   0.350566 0.833016 0.765298 -0.020222
C88   C     C_1   0.357354 0.819931 0.729265 -0.019280
C89   C     C_R   0.263476 0.437234 0.331149 -0.099982
C90   C     C_R   0.291941 0.912021 0.889165 0.020593
C91   C     C_R   0.963575 0.264181 0.045580 0.540812
C92   C     C_R   0.272689 0.259474 0.060046 0.544241
C93   C     C_R   0.259196 0.959700 0.043751 0.548305
C94   C     C_R   0.962804 0.267568 0.930674 0.542365
C95   C     C_R   0.270998 0.264604 0.945439 0.565232
C96   C     C_R   0.256338 0.964779 0.929029 0.544746
Cr1   Cr    Cr6+3 0.576280 0.580550 0.506370 1.021968
Cr2   Cr    Cr6+3 0.346780 0.572400 0.496520 1.052650
Cr3   Cr    Cr6+3 0.576960 0.347070 0.497150 1.025999
Cr4   Cr    Cr6+3 0.087320 0.083240 0.984860 1.027728
Cr5   Cr    Cr6+3 0.087720 0.316210 0.996740 1.080851
Cr6   Cr    Cr6+3 0.317350 0.090340 0.995890 1.020933
H1    H     H_    0.448629 0.168727 0.109685 0.134539
H2    H     H_    0.740693 0.233739 0.400139 0.140246
H3    H     H_    0.862853 0.444977 0.090732 0.138729
H4    H     H_    0.840891 0.465608 0.341713 0.141851
H5    H     H_    0.795053 0.195854 0.331117 0.154563
H6    H     H_    0.811608 0.463869 0.159291 0.144229
H7    H     H_    0.941816 0.121367 0.083596 0.143435
H8    H     H_    0.890563 0.140236 0.152395 0.154227
H9    H     H_    0.537842 0.669722 0.398380 0.151492
H10   H     H_    0.191694 0.838401 0.072498 0.163231
H11   H     H_    0.464091 0.202192 0.182966 0.122754
H12   H     H_    0.517156 0.721681 0.330630 0.157377
H13   H     H_    0.411455 0.954118 0.098688 0.143205
H14   H     H_    0.442548 0.899880 0.167086 0.146193
H15   H     H_    0.240493 0.524996 0.591184 0.134440
H16   H     H_    0.495933 0.212559 0.589856 0.132546
H17   H     H_    0.209411 0.510051 0.659809 0.134537
H18   H     H_    0.464568 0.197389 0.658345 0.133876
H19   H     H_    0.463838 0.196367 0.311006 0.124351
H20   H     H_    0.169612 0.478219 0.837562 0.161087
H21   H     H_    0.447237 0.174402 0.906246 0.141611
H22   H     H_    0.471134 0.207605 0.839861 0.142563
H23   H     H_    0.944260 0.125228 0.875686 0.131515
H24   H     H_    0.895570 0.145279 0.803166 0.114571
H25   H     H_    0.797824 0.200232 0.669168 0.104387
H26   H     H_    0.746887 0.235994 0.597784 0.129774
H27   H     H_    0.770924 0.518073 0.619269 0.129153
H28   H     H_    0.821206 0.466540 0.819420 0.120797
H29   H     H_    0.869550 0.447883 0.891903 0.162356
H30   H     H_    0.499782 0.211822 0.384163 0.137465
H31   H     H_    0.822358 0.480690 0.690557 0.114858
H32   H     H_    0.429146 0.932432 0.893637 0.131234
H33   H     H_    0.467591 0.878767 0.822641 0.115180
H34   H     H_    0.517532 0.778301 0.686587 0.115165
H35   H     H_    0.532943 0.731817 0.614008 0.131715
H36   H     H_    0.218150 0.781335 0.601748 0.136505
H37   H     H_    0.201387 0.828505 0.802673 0.119048
H38   H     H_    0.161608 0.882158 0.873519 0.134780
H39   H     H_    0.234005 0.518193 0.389374 0.148538
H40   H     H_    0.153721 0.458548 0.178792 0.136275
H41   H     H_    0.136848 0.426271 0.105412 0.142137
H42   H     H_    0.199394 0.501413 0.316162 0.135892
H43   H     H_    0.786719 0.503394 0.410499 0.136435
N1    N     N_R   0.832312 0.393832 0.228538 -0.224581
N2    N     N_R   0.253383 0.430190 0.729045 -0.240087
N3    N     N_R   0.405569 0.271461 0.729290 -0.235124
N4    N     N_R   0.403432 0.270518 0.769024 -0.231617
N5    N     N_R   0.828309 0.398739 0.268420 -0.227359
N6    N     N_R   0.837946 0.235382 0.263766 -0.200301
N7    N     N_R   0.842371 0.230288 0.223796 -0.211561
N8    N     N_R   0.257422 0.833525 0.221899 -0.139105
N9    N     N_R   0.259647 0.831196 0.261836 -0.144587
N10   N     N_R   0.422846 0.822178 0.268147 -0.231789
N11   N     N_R   0.420861 0.823859 0.228210 -0.236654
N12   N     N_R   0.251083 0.429096 0.768845 -0.238268
O1    O     O_R   0.679450 0.499830 0.463150 -0.520512
O2    O     O_R   0.356040 0.477400 0.534170 -0.503486
O3    O     O_R   0.495910 0.323070 0.537100 -0.517478
O4    O     O_R   0.663920 0.359620 0.542290 -0.499621
O5    O     O_3   0.500010 0.500010 0.500010 -0.248917
O6    O     O_R   0.170070 0.978950 0.027680 -0.512597
O7    O     O_R   0.001760 0.175230 0.026640 -0.501822
O8    O     O_R   0.984760 0.333570 0.037150 -0.516088
O9    O     O_R   0.183410 0.309240 0.041890 -0.495661
O10   O     O_R   0.340240 0.172500 0.045430 -0.520645
O11   O     O_R   0.309670 0.000990 0.032050 -0.500347
O12   O     O_R   0.480650 0.664000 0.464630 -0.508743
O13   O     O_R   0.168330 0.982130 0.939200 -0.515489
O14   O     O_R   0.000140 0.178170 0.944610 -0.506472
O15   O     O_R   0.983010 0.336750 0.948660 -0.484066
O16   O     O_R   0.181800 0.312190 0.959860 -0.442029
O17   O     O_R   0.338500 0.175680 0.956950 -0.530281
O18   O     O_R   0.308050 0.003930 0.950020 -0.502308
O19   O     O_3   0.164130 0.163270 0.992500 -0.250953
O20   O     O_R   0.323930 0.675950 0.455370 -0.464253
O21   O     O_R   0.354700 0.475360 0.451930 -0.500259
O22   O     O_R   0.494470 0.320860 0.448390 -0.516644
O23   O     O_R   0.662580 0.357570 0.460050 -0.499011
O24   O     O_R   0.680900 0.502040 0.551870 -0.518032
O25   O     O_R   0.481990 0.666040 0.546870 -0.501644
O26   O     O_R   0.325370 0.678160 0.544080 -0.510032
Br1   Br    Br    0.155260 0.876719 0.424735 -0.420057
Br2   Br    Br    0.126821 0.953265 0.331635 -0.383407
Br3   Br    Br    0.196844 0.743299 0.145238 -0.468281
Br4   Br    Br    0.087941 0.494349 0.914206 -0.506087
C97   C     C_R   0.176745 0.830558 0.679319 0.029062
C98   C     C_R   0.083200 0.916494 0.667315 -0.091949
C99   C     C_R   0.990897 0.938899 0.683883 -0.106884
C100  C     C_R   0.991242 0.875372 0.712276 -0.104331
C101  C     C_R   0.083815 0.789011 0.724012 -0.117658
C102  C     C_R   0.176272 0.766346 0.707537 -0.094142
H44   H     H_    0.081973 0.966452 0.645412 0.115695
H45   H     H_    0.919091 0.005472 0.674698 0.102987
H46   H     H_    0.919732 0.892873 0.725078 0.111468
H47   H     H_    0.083943 0.739541 0.745843 0.124883
H48   H     H_    0.247318 0.698708 0.716653 0.123411

loop_
_geom_bond_atom_site_label_1
_geom_bond_atom_site_label_2
_ccdc_geom_bond_type
C66   C68   A    
C87   C88   T    
C40   C41   A    
Cr6   O10   S    
C96   O18   A    
C55   C59   A    
C41   C42   A    
C74   C94   S    
Cr5   O16   S    
C45   O2    A    
C7    H41   S    
C7    C8    A    
C4    H30   S    
C85   C86   A    
C25   C28   A    
C81   H35   S    
C67   C78   A    
C33   H12   S    
C99   C100  A    
C59   C95   S    
C62   H31   S    
C95   O17   A    
C38   C42   A    
C53   H20   S    
C30   C31   A    
C80   C81   A    
C40   H13   S    
C56   O24   A    
C93   O6    A    
C68   C74   A    
C15   C16   A    
C23   O1    A    
C70   H28   S    
Cr1   O12   S    
Cr1   O24   S    
Cr5   O15   S    
C101  H47   S    
C18   C19   A    
Cr2   O26   S    
C37   N10   A    
C18   H5    S    
C83   H32   S    
C3    H19   S    
C94   O15   A    
Cr3   O4    S    
C8    H40   S    
C1    O20   A    
C98   H44   S    
C40   C43   A    
C66   C71   A    
C93   O11   A    
C16   C17   A    
Cr4   O19   S    
N6    N7    A    
Cr1   O5    S    
C70   C71   A    
C66   H24   S    
Cr2   O21   S    
C29   C30   A    
C9    C10   S    
C26   H8    S    
C61   H27   S    
C34   C75   S    
C38   Br3   S    
C47   H17   S    
C52   N3    A    
N1    N5    A    
Cr3   O3    S    
Cr4   O14   S    
Cr5   O9    S    
C45   O3    A    
C84   C90   A    
C2    C11   S    
C14   C19   A    
C79   C88   S    
Cr2   O5    S    
C44   C46   A    
C36   N8    A    
C54   C59   A    
C77   C79   A    
C78   C89   A    
C38   C39   A    
C12   C67   S    
C55   H21   S    
C63   C64   A    
Cr4   O13   S    
C100  C101  A    
C65   H26   S    
C24   C28   A    
Cr1   O25   S    
C84   C85   A    
C78   H39   S    
C15   H43   S    
C86   C87   S    
C8    C9    A    
C39   C43   A    
C63   C73   S    
C25   C26   A    
C6    H1    S    
C56   O4    A    
C51   N12   A    
C17   C21   S    
C56   C60   S    
C46   H15   S    
C97   C98   A    
Cr6   O18   S    
C14   C23   S    
C2    C89   A    
C75   C76   A    
Cr3   O22   S    
C62   C63   A    
C94   O14   A    
Cr3   O5    S    
C19   H2    S    
C47   C48   A    
C48   C52   S    
C69   H29   S    
C64   H25   S    
C31   Br2   S    
C1    C29   S    
C17   C18   A    
C26   C27   A    
C69   C74   A    
Cr4   O7    S    
C51   C58   S    
C25   H7    S    
C32   C37   S    
C76   C77   A    
Cr2   O20   S    
Cr5   O8    S    
C84   H38   S    
C23   O23   A    
C99   H45   S    
C48   C49   A    
C60   C65   A    
C49   C50   A    
C52   N2    A    
C76   H36   S    
C22   C27   A    
C55   C57   A    
C13   C92   S    
C22   C24   A    
C91   O7    A    
C41   H14   S    
C53   C54   A    
C3    C4    A    
N2    N12   A    
C35   H9    S    
C44   C45   S    
C36   N11   A    
C44   C50   A    
C98   C99   A    
C83   C90   A    
C85   H37   S    
C46   C47   A    
C39   H10   S    
Cr6   O11   S    
C5    H11   S    
C50   H16   S    
C30   Br1   S    
C37   N9    A    
C91   O8    A    
C31   C32   A    
C75   C81   A    
C100  H46   S    
C5    C9    A    
C72   C73   T    
C36   C42   S    
C97   C102  A    
C4    C67   A    
C43   C93   S    
C53   C58   A    
C90   C96   S    
C20   C27   S    
C16   H4    S    
Cr6   O17   S    
C89   H42   S    
Cr4   O6    S    
C29   C35   A    
C80   H34   S    
C54   Br4   S    
C101  C102  A    
C2    C3    A    
C82   H33   S    
C34   O26   A    
Cr3   O23   S    
C82   C86   A    
C32   C33   A    
Cr1   O1    S    
C92   O10   A    
C21   N5    A    
C57   C58   A    
C5    C6    A    
C57   H22   S    
C22   H6    S    
C64   C65   A    
C1    O12   A    
C33   C35   A    
C34   O25   A    
C28   C91   S    
C20   N1    A    
N3    N4    A    
C21   N6    A    
C95   O16   A    
C61   C62   A    
C69   C70   A    
C12   O21   A    
C10   C11   T    
C79   C80   A    
C49   H18   S    
C92   O9    A    
C7    C13   A    
C12   O22   A    
C20   N7    A    
Cr2   O2    S    
C51   N4    A    
C82   C83   A    
N10   N11   A    
C77   C97   S    
C14   C15   A    
C60   C61   A    
Cr5   O19   S    
C96   O13   A    
C24   H3    S    
C71   C72   S    
N8    N9    A    
Cr6   O19   S    
C68   H23   S    
C102  H48   S    
C6    C13   A    
