data_mof_unit_61058.cif
_audit_creation_date              2012-12-10T19:39:54-0500
_audit_creation_method            fapswitch 2.2
_symmetry_space_group_name_H-M    P1
_symmetry_Int_Tables_number       1
_space_group_crystal_system       triclinic
_cell_length_a                    19.263135
_cell_length_b                    18.413303
_cell_length_c                    27.751975
_cell_angle_alpha                 90.40295
_cell_angle_beta                  92.157464
_cell_angle_gamma                 90.078469
_cell_volume                      9836.33427673

loop_
_atom_site_label
_atom_site_type_symbol
_atom_type_description
_atom_site_fract_x
_atom_site_fract_y
_atom_site_fract_z
_atom_type_partial_charge
Br1   Br    Br    0.389986 0.322142 0.427674 -0.378588
Br2   Br    Br    0.582580 0.636064 0.358132 -0.278656
Br3   Br    Br    0.610014 0.677858 0.572326 -0.378589
Br4   Br    Br    0.607490 0.324397 0.574294 -0.310050
Br5   Br    Br    0.392509 0.675602 0.425706 -0.310049
Br6   Br    Br    0.392849 0.143299 0.424294 -0.264962
Br7   Br    Br    0.607151 0.856701 0.575706 -0.264962
Br8   Br    Br    0.606882 0.145409 0.576127 -0.246195
Br9   Br    Br    0.393118 0.854591 0.423873 -0.246195
Br10  Br    Br    0.417414 0.363940 0.641867 -0.278659
C1    C     C_R   0.365415 0.499960 0.500136 0.983487
C2    C     C_R   0.440502 0.529382 0.871725 -0.138577
C3    C     C_R   0.502896 0.499168 0.353281 -0.219571
C4    C     C_R   0.497104 0.500832 0.646719 -0.219570
C5    C     C_R   0.438891 0.521094 0.973443 0.061277
C6    C     C_R   0.561106 0.478904 0.026557 0.061277
C7    C     C_R   0.563289 0.488260 0.975905 -0.129982
C8    C     C_R   0.436708 0.511737 0.024095 -0.129981
C9    C     C_R   0.501134 0.505955 0.949438 0.026610
C10   C     C_R   0.498864 0.494043 0.050562 0.026610
C11   C     C_R   0.381962 0.549242 0.946021 -0.184438
C12   C     C_R   0.634585 0.500040 0.499864 0.983485
C13   C     C_R   0.618035 0.450755 0.053979 -0.184438
C14   C     C_R   0.381720 0.551230 0.896141 0.697335
C15   C     C_R   0.618277 0.448768 0.103859 0.697336
C16   C     C_R   0.501485 0.499881 0.405936 0.965666
C17   C     C_R   0.498515 0.500119 0.594064 0.965667
C18   C     C_R   0.374050 0.515995 0.049399 0.519524
C19   C     C_R   0.625947 0.484004 0.950601 0.519523
C20   C     C_R   0.253748 0.565785 0.499727 -0.219538
C21   C     C_R   0.746252 0.434215 0.500273 -0.219537
C22   C     C_R   0.746256 0.565978 0.498099 -0.202682
C23   C     C_R   0.498524 0.489921 0.101591 -0.211241
C24   C     C_R   0.253744 0.434022 0.501901 -0.202681
C25   C     C_R   0.181841 0.565962 0.499830 0.647837
C26   C     C_R   0.818159 0.434038 0.500171 0.647837
C27   C     C_R   0.818183 0.566173 0.498023 0.647432
C28   C     C_R   0.181817 0.433827 0.501979 0.647432
C29   C     C_R   0.145416 0.499886 0.500837 -0.238495
C30   C     C_R   0.854584 0.500114 0.499165 -0.238495
C31   C     C_R   0.289995 0.499905 0.500565 -0.245807
C32   C     C_R   0.710005 0.500094 0.499435 -0.245807
C33   C     C_R   0.930075 0.500125 0.499502 0.376396
C34   C     C_R   0.501474 0.510077 0.898408 -0.211241
C35   C     C_R   0.069926 0.499875 0.500499 0.376396
C36   C     C_R   0.454762 0.272201 0.469841 0.296751
C37   C     C_R   0.545238 0.727799 0.530159 0.296751
C38   C     C_R   0.544871 0.273112 0.530536 0.313282
C39   C     C_R   0.455129 0.726888 0.469463 0.313283
C40   C     C_R   0.454236 0.195152 0.469197 0.171819
C41   C     C_R   0.545764 0.804848 0.530803 0.171820
C42   C     C_R   0.545673 0.196048 0.531084 0.166860
C43   C     C_R   0.454327 0.803951 0.468916 0.166861
C44   C     C_R   0.500072 0.156131 0.500077 -0.176575
C45   C     C_R   0.437117 0.504535 0.125993 -0.257163
C46   C     C_R   0.499928 0.843869 0.499923 -0.176575
C47   C     C_R   0.499939 0.925611 0.499917 0.417053
C48   C     C_R   0.500061 0.074388 0.500083 0.417053
C49   C     C_R   0.439439 0.505437 0.176551 0.659268
C50   C     C_R   0.560559 0.494562 0.823449 0.659265
C51   C     C_R   0.559072 0.471793 0.178768 0.656601
C52   C     C_R   0.440926 0.528205 0.821232 0.656603
C53   C     C_R   0.532747 0.552445 0.277093 0.698493
C54   C     C_R   0.467249 0.447556 0.722907 0.698495
C55   C     C_R   0.534038 0.555738 0.327374 0.172057
C56   C     C_R   0.562881 0.495464 0.874007 -0.257163
C57   C     C_R   0.465958 0.444263 0.672626 0.172055
C58   C     C_R   0.472561 0.439968 0.328232 -0.185455
C59   C     C_R   0.527441 0.560031 0.671768 -0.185456
C60   C     C_R   0.471688 0.437232 0.278312 -0.149760
C61   C     C_R   0.528313 0.562766 0.721688 -0.149758
C62   C     C_R   0.501461 0.493445 0.252790 0.071556
C63   C     C_R   0.498538 0.506554 0.747210 0.071553
C64   C     C_R   0.374885 0.515416 0.099401 0.664040
C65   C     C_R   0.625113 0.484582 0.900599 0.664040
C66   C     C_R   0.559495 0.470616 0.128275 -0.138577
F1    F     F_    0.148096 0.630629 0.497695 -0.577204
F2    F     F_    0.676028 0.423437 0.127761 -0.551573
F3    F     F_    0.310385 0.514191 0.026855 -0.580869
F4    F     F_    0.689613 0.485808 0.973145 -0.580869
F5    F     F_    0.851904 0.369370 0.502307 -0.577204
F6    F     F_    0.851861 0.630827 0.495758 -0.574719
F7    F     F_    0.148139 0.369173 0.504244 -0.574719
F8    F     F_    0.313395 0.522328 0.121421 -0.514672
F9    F     F_    0.686603 0.477672 0.878579 -0.514672
F10   F     F_    0.437932 0.393640 0.748414 -0.575071
F11   F     F_    0.562062 0.606362 0.251585 -0.575071
F12   F     F_    0.323969 0.576560 0.872239 -0.551572
H1    H     H_    0.448783 0.395941 0.347179 0.231222
H2    H     H_    0.280907 0.382570 0.503083 0.235386
H3    H     H_    0.551221 0.604056 0.652821 0.231221
H4    H     H_    0.447797 0.391489 0.259338 0.201737
H5    H     H_    0.552206 0.608507 0.740662 0.201738
H6    H     H_    0.337438 0.573145 0.962132 0.254738
H7    H     H_    0.662560 0.426852 0.037868 0.254737
H8    H     H_    0.280873 0.617277 0.498756 0.229439
H9    H     H_    0.719127 0.382723 0.501244 0.229439
H10   H     H_    0.719093 0.617430 0.496918 0.235386
N1    N     N_R   0.500036 0.490408 0.201458 -0.352930
N2    N     N_R   0.440974 0.963703 0.508075 -0.090523
N3    N     N_R   0.441035 0.036335 0.508154 -0.083540
N4    N     N_R   0.558965 0.963665 0.491846 -0.083540
N5    N     N_R   0.499962 0.509590 0.798542 -0.352930
N6    N     N_R   0.033438 0.444574 0.479342 -0.050818
N7    N     N_R   0.966562 0.555426 0.520660 -0.050818
N8    N     N_R   0.964582 0.444687 0.478864 -0.052419
N9    N     N_R   0.035418 0.555312 0.521138 -0.052419
N10   N     N_R   0.500000 0.310560 0.500000 -0.182183
N11   N     N_R   0.500000 0.689440 0.500000 -0.182183
N12   N     N_R   0.559026 0.036297 0.491924 -0.090523
O1    O     O_R   0.398130 0.560830 0.500010 -0.608286
O2    O     O_2   0.617875 0.478030 0.799118 -0.416116
O3    O     O_2   0.383054 0.545125 0.794770 -0.414931
O4    O     O_2   0.616944 0.454873 0.205230 -0.414934
O5    O     O_R   0.601870 0.439170 0.499990 -0.608286
O6    O     O_R   0.601870 0.560830 0.499990 -0.592258
O7    O     O_R   0.398130 0.439170 0.500010 -0.592258
O8    O     O_R   0.500010 0.560810 0.428750 -0.562568
O9    O     O_R   0.499990 0.439190 0.571250 -0.562568
O10   O     O_R   0.499990 0.560810 0.571250 -0.607018
O11   O     O_R   0.500010 0.439190 0.428750 -0.607018
O12   O     O_2   0.382123 0.521970 0.200882 -0.416116
Zn1   Zn    Zn3+2 0.500000 0.581210 0.500000 1.059570
Zn2   Zn    Zn3+2 0.500000 0.418790 0.500000 1.059569

loop_
_geom_bond_atom_site_label_1
_geom_bond_atom_site_label_2
_ccdc_geom_bond_type
C23   C45   A    
C5    C8    A    
C53   C55   A    
O6    Zn1   S    
C45   C49   A    
C28   F7    S    
C49   N1    A    
C34   C56   A    
Br2   C55   S    
C18   C64   A    
N6    N8    A    
C3    C55   A    
O9    Zn2   S    
C5    C9    A    
C47   N4    A    
N7    N9    A    
C40   C44   A    
C20   C25   A    
C21   C32   A    
O7    Zn2   S    
C27   C30   A    
Br4   C38   S    
C28   C29   A    
Br1   C36   S    
C11   H6    S    
C7    C19   A    
C46   C47   S    
C41   C46   A    
C33   N7    A    
C59   C61   A    
C18   F3    S    
O11   Zn2   S    
C20   H8    S    
C45   C64   A    
C65   F9    S    
C30   C33   S    
C22   H10   S    
C6    C7    A    
C36   N10   A    
C12   C32   S    
C63   N5    S    
C4    C57   A    
C20   C31   A    
C16   O11   A    
C4    C17   S    
C50   N5    A    
Br8   C42   S    
O10   Zn1   S    
C6    C10   A    
C29   C35   S    
C49   O12   S    
C12   O6    A    
C50   C56   A    
C48   N12   A    
Br5   C39   S    
C51   N1    A    
C24   C31   A    
N10   Zn2   S    
C54   F10   S    
C42   C44   A    
C51   C66   A    
O1    Zn1   S    
C15   F2    S    
C54   C57   A    
C17   O10   A    
C26   C30   A    
C8    C18   A    
C52   O3    S    
C61   C63   A    
N11   Zn1   S    
C37   C41   A    
C37   N11   A    
C47   N2    A    
C1    O1    A    
C25   F1    S    
C33   N8    A    
C25   C29   A    
C24   H2    S    
C50   O2    S    
C35   N6    A    
C2    C52   A    
C23   C66   A    
C5    C11   A    
C26   F5    S    
C54   C63   A    
C58   H1    S    
C48   N3    A    
C22   C27   A    
Br6   C40   S    
C14   F12   S    
C61   H5    S    
C10   C23   A    
C12   O5    A    
C6    C13   A    
C4    C59   A    
C27   F6    S    
N4    N12   A    
Br9   C43   S    
C1    O7    A    
C9    C34   A    
C39   N11   A    
C52   N5    A    
C44   C48   S    
C43   C46   A    
C2    C14   A    
O5    Zn2   S    
C53   F11   S    
C24   C28   A    
C60   H4    S    
C16   O8    A    
C64   F8    S    
C19   C65   A    
C17   O9    A    
C36   C40   A    
C15   C66   A    
Br7   C41   S    
C2    C34   A    
Br10  C57   S    
C38   N10   A    
C19   F4    S    
C39   C43   A    
C56   C65   A    
Br3   C37   S    
N2    N3    A    
C7    C9    A    
C13   H7    S    
C1    C31   S    
C8    C10   A    
O8    Zn1   S    
C21   H9    S    
C3    C16   S    
C38   C42   A    
C13   C15   A    
C53   C62   A    
C58   C60   A    
C11   C14   A    
C51   O4    S    
C22   C32   A    
C21   C26   A    
C60   C62   A    
C59   H3    S    
C3    C58   A    
C35   N9    A    
C62   N1    S    
