data_mof_unit_24810.cif
_audit_creation_date              2012-12-11T15:17:54-0500
_audit_creation_method            fapswitch 2.2
_symmetry_space_group_name_H-M    P1
_symmetry_Int_Tables_number       1
_space_group_crystal_system       triclinic
_cell_length_a                    15.698546
_cell_length_b                    15.701098
_cell_length_c                    34.418071
_cell_angle_alpha                 90.018955
_cell_angle_beta                  90.014181
_cell_angle_gamma                 120.001627
_cell_volume                      7346.82032041

loop_
_atom_site_label
_atom_site_type_symbol
_atom_type_description
_atom_site_fract_x
_atom_site_fract_y
_atom_site_fract_z
_atom_type_partial_charge
C1    C     C_R   0.578061 0.442053 0.555076 0.572586
C2    C     C_R   0.557970 0.136020 0.555076 0.572673
C3    C     C_R   0.864010 0.421969 0.555076 0.572877
C4    C     C_R   0.442039 0.578238 0.055117 0.572717
C5    C     C_R   0.136854 0.558335 0.055280 0.572563
C6    C     C_R   0.421709 0.863620 0.055190 0.572031
C7    C     C_R   0.967503 0.501990 0.714269 0.385257
C8    C     C_R   0.498159 0.465707 0.714257 0.385297
C9    C     C_R   0.534295 0.032387 0.714251 0.385306
C10   C     C_R   0.502607 0.964479 0.214737 0.383849
C11   C     C_R   0.462457 0.495948 0.214294 0.383061
C12   C     C_R   0.028310 0.544327 0.213826 0.387054
C13   C     C_R   0.993865 0.431405 0.854120 -0.004134
C14   C     C_R   0.568626 0.562290 0.854205 -0.004144
C15   C     C_R   0.437481 0.006019 0.854150 -0.004104
C16   C     C_R   0.432160 0.993850 0.354023 -0.003802
C17   C     C_R   0.561312 0.566965 0.353813 -0.002384
C18   C     C_R   0.993665 0.437447 0.350706 -0.001188
C19   C     C_R   0.022485 0.441043 0.893595 -0.034981
C20   C     C_R   0.558915 0.581221 0.893677 -0.035252
C21   C     C_R   0.418589 0.977459 0.893624 -0.035257
C22   C     C_R   0.441264 0.022900 0.393421 -0.034708
C23   C     C_R   0.581023 0.557985 0.393263 -0.033206
C24   C     C_R   0.968009 0.414815 0.390302 -0.034083
C25   C     C_R   0.062512 0.613093 0.892938 0.233792
C26   C     C_R   0.386643 0.449637 0.892820 0.233916
C27   C     C_R   0.550289 0.936939 0.892839 0.233833
C28   C     C_R   0.612527 0.060255 0.393608 0.234606
C29   C     C_R   0.449020 0.385840 0.393003 0.234248
C30   C     C_R   0.943905 0.556462 0.395794 0.230125
C31   C     C_R   0.019571 0.598843 0.855673 -0.013706
C32   C     C_R   0.400904 0.420959 0.855561 -0.013708
C33   C     C_R   0.578930 0.979817 0.855582 -0.013730
C34   C     C_R   0.598694 0.017193 0.356369 -0.013255
C35   C     C_R   0.419907 0.399323 0.355715 -0.013313
C36   C     C_R   0.972096 0.581528 0.356662 -0.012607
C37   C     C_R   0.994808 0.511828 0.835016 0.025232
C38   C     C_R   0.488101 0.483049 0.835002 0.025227
C39   C     C_R   0.516784 0.004822 0.834987 0.025233
C40   C     C_R   0.512381 0.993359 0.335373 0.025796
C41   C     C_R   0.481608 0.486181 0.334932 0.025685
C42   C     C_R   0.992809 0.519369 0.333885 0.024283
C43   C     C_R   0.069158 0.535559 0.911057 0.044826
C44   C     C_R   0.464314 0.533583 0.911042 0.044914
C45   C     C_R   0.466323 0.930633 0.911032 0.044854
C46   C     C_R   0.535374 0.068578 0.411220 0.044863
C47   C     C_R   0.533361 0.463785 0.410952 0.045088
C48   C     C_R   0.929879 0.466564 0.410938 0.039950
C49   C     C_R   0.576670 0.442652 0.445709 0.570695
C50   C     C_R   0.557180 0.133825 0.445773 0.571220
C51   C     C_R   0.866509 0.423525 0.445914 0.571135
C52   C     C_R   0.442731 0.576698 0.945734 0.570014
C53   C     C_R   0.133937 0.557232 0.945740 0.569343
C54   C     C_R   0.423281 0.866016 0.945734 0.570180
C55   C     C_R   0.918897 0.455304 0.592494 0.030482
C56   C     C_R   0.544819 0.463638 0.592498 0.030558
C57   C     C_R   0.536435 0.081216 0.592493 0.030425
C58   C     C_R   0.454094 0.917099 0.092908 0.030354
C59   C     C_R   0.463600 0.545549 0.092644 0.031610
C60   C     C_R   0.083993 0.537989 0.093045 0.031657
C61   C     C_R   0.931485 0.387007 0.615206 0.236860
C62   C     C_R   0.613225 0.544476 0.615237 0.236916
C63   C     C_R   0.455541 0.068679 0.615197 0.236805
C64   C     C_R   0.384094 0.925223 0.116314 0.236247
C65   C     C_R   0.541704 0.615402 0.116112 0.236785
C66   C     C_R   0.084538 0.466848 0.118281 0.237000
C67   C     C_R   0.957986 0.407276 0.654800 -0.051000
C68   C     C_R   0.593002 0.550752 0.654826 -0.050961
C69   C     C_R   0.449251 0.042144 0.654779 -0.050955
C70   C     C_R   0.404901 0.951729 0.155849 -0.051213
C71   C     C_R   0.547419 0.594295 0.155603 -0.050224
C72   C     C_R   0.055908 0.462226 0.157471 -0.050456
C73   C     C_R   0.963788 0.491702 0.671873 0.053746
C74   C     C_R   0.508491 0.472221 0.671867 0.053792
C75   C     C_R   0.527825 0.036249 0.671857 0.053808
C76   C     C_R   0.491270 0.960780 0.172371 0.053678
C77   C     C_R   0.470279 0.507586 0.171955 0.053977
C78   C     C_R   0.035916 0.534529 0.171840 0.055091
C79   C     C_R   0.960387 0.563752 0.648886 0.240775
C80   C     C_R   0.436366 0.396804 0.648857 0.240791
C81   C     C_R   0.603318 0.039672 0.648881 0.240803
C82   C     C_R   0.564328 0.960821 0.148846 0.240407
C83   C     C_R   0.397712 0.434444 0.148284 0.238034
C84   C     C_R   0.028817 0.600953 0.146662 0.238830
C85   C     C_R   0.944948 0.548693 0.608337 -0.063259
C86   C     C_R   0.451401 0.396372 0.608315 -0.063463
C87   C     C_R   0.603766 0.055161 0.608340 -0.063640
C88   C     C_R   0.548608 0.945952 0.108282 -0.062845
C89   C     C_R   0.398536 0.450661 0.107764 -0.061847
C90   C     C_R   0.046677 0.598520 0.106430 -0.062590
C91   C     C_R   0.981644 0.510130 0.792571 0.322522
C92   C     C_R   0.489905 0.471697 0.792553 0.322528
C93   C     C_R   0.528187 0.018030 0.792543 0.322531
C94   C     C_R   0.511122 0.979473 0.293009 0.321386
C95   C     C_R   0.469287 0.487545 0.292553 0.321456
C96   C     C_R   0.008125 0.536358 0.291847 0.322087
Cr1   Cr    Cr6+3 0.522350 0.263930 0.500020 1.070651
Cr2   Cr    Cr6+3 0.736070 0.258420 0.500020 1.071643
Cr3   Cr    Cr6+3 0.741580 0.477650 0.500020 1.073072
Cr4   Cr    Cr6+3 0.263930 0.522350 0.000020 1.072511
Cr5   Cr    Cr6+3 0.258420 0.736070 0.000020 1.073517
Cr6   Cr    Cr6+3 0.477650 0.741580 0.000020 1.072107
N1    N     N_R   0.902563 0.434848 0.774966 -0.227283
N2    N     N_R   0.565089 0.467659 0.775002 -0.227306
N3    N     N_R   0.532150 0.097217 0.775006 -0.227318
N4    N     N_R   0.436296 0.899727 0.275560 -0.226288
N5    N     N_R   0.463046 0.561667 0.275171 -0.228437
N6    N     N_R   0.095371 0.558441 0.275578 -0.223725
N7    N     N_R   0.895811 0.430712 0.736425 -0.219765
N8    N     N_R   0.569286 0.465053 0.736463 -0.219690
N9    N     N_R   0.534813 0.104073 0.736470 -0.219684
N10   N     N_R   0.432004 0.892533 0.237036 -0.220908
N11   N     N_R   0.460006 0.565923 0.236651 -0.223415
N12   N     N_R   0.105206 0.562181 0.237156 -0.219748
N13   N     N_R   0.045409 0.578520 0.731826 -0.165983
N14   N     N_R   0.421732 0.467344 0.731759 -0.166058
N15   N     N_R   0.532735 0.954361 0.731740 -0.166062
N16   N     N_R   0.578816 0.042990 0.232159 -0.163130
N17   N     N_R   0.466146 0.420445 0.231647 -0.163683
N18   N     N_R   0.941532 0.523917 0.230069 -0.171275
N19   N     N_R   0.052351 0.582382 0.770370 -0.221309
N20   N     N_R   0.417814 0.470418 0.770301 -0.221312
N21   N     N_R   0.529603 0.947314 0.770279 -0.221299
N22   N     N_R   0.582895 0.050326 0.270696 -0.220254
N23   N     N_R   0.469545 0.416408 0.270178 -0.220295
N24   N     N_R   0.931599 0.519774 0.268516 -0.226939
O1    O     O_R   0.498680 0.159540 0.541860 -0.449503
O2    O     O_R   0.840460 0.339140 0.541860 -0.449055
O3    O     O_R   0.660860 0.501320 0.541860 -0.449452
O4    O     O_R   0.159540 0.498680 0.041860 -0.448936
O5    O     O_R   0.339140 0.840460 0.041860 -0.447625
O6    O     O_R   0.501320 0.660860 0.041860 -0.449416
O7    O     O_R   0.532760 0.358060 0.540030 -0.519656
O8    O     O_R   0.641940 0.174700 0.540030 -0.519506
O9    O     O_R   0.825300 0.467240 0.540030 -0.519457
O10   O     O_R   0.358060 0.532760 0.040030 -0.514859
O11   O     O_R   0.174700 0.641940 0.040030 -0.516537
O12   O     O_R   0.467240 0.825300 0.040030 -0.517999
O13   O     O_R   0.498590 0.161190 0.456930 -0.518231
O14   O     O_R   0.838810 0.337400 0.456930 -0.518615
O15   O     O_R   0.662600 0.501410 0.456930 -0.516849
O16   O     O_R   0.161190 0.498590 0.956930 -0.518958
O17   O     O_R   0.337400 0.838810 0.956930 -0.518320
O18   O     O_R   0.501410 0.662600 0.956930 -0.518216
O19   O     O_R   0.532680 0.359580 0.461300 -0.436967
O20   O     O_R   0.640420 0.173100 0.461300 -0.436532
O21   O     O_R   0.826900 0.467320 0.461300 -0.436320
O22   O     O_R   0.359580 0.532680 0.961300 -0.437352
O23   O     O_R   0.173100 0.640420 0.961300 -0.437415
O24   O     O_R   0.467320 0.826900 0.961300 -0.437090
O25   O     O_3   0.666667 0.333333 0.499990 -0.276102
O26   O     O_3   0.333333 0.666667 0.999990 -0.275886
O27   O     O_3   0.917618 0.301436 0.597801 -0.681743
H1    H     H_    0.902029 0.250041 0.617560 0.316005
O28   O     O_3   0.698859 0.616090 0.597864 -0.682051
H2    H     H_    0.750290 0.651839 0.617640 0.315961
O29   O     O_3   0.383876 0.082618 0.597797 -0.682262
H3    H     H_    0.348122 0.098292 0.617560 0.316032
O30   O     O_3   0.296076 0.906768 0.099732 -0.678303
H4    H     H_    0.244609 0.886153 0.119883 0.319767
O31   O     O_3   0.611226 0.703476 0.099599 -0.681482
H5    H     H_    0.643102 0.754578 0.119830 0.316360
O32   O     O_3   0.114124 0.403397 0.103842 -0.682927
H6    H     H_    0.138043 0.378557 0.125137 0.317474
C97   C     C_3   0.959545 0.632757 0.582404 -0.379399
H7    H     H_    0.979101 0.623387 0.552337 0.146980
H8    H     H_    0.891828 0.638369 0.581989 0.167016
H9    H     H_    0.022373 0.703196 0.592837 0.144258
C98   C     C_3   0.367278 0.326924 0.582359 -0.378722
H10   H     H_    0.376662 0.355812 0.552291 0.147831
H11   H     H_    0.361580 0.253567 0.581957 0.166810
H12   H     H_    0.296866 0.319396 0.592764 0.144813
C99   C     C_3   0.673295 0.040601 0.582415 -0.378658
H13   H     H_    0.644371 0.020988 0.552342 0.148091
H14   H     H_    0.746599 0.108344 0.582019 0.167018
H15   H     H_    0.680975 0.977830 0.592837 0.144767
C100  C     C_3   0.633014 0.964000 0.081838 -0.379358
H16   H     H_    0.621436 0.982130 0.051841 0.146252
H17   H     H_    0.702351 0.028830 0.091949 0.145270
H18   H     H_    0.642123 0.898323 0.081295 0.166411
C101  C     C_3   0.333259 0.366352 0.081052 -0.379086
H19   H     H_    0.362807 0.379187 0.051010 0.145537
H20   H     H_    0.330469 0.297566 0.090792 0.145191
H21   H     H_    0.257794 0.355496 0.080695 0.170503
C102  C     C_3   0.023147 0.657839 0.078222 -0.379344
H22   H     H_    0.011359 0.627636 0.048303 0.145550
H23   H     H_    0.953080 0.654375 0.086462 0.145881
H24   H     H_    0.083558 0.735632 0.078127 0.159249
C103  C     C_3   0.000767 0.350725 0.917038 -0.369618
H25   H     H_    0.993731 0.361763 0.948468 0.153048
H26   H     H_    0.928417 0.287324 0.908652 0.126967
H27   H     H_    0.059448 0.331915 0.912454 0.155816
C104  C     C_3   0.649235 0.649559 0.917219 -0.369299
H28   H     H_    0.637987 0.631503 0.948642 0.154294
H29   H     H_    0.712492 0.640303 0.908922 0.127039
H30   H     H_    0.668388 0.727134 0.912626 0.155716
C105  C     C_3   0.350187 0.999387 0.917122 -0.369229
H31   H     H_    0.368324 0.006371 0.948547 0.154406
H32   H     H_    0.359298 0.071802 0.908781 0.127078
H33   H     H_    0.272625 0.940848 0.912539 0.155698
C106  C     C_3   0.350739 0.002496 0.416447 -0.370253
H34   H     H_    0.360680 0.994839 0.447927 0.154991
H35   H     H_    0.333368 0.062126 0.411730 0.155393
H36   H     H_    0.286764 0.930774 0.407838 0.122213
C107  C     C_3   0.650223 0.648668 0.416438 -0.367866
H37   H     H_    0.632571 0.638320 0.447906 0.153858
H38   H     H_    0.727566 0.667070 0.411738 0.169019
H39   H     H_    0.641469 0.712091 0.407937 0.124950
C108  C     C_3   0.986339 0.340015 0.410737 -0.368319
H40   H     H_    0.996540 0.353867 0.442466 0.157481
H41   H     H_    0.924611 0.264531 0.405156 0.153469
H42   H     H_    0.056457 0.346252 0.400704 0.124587
C109  C     C_3   0.980656 0.339334 0.678377 -0.384875
H43   H     H_    0.018171 0.372303 0.706249 0.153345
H44   H     H_    0.911550 0.269837 0.684819 0.147188
H45   H     H_    0.031573 0.322857 0.661919 0.155430
C110  C     C_3   0.661084 0.641316 0.678430 -0.384912
H46   H     H_    0.628180 0.645924 0.706297 0.153333
H47   H     H_    0.730530 0.641585 0.684886 0.147292
H48   H     H_    0.677667 0.708738 0.661985 0.155371
C111  C     C_3   0.358617 0.019524 0.678334 -0.384920
H49   H     H_    0.354002 0.981969 0.706186 0.153365
H50   H     H_    0.358277 0.088644 0.684812 0.147251
H51   H     H_    0.291223 0.968676 0.661841 0.155274
C112  C     C_3   0.335379 0.971116 0.179924 -0.383126
H52   H     H_    0.369173 0.011005 0.207321 0.152680
H53   H     H_    0.314378 0.018659 0.163450 0.156463
H54   H     H_    0.268379 0.900487 0.187227 0.150212
C113  C     C_3   0.636100 0.663825 0.179821 -0.383135
H55   H     H_    0.641925 0.630156 0.207283 0.153709
H56   H     H_    0.704810 0.684710 0.163489 0.156545
H57   H     H_    0.632442 0.730864 0.187036 0.149589
C114  C     C_3   0.046377 0.379908 0.183537 -0.384610
H58   H     H_    0.004828 0.372266 0.210602 0.150332
H59   H     H_    0.004939 0.308272 0.168227 0.154651
H60   H     H_    0.120521 0.393118 0.191602 0.152387
O33   O     O_3   0.970224 0.646666 0.667234 -0.682523
H61   H     H_    0.941054 0.677298 0.650863 0.320445
O34   O     O_3   0.353392 0.323808 0.667180 -0.682484
H62   H     H_    0.322696 0.263990 0.650807 0.320482
O35   O     O_3   0.676370 0.029797 0.667236 -0.682451
H63   H     H_    0.736225 0.059041 0.650901 0.320489
O36   O     O_3   0.648976 0.973584 0.166667 -0.682257
H64   H     H_    0.681442 0.947273 0.149795 0.320615
O37   O     O_3   0.326384 0.349214 0.165931 -0.685058
H65   H     H_    0.268063 0.315867 0.148845 0.320536
O38   O     O_3   0.005804 0.667892 0.162615 -0.684719
H66   H     H_    0.026779 0.724354 0.144820 0.322782
C115  C     C_3   0.967475 0.338049 0.831685 -0.371483
H67   H     H_    0.985580 0.287557 0.847368 0.117817
H68   H     H_    0.887564 0.297835 0.825059 0.161625
H69   H     H_    0.010040 0.356421 0.804189 0.150961
C116  C     C_3   0.662188 0.629054 0.831876 -0.371543
H70   H     H_    0.712846 0.697505 0.847629 0.117816
H71   H     H_    0.702136 0.589097 0.825266 0.161628
H72   H     H_    0.644089 0.653495 0.804375 0.150927
C117  C     C_3   0.370609 0.032638 0.831778 -0.371454
H73   H     H_    0.302097 0.014707 0.847492 0.117872
H74   H     H_    0.410458 0.112538 0.825185 0.161621
H75   H     H_    0.346251 0.990093 0.804266 0.150981
C118  C     C_3   0.339657 0.968534 0.331150 -0.371810
H76   H     H_    0.289629 0.987984 0.346422 0.117121
H77   H     H_    0.359210 0.010678 0.303531 0.151121
H78   H     H_    0.298544 0.888553 0.324702 0.161567
C119  C     C_3   0.627682 0.660024 0.331132 -0.369455
H79   H     H_    0.696675 0.710759 0.346560 0.121073
H80   H     H_    0.651195 0.641306 0.303538 0.151324
H81   H     H_    0.587755 0.700066 0.324646 0.160125
C120  C     C_3   0.016679 0.372016 0.325473 -0.372512
H82   H     H_    0.997957 0.301098 0.339299 0.119502
H83   H     H_    0.972654 0.352266 0.298305 0.150162
H84   H     H_    0.096105 0.411288 0.318027 0.158696
O39   O     O_3   0.097967 0.701554 0.912491 -0.685649
H85   H     H_    0.113879 0.755461 0.893904 0.317865
O40   O     O_3   0.298021 0.396855 0.912262 -0.685559
H86   H     H_    0.244146 0.359109 0.893606 0.317758
O41   O     O_3   0.603144 0.901205 0.912309 -0.685423
H87   H     H_    0.640763 0.884930 0.893658 0.317858
O42   O     O_3   0.700083 0.094070 0.413684 -0.686158
H88   H     H_    0.754231 0.107867 0.395524 0.316176
O43   O     O_3   0.396204 0.297709 0.412756 -0.685291
H89   H     H_    0.358456 0.243397 0.394276 0.317244
O44   O     O_3   0.927107 0.617402 0.419497 -0.688748
H90   H     H_    0.983094 0.685129 0.416164 0.310302
C121  C     C_3   0.000304 0.676341 0.838230 -0.388234
H91   H     H_    0.948764 0.648085 0.813253 0.158871
H92   H     H_    0.965113 0.700748 0.860168 0.132470
H93   H     H_    0.070486 0.740334 0.828326 0.140220
C122  C     C_3   0.323219 0.324379 0.838020 -0.388168
H94   H     H_    0.351446 0.300991 0.813077 0.158930
H95   H     H_    0.298468 0.264701 0.859924 0.132533
H96   H     H_    0.259447 0.330893 0.828039 0.140257
C123  C     C_3   0.675548 0.998768 0.838086 -0.388131
H97   H     H_    0.698946 0.050402 0.813161 0.158905
H98   H     H_    0.735222 0.033694 0.860021 0.132608
H99   H     H_    0.669059 0.928508 0.828094 0.140297
C124  C     C_3   0.675851 0.996851 0.339296 -0.389109
H100  H     H_    0.648072 0.946147 0.314057 0.158328
H101  H     H_    0.740922 0.066779 0.329869 0.138861
H102  H     H_    0.698486 0.960266 0.361295 0.131796
C125  C     C_3   0.323279 0.321110 0.338375 -0.388360
H103  H     H_    0.299591 0.348598 0.313287 0.157378
H104  H     H_    0.329933 0.257242 0.328655 0.139328
H105  H     H_    0.263707 0.296711 0.360315 0.133379
C126  C     C_3   0.975015 0.670874 0.338298 -0.380155
H106  H     H_    0.050817 0.722701 0.328114 0.131790
H107  H     H_    0.923893 0.648142 0.313224 0.168979
H108  H     H_    0.951625 0.711129 0.357970 0.137613

loop_
_geom_bond_atom_site_label_1
_geom_bond_atom_site_label_2
_ccdc_geom_bond_type
O29   H3    S    
C86   C98   S    
C124  H101  S    
C6    C58   S    
C36   C42   A    
C88   C100  S    
C7    C73   S    
C125  H103  S    
C52   O18   A    
Cr6   O18   S    
C84   O38   S    
C1    C56   S    
Cr6   O6    S    
C1    O3    A    
Cr4   O4    S    
C101  H21   S    
C38   C92   S    
C112  H54   S    
C105  H32   S    
N5    N11   A    
C80   C86   A    
C66   C72   A    
O34   H62   S    
C12   N12   A    
C15   C117  S    
C51   O14   A    
C99   H14   S    
C54   O17   A    
C96   N6    A    
O37   H65   S    
C109  H44   S    
Cr3   O3    S    
C27   O41   S    
C91   N1    A    
Cr5   O11   S    
C101  H19   S    
C36   C126  S    
C31   C37   A    
C89   C101  S    
C113  H55   S    
C14   C38   A    
C56   C86   A    
C8    C74   S    
N16   N22   A    
C15   C39   A    
C16   C40   A    
C5    O4    A    
C120  H83   S    
C56   C62   A    
C71   C113  S    
C79   C85   A    
C118  H77   S    
C125  H105  S    
Cr3   O21   S    
C22   C106  S    
Cr1   O19   S    
Cr3   O15   S    
C93   N21   A    
C21   C105  S    
C58   C88   A    
C24   C108  S    
C5    O11   A    
C60   C90   A    
C123  H99   S    
C13   C115  S    
C29   C35   A    
C30   C36   A    
C85   C97   S    
C121  H92   S    
N2    N8    A    
C64   O30   S    
C69   C111  S    
C11   N11   A    
C8    N14   A    
C104  H28   S    
C65   O31   S    
O28   H2    S    
C98   H12   S    
C108  H42   S    
C25   C31   A    
C26   C32   A    
C26   O40   S    
N13   N19   A    
Cr1   O7    S    
C25   C43   A    
C2    C57   S    
C26   C44   A    
C54   O24   A    
C27   C33   A    
C28   C46   A    
C115  H67   S    
C111  H49   S    
C29   C47   A    
C18   C24   A    
C30   C48   A    
C112  H53   S    
C113  H57   S    
C8    N8    A    
C18   C42   A    
C116  H70   S    
C102  H23   S    
C68   C74   A    
C62   O28   S    
C117  H73   S    
C59   C89   A    
C103  H26   S    
C72   C78   A    
C11   C77   S    
C3    C55   S    
C63   C69   A    
C100  H17   S    
C114  H58   S    
C2    O1    A    
C44   C52   S    
C52   O22   A    
O33   H61   S    
C23   C107  S    
C53   O23   A    
C106  H35   S    
C84   C90   A    
C1    O7    A    
C20   C44   A    
C57   C63   A    
C21   C45   A    
C107  H38   S    
C58   C64   A    
C83   C89   A    
C23   C47   A    
C24   C48   A    
C76   C82   A    
C92   N2    A    
C3    O2    A    
C110  H46   S    
C57   C87   A    
C123  H97   S    
C92   N20   A    
C61   C67   A    
C53   O16   A    
C104  H30   S    
C83   O37   S    
C108  H40   S    
C73   C79   A    
C96   N24   A    
C119  H80   S    
C19   C103  S    
C16   C118  S    
C29   O43   S    
C100  H16   S    
C126  H108  S    
C63   O29   S    
C20   C104  S    
C71   C77   A    
C98   H11   S    
C108  H41   S    
C115  H69   S    
C5    C60   S    
C40   C94   S    
C118  H78   S    
C2    O8    A    
C106  H34   S    
C117  H75   S    
C68   C110  S    
C59   C65   A    
C50   O20   A    
C82   C88   A    
C55   C61   A    
Cr2   O2    S    
C30   O44   S    
C124  H102  S    
C82   O36   S    
C62   C68   A    
C105  H31   S    
C35   C41   A    
C114  H60   S    
C60   C66   A    
C91   N19   A    
O44   H90   S    
Cr1   O13   S    
Cr4   O10   S    
Cr6   O26   S    
C118  H76   S    
O40   H86   S    
O31   H5    S    
C109  H43   S    
C110  H48   S    
N14   N20   A    
C42   C96   S    
C80   O34   S    
C112  H52   S    
C111  H51   S    
N18   N24   A    
C99   H15   S    
O36   H64   S    
C35   C125  S    
C122  H96   S    
C72   C114  S    
C98   H10   S    
C81   O35   S    
C39   C93   S    
C25   O39   S    
C43   C53   S    
C49   O15   A    
O42   H88   S    
C10   N10   A    
C67   C73   A    
C4    O10   A    
C27   C45   A    
C101  H20   S    
N3    N9    A    
C28   C34   A    
C74   C80   A    
C120  H82   S    
C31   C121  S    
C19   C43   A    
Cr2   O25   S    
C125  H104  S    
C87   C99   S    
C13   C19   A    
C14   C20   A    
C4    O6    A    
C50   O13   A    
C107  H37   S    
Cr4   O26   S    
C55   C85   A    
C105  H33   S    
N6    N12   A    
C121  H91   S    
C116  H72   S    
O30   H4    S    
Cr1   O25   S    
Cr3   O9    S    
C17   C23   A    
C81   C87   A    
C95   N5    A    
Cr6   O24   S    
N17   N23   A    
C22   C46   A    
C28   O42   S    
C109  H45   S    
Cr2   O8    S    
C16   C22   A    
C6    O5    A    
C90   C102  S    
Cr5   O26   S    
N1    N7    A    
C113  H56   S    
C102  H22   S    
C41   C95   S    
C69   C75   A    
C3    O9    A    
C103  H25   S    
C111  H50   S    
C126  H106  S    
C120  H84   S    
C9    N9    A    
C97   H7    S    
C9    N15   A    
C124  H100  S    
O32   H6    S    
C70   C112  S    
Cr1   O1    S    
C11   N17   A    
C47   C49   S    
N4    N10   A    
C99   H13   S    
C14   C116  S    
C33   C39   A    
C34   C40   A    
O35   H63   S    
C121  H93   S    
C77   C83   A    
Cr6   O12   S    
C7    N13   A    
C17   C119  S    
C93   N3    A    
C12   N18   A    
C10   C76   S    
C48   C51   S    
C104  H29   S    
C12   C78   S    
C32   C38   A    
C119  H79   S    
C13   C37   A    
C115  H68   S    
C37   C91   S    
C49   O19   A    
C116  H71   S    
C75   C81   A    
C102  H24   S    
Cr2   O20   S    
C126  H107  S    
O43   H89   S    
C65   C71   A    
Cr3   O25   S    
C7    N7    A    
Cr2   O14   S    
C117  H74   S    
C6    O12   A    
C103  H27   S    
C10   N16   A    
C95   N23   A    
C51   O21   A    
C100  H18   S    
O39   H85   S    
C114  H59   S    
C45   C54   S    
C97   H9    S    
C64   C70   A    
C70   C76   A    
C106  H36   S    
C67   C109  S    
C79   O33   S    
Cr5   O5    S    
C122  H94   S    
C107  H39   S    
C94   N4    A    
C61   O27   S    
O38   H66   S    
C110  H47   S    
C46   C50   S    
N15   N21   A    
C123  H98   S    
Cr4   O16   S    
C32   C122  S    
Cr5   O17   S    
C34   C124  S    
Cr4   O22   S    
C4    C59   S    
Cr5   O23   S    
C122  H95   S    
C66   O32   S    
C119  H81   S    
C17   C41   A    
C78   C84   A    
C15   C21   A    
C97   H8    S    
C9    C75   S    
O27   H1    S    
O41   H87   S    
C18   C120  S    
C33   C123  S    
C94   N22   A    
