data_mof_unit_19462.cif
_audit_creation_date              2012-12-10T20:31:08-0500
_audit_creation_method            fapswitch 2.2
_symmetry_space_group_name_H-M    P1
_symmetry_Int_Tables_number       1
_space_group_crystal_system       triclinic
_cell_length_a                    15.033089
_cell_length_b                    10.705996
_cell_length_c                    9.866958
_cell_angle_alpha                 89.4123
_cell_angle_beta                  89.492404
_cell_angle_gamma                 91.00156
_cell_volume                      1587.63854388

loop_
_atom_site_label
_atom_site_type_symbol
_atom_type_description
_atom_site_fract_x
_atom_site_fract_y
_atom_site_fract_z
_atom_type_partial_charge
Br1   Br    Br    0.342701 0.858526 0.721262 -0.433825
Br2   Br    Br    0.634353 0.693697 0.153620 -0.489134
Br3   Br    Br    0.318850 0.238889 0.169038 -0.345890
Br4   Br    Br    0.101927 0.391352 0.905800 -0.433941
Br5   Br    Br    0.898411 0.614260 0.095622 -0.434361
C1    C     C_R   0.502237 0.260045 0.500413 0.884378
C2    C     C_R   0.184458 0.470535 0.616134 -0.273635
C3    C     C_R   0.230994 0.512156 0.501219 -0.111613
C4    C     C_R   0.326782 0.504163 0.500383 0.959330
C5    C     C_R   0.186551 0.562788 0.389604 0.435313
C6    C     C_R   0.520208 0.062716 0.621817 0.043443
C7    C     C_R   0.514838 0.128882 0.500114 -0.067967
C8    C     C_R   0.524201 0.066457 0.376518 -0.163680
C9    C     C_R   0.522938 0.937503 0.375875 -0.153750
C10   C     C_R   0.512817 0.871831 0.498759 -0.068389
C11   C     C_R   0.518081 0.935283 0.621113 0.034068
C12   C     C_R   0.907691 0.534038 0.381408 0.043866
C13   C     C_3   0.462345 0.926690 0.747774 0.113481
C14   C     C_3   0.464552 0.068490 0.747711 -0.408162
C15   C     C_R   0.450257 0.413597 0.073200 0.032816
C16   C     C_R   0.501744 0.739993 0.499423 0.932144
C17   C     C_R   0.555417 0.577602 0.068855 0.305759
C18   C     C_R   0.555126 0.577284 0.925380 -0.097615
C19   C     C_R   0.450152 0.413677 0.930468 0.089658
C20   C     C_3   0.351257 0.398814 0.927768 0.182437
C21   C     C_3   0.351843 0.397198 0.082025 0.152705
C22   C     C_R   0.673263 0.496669 0.499698 0.937381
C23   C     C_R   0.953305 0.425805 0.735087 -0.196386
C24   C     C_R   0.815546 0.531495 0.383875 -0.260604
C25   C     C_R   0.769141 0.490942 0.499477 -0.147064
C26   C     C_R   0.813767 0.444608 0.613225 0.423855
C27   C     C_R   0.906759 0.454477 0.616459 -0.039061
C28   C     C_R   0.953634 0.498597 0.499832 0.004085
C29   C     C_R   0.045362 0.432612 0.737257 0.298419
C30   C     C_R   0.092454 0.470744 0.619691 0.060267
C31   C     C_R   0.046521 0.507418 0.501766 0.005774
C32   C     C_R   0.093489 0.552621 0.385717 -0.034682
C33   C     C_R   0.047009 0.581796 0.267166 -0.194900
C34   C     C_R   0.954924 0.573237 0.264279 0.300333
H1    H     H_    0.779031 0.563272 0.296738 0.250376
H2    H     H_    0.220590 0.435881 0.701949 0.205307
H3    H     H_    0.081534 0.608604 0.174397 0.208364
H4    H     H_    0.526296 0.116073 0.280251 0.193842
H5    H     H_    0.328329 0.295872 0.772985 0.338303
H6    H     H_    0.797481 0.316377 0.751729 0.334581
H7    H     H_    0.201272 0.694558 0.254322 0.347274
H8    H     H_    0.523856 0.890481 0.279361 0.207354
H9    H     H_    0.498659 0.884530 0.834098 0.144802
H10   H     H_    0.398967 0.110523 0.728286 0.250413
H11   H     H_    0.501877 0.108614 0.834238 0.204510
H12   H     H_    0.598162 0.641319 0.868761 0.180859
H13   H     H_    0.316835 0.480807 0.883727 0.123040
H14   H     H_    0.318739 0.479260 0.126195 0.163349
H15   H     H_    0.918941 0.399871 0.828249 0.212132
N1    N     N_R   0.499390 0.499140 0.142800 -0.146995
N2    N     N_R   0.499390 0.499180 0.857150 -0.144548
O1    O     O_R   0.500010 0.316790 0.614690 -0.620263
O2    O     O_3   0.765074 0.390195 0.718407 -0.732145
O3    O     O_3   0.235490 0.622673 0.288235 -0.762182
O4    O     O_R   0.500000 0.316760 0.385350 -0.611315
O5    O     O_R   0.367850 0.499990 0.614680 -0.653397
O6    O     O_R   0.367840 0.499950 0.385340 -0.564558
O7    O     O_R   0.500000 0.683240 0.614650 -0.620041
O8    O     O_R   0.499990 0.683210 0.385310 -0.593020
O9    O     O_R   0.632160 0.500050 0.614660 -0.560195
O10   O     O_R   0.632150 0.500010 0.385320 -0.606220
O11   O     O_3   0.324883 0.284202 0.872667 -0.664536
Zn1   Zn    Zn3+2 0.500010 0.500020 0.653130 0.997656
Zn2   Zn    Zn3+2 0.499990 0.499980 0.346870 1.032400

loop_
_geom_bond_atom_site_label_1
_geom_bond_atom_site_label_2
_ccdc_geom_bond_type
Br2   C17   S    
C6    C7    A    
C17   N1    A    
C22   O9    A    
C8    C9    A    
H7    O3    S    
C19   N2    A    
C12   C24   A    
C6    C11   A    
C14   H10   S    
C18   H12   S    
C30   C31   A    
C14   H11   S    
C10   C16   S    
O9    Zn1   S    
N2    Zn1   S    
C27   C28   A    
C8    H4    S    
Br5   C34   S    
C5    O3    S    
C20   H13   S    
C23   C29   A    
C18   N2    A    
C22   O10   A    
N1    Zn2   S    
O8    Zn2   S    
C19   C20   S    
C22   C25   S    
O5    Zn1   S    
C6    C14   S    
Br1   C13   S    
C24   C25   A    
C12   C28   A    
O4    Zn2   S    
C5    C32   A    
C4    O5    A    
C26   O2    S    
C11   C13   S    
C31   C32   A    
C32   C33   A    
C33   H3    S    
C2    H2    S    
C1    C7    S    
C25   C26   A    
Br4   C29   S    
H6    O2    S    
C16   O7    A    
O10   Zn2   S    
C15   N1    A    
C10   C11   A    
H5    O11   S    
O1    Zn1   S    
C4    O6    A    
C21   H14   S    
C1    O4    A    
C23   C27   A    
C28   C31   A    
C33   C34   A    
C7    C8    A    
C24   H1    S    
C3    C5    A    
C29   C30   A    
C12   C34   A    
Br3   C21   S    
C2    C3    A    
C23   H15   S    
O7    Zn1   S    
C13   C14   S    
C16   O8    A    
C1    O1    A    
C20   C21   S    
C9    C10   A    
C9    H8    S    
C2    C30   A    
C15   C19   A    
C17   C18   A    
C26   C27   A    
O6    Zn2   S    
C13   H9    S    
C3    C4    S    
C15   C21   S    
C20   O11   S    
