data_mof_unit_18575.cif
_audit_creation_date              2012-12-10T16:48:41-0500
_audit_creation_method            fapswitch 2.2
_symmetry_space_group_name_H-M    P1
_symmetry_Int_Tables_number       1
_space_group_crystal_system       triclinic
_cell_length_a                    7.935056
_cell_length_b                    8.78284
_cell_length_c                    10.238705
_cell_angle_alpha                 91.595966
_cell_angle_beta                  96.230963
_cell_angle_gamma                 92.512869
_cell_volume                      708.279564275

loop_
_atom_site_label
_atom_site_type_symbol
_atom_type_description
_atom_site_fract_x
_atom_site_fract_y
_atom_site_fract_z
_atom_type_partial_charge
C1    C     C_R   0.541913 0.793247 0.494559 0.936626
C2    C     C_R   0.456326 0.206498 0.501590 0.901801
C3    C     C_R   0.565223 0.486032 0.738350 0.938701
C4    C     C_R   0.432674 0.505847 0.261416 0.877823
C5    C     C_2   0.581044 0.449960 0.877797 -0.326035
C6    C     C_2   0.402878 0.486183 0.119326 -0.222610
C7    C     C_2   0.467168 0.348646 0.922011 0.178381
C8    C     C_2   0.436164 0.352448 0.061473 0.223171
C9    C     C_2   0.557825 0.953073 0.475621 -0.060829
C10   C     C_2   0.433781 0.045467 0.510449 -0.058553
H1    H     H_    0.391998 0.588715 0.062607 0.098328
H2    H     H_    0.664754 0.523068 0.946163 0.159468
N1    N     N_2   0.940600 0.458860 0.467170 0.118859
N2    N     N_2   0.059400 0.541140 0.532830 0.116267
O1    O     O_R   0.391630 0.738350 0.508060 -0.620276
O2    O     O_R   0.608370 0.261650 0.491940 -0.619477
O3    O     O_R   0.674540 0.711990 0.487010 -0.591421
O4    O     O_R   0.325460 0.288010 0.512990 -0.602379
O5    O     O_R   0.411370 0.508250 0.688780 -0.564768
O6    O     O_R   0.588630 0.491750 0.311220 -0.564357
O7    O     O_R   0.694270 0.481880 0.667740 -0.532140
O8    O     O_R   0.305730 0.518120 0.332260 -0.530031
Zn1   Zn    Zn3+2 0.311100 0.517600 0.514050 1.105708
Zn2   Zn    Zn3+2 0.688900 0.482400 0.485950 1.115286
C11   C     C_3   0.422766 0.203072 0.130789 -0.787848
H3    H     H_    0.290853 0.153818 0.112294 0.249944
H4    H     H_    0.510524 0.120989 0.093877 0.222578
H5    H     H_    0.453790 0.217313 0.238049 0.240963
C12   C     C_3   0.369663 0.228973 0.831239 -0.808912
H6    H     H_    0.299653 0.143431 0.884794 0.237754
H7    H     H_    0.273189 0.281879 0.762997 0.282638
H8    H     H_    0.460121 0.167201 0.776526 0.212560
C13   C     C_3   0.710425 0.004465 0.406071 -0.749010
H9    H     H_    0.777405 0.908961 0.365001 0.236439
H10   H     H_    0.666608 0.069720 0.319715 0.262768
H11   H     H_    0.806711 0.070425 0.474526 0.278473
C14   C     C_3   0.271883 0.991578 0.568511 -0.743664
H12   H     H_    0.191975 0.083668 0.598660 0.238024
H13   H     H_    0.186509 0.921061 0.495149 0.273395
H14   H     H_    0.307476 0.930385 0.659518 0.276195
S1    S     S_3+6 0.968006 0.393331 0.310036 0.122732
O9    O     O_2   0.001813 0.526290 0.225632 -0.307999
O10   O     O_2   0.106991 0.283020 0.311345 -0.314240
O11   O     O_3   0.792114 0.298627 0.240420 -0.562415
H15   H     H_    0.815576 0.273045 0.149473 0.367917
S2    S     S_3+6 0.033054 0.607128 0.690189 0.117056
O12   O     O_2   0.893965 0.717398 0.689318 -0.304343
O13   O     O_2   0.999204 0.474340 0.774771 -0.318940
O14   O     O_3   0.210070 0.701803 0.759143 -0.561444
H16   H     H_    0.190446 0.722057 0.851821 0.361837

loop_
_geom_bond_atom_site_label_1
_geom_bond_atom_site_label_2
_ccdc_geom_bond_type
N2    Zn1   S    
O5    Zn1   S    
C3    O5    A    
C14   H12   S    
C1    O1    A    
C2    O2    A    
C11   H4    S    
C4    O8    A    
S1    O9    D    
C1    O3    A    
O4    Zn1   S    
N2    S2    S    
N1    S1    S    
C13   H9    S    
C7    C8    S    
C12   H7    S    
N1    N2    D    
C11   H5    S    
C9    C13   S    
C8    C11   S    
S1    O10   D    
S2    O14   S    
C12   H6    S    
C10   C14   S    
C7    C12   S    
O1    Zn1   S    
C13   H10   S    
O14   H16   S    
C12   H8    S    
C14   H13   S    
S1    O11   S    
S2    O13   D    
C3    O7    A    
O3    Zn2   S    
C2    O4    A    
C14   H14   S    
C2    C10   S    
C13   H11   S    
C1    C9    S    
O11   H15   S    
C5    H2    S    
O2    Zn2   S    
C4    C6    S    
C9    C10   D    
O7    Zn2   S    
C6    H1    S    
C5    C7    D    
S2    O12   D    
C6    C8    D    
C11   H3    S    
O8    Zn1   S    
O6    Zn2   S    
N1    Zn2   S    
C3    C5    S    
C4    O6    A    
