data_mof_unit_22805.cif
_audit_creation_date              2012-12-11T14:59:20-0500
_audit_creation_method            fapswitch 2.2
_symmetry_space_group_name_H-M    P1
_symmetry_Int_Tables_number       1
_space_group_crystal_system       triclinic
_cell_length_a                    8.607649
_cell_length_b                    15.338418
_cell_length_c                    19.095977
_cell_angle_alpha                 100.958874
_cell_angle_beta                  92.737019
_cell_angle_gamma                 98.748455
_cell_volume                      2438.77590952

loop_
_atom_site_label
_atom_site_type_symbol
_atom_type_description
_atom_site_fract_x
_atom_site_fract_y
_atom_site_fract_z
_atom_type_partial_charge
Ba1   Ba    Ba6+2 0.854120 0.540280 0.465540 1.740799
Ba2   Ba    Ba6+2 0.335710 0.459790 0.534460 1.713398
C1    C     C_3   0.542165 0.818710 0.252032 -0.195954
C2    C     C_R   0.924566 0.393836 0.078509 -0.128949
C3    C     C_R   0.782570 0.434157 0.945302 -0.018986
C4    C     C_3   0.089923 0.745611 0.279812 0.268516
C5    C     C_R   0.942740 0.463356 0.970180 0.005409
C6    C     C_R   0.726659 0.437311 0.876846 -0.054902
C7    C     C_R   0.828077 0.465917 0.827920 -0.040432
C8    C     C_R   0.982797 0.508033 0.853442 0.017331
C9    C     C_R   0.039126 0.508948 0.925983 0.050680
C10   C     C_R   0.777243 0.455191 0.754994 -0.015596
C11   C     C_R   0.882184 0.485874 0.707463 -0.303169
C12   C     C_3   0.617229 0.760689 0.298211 0.236255
C13   C     C_R   0.032550 0.535401 0.731786 -0.008317
C14   C     C_R   0.079979 0.550227 0.807059 -0.016867
C15   C     C_R   0.158655 0.497277 0.066701 0.090668
C16   C     C_3   0.037121 0.782155 0.214078 -0.173424
C17   C     C_R   0.214945 0.493652 0.139126 0.067037
C18   C     C_R   0.111315 0.453133 0.186136 -0.020097
C19   C     C_R   0.967636 0.400706 0.151969 -0.031724
C20   C     C_R   0.218088 0.607318 0.838881 -0.014928
C21   C     C_R   0.265167 0.614400 0.911427 -0.087469
C22   C     C_R   0.190102 0.555575 0.953500 0.041272
C23   C     C_3   0.500247 0.255708 0.301734 0.255726
C24   C     C_R   0.256086 0.544207 0.022125 -0.043631
C25   C     C_R   0.419836 0.567731 0.044257 -0.019441
C26   C     C_R   0.376014 0.526980 0.162508 -0.027950
C27   C     C_R   0.478899 0.550315 0.110021 -0.008061
C28   C     C_3   0.177384 0.757694 0.651162 0.225083
C29   C     C_R   0.429906 0.530533 0.235653 -0.037310
C30   C     C_R   0.322067 0.500634 0.283436 -0.274368
C31   C     C_R   0.161901 0.460933 0.262191 -0.030843
C32   C     C_R   0.734114 0.238565 0.550342 -0.254431
C33   C     C_R   0.838587 0.181969 0.567319 0.051343
C34   C     C_3   0.512138 0.192721 0.227580 -0.176248
C35   C     C_R   0.788663 0.087001 0.549868 -0.059874
C36   C     C_R   0.632492 0.049552 0.517473 -0.026113
C37   C     C_R   0.544944 0.109987 0.491381 -0.088937
C38   C     C_R   0.596024 0.203204 0.505758 0.031152
C39   C     C_R   0.414308 0.912923 0.467018 -0.116420
C40   C     C_3   0.229135 0.857019 0.691215 -0.073783
C41   C     C_R   0.360509 0.819757 0.449947 -0.003912
C42   C     C_R   0.591449 0.793540 0.514584 0.034627
C43   C     C_R   0.636657 0.886859 0.537764 -0.135357
C44   C     C_R   0.562783 0.949071 0.506346 0.012068
C45   C     C_3   0.083061 0.275581 0.744247 0.250863
C46   C     C_R   0.460910 0.762440 0.466057 -0.252564
C47   C     C_3   0.007543 0.247306 0.367667 0.216704
C48   C     C_3   0.966218 0.141903 0.341797 -0.158826
C49   C     C_3   0.725477 0.670125 0.684526 0.340637
C50   C     C_3   0.667856 0.685907 0.759883 -0.199307
C51   C     C_3   0.745423 0.817035 0.353938 -0.258486
C52   C     C_2   0.386524 0.866364 0.734231 0.503517
C53   C     C_3   0.240239 0.921905 0.638646 -0.392095
C54   C     C_3   0.105871 0.882847 0.743885 -0.387453
C55   C     C_2   0.902018 0.274914 0.422802 0.549884
C56   C     C_3   0.084479 0.228325 0.809813 -0.126173
C57   C     C_3   0.034904 0.092212 0.395029 -0.384993
C58   C     C_3   0.015725 0.105489 0.267402 -0.315853
C59   C     C_2   0.641334 0.841349 0.192574 0.605198
C60   C     C_3   0.767913 0.765389 0.810626 -0.368026
C61   C     C_2   0.495341 0.900608 0.298342 0.600572
C62   C     C_3   0.349987 0.294148 0.294388 -0.363019
C63   C     C_2   0.388019 0.110269 0.210651 0.588907
C64   C     C_2   0.668308 0.163777 0.220718 0.630481
C65   C     C_2   0.148287 0.864386 0.205408 0.444880
C66   C     C_2   0.188976 0.364629 0.760159 0.507945
C67   C     C_3   0.522439 0.225690 0.729120 0.265452
C68   C     C_2   0.996245 0.272344 0.868274 0.599943
C69   C     C_2   0.029917 0.127497 0.791185 0.586974
C70   C     C_2   0.692399 0.231700 0.715159 0.584391
C71   C     C_3   0.433742 0.177683 0.656881 -0.310813
C72   C     C_3   0.533564 0.076377 0.778955 -0.254842
C73   C     C_2   0.509145 0.220004 0.863769 0.608434
C74   C     C_2   0.870114 0.337720 0.185987 0.495374
C75   C     C_3   0.647512 0.535053 0.114948 -0.273592
C76   C     C_2   0.389388 0.500314 0.355358 0.492189
C77   C     C_2   0.814886 0.311467 0.041750 0.536474
C78   C     C_3   0.475914 0.167500 0.787432 -0.110262
C79   C     C_2   0.536856 0.596803 0.994861 0.450972
C80   C     C_2   0.908214 0.028936 0.556081 0.480854
C81   C     C_2   0.010475 0.711993 0.146182 0.489540
C82   C     C_2   0.277966 0.733580 0.592317 0.487224
C83   C     C_R   0.005389 0.452873 0.038763 0.030428
H1    H     H_    0.127906 0.265110 0.389345 0.100666
H2    H     H_    0.432243 0.776574 0.224250 0.010724
H3    H     H_    0.969961 0.294196 0.734417 -0.041199
H4    H     H_    0.206508 0.237968 0.833238 -0.027767
H5    H     H_    0.346914 0.147948 0.780176 0.010505
H6    H     H_    0.002713 0.685772 0.283937 0.128932
H7    H     H_    0.841887 0.476434 0.651573 0.069423
H8    H     H_    0.602499 0.415498 0.862971 0.114561
H9    H     H_    0.289544 0.648821 0.808922 0.094546
H10   H     H_    0.694626 0.408663 0.977578 0.021706
H11   H     H_    0.360112 0.668319 0.933723 0.087021
H12   H     H_    0.836531 0.119973 0.339363 0.152203
H13   H     H_    0.207602 0.725083 0.273374 -0.036288
H14   H     H_    0.335040 0.954747 0.451121 0.079249
H15   H     H_    0.724310 0.908466 0.582219 0.115601
H16   H     H_    0.438511 0.086538 0.456887 0.095054
H17   H     H_    0.423975 0.692769 0.450566 0.163340
H18   H     H_    0.770236 0.310732 0.563983 0.095305
H19   H     H_    0.922527 0.803932 0.223387 0.030199
H20   H     H_    0.052489 0.747162 0.630908 0.081017
H21   H     H_    0.694180 0.861711 0.395442 0.062211
H22   H     H_    0.805622 0.772097 0.380771 0.167474
H23   H     H_    0.852066 0.664214 0.687706 -0.051838
H24   H     H_    0.831498 0.860431 0.328964 0.134294
H25   H     H_    0.389325 0.861882 0.790358 0.024343
H26   H     H_    0.342609 0.915628 0.606290 0.118484
H27   H     H_    0.132079 0.906936 0.601772 0.178174
H28   H     H_    0.253750 0.992359 0.668127 0.140277
H29   H     H_    0.989051 0.878598 0.714858 0.163928
H30   H     H_    0.093887 0.837539 0.782822 0.126954
H31   H     H_    0.142740 0.952554 0.774921 0.123073
H32   H     H_    0.784672 0.240173 0.414877 -0.165445
H33   H     H_    0.006483 0.018128 0.375475 0.141786
H34   H     H_    0.657234 0.605008 0.655503 0.041141
H35   H     H_    0.164922 0.112061 0.404013 0.164859
H36   H     H_    0.980291 0.108092 0.445646 0.090394
H37   H     H_    0.002356 0.150131 0.229068 0.148824
H38   H     H_    0.138584 0.095456 0.272287 0.125603
H39   H     H_    0.943984 0.038611 0.244950 0.183117
H40   H     H_    0.668761 0.787029 0.152174 0.038805
H41   H     H_    0.888076 0.750110 0.820246 0.110342
H42   H     H_    0.773859 0.827631 0.788557 0.193714
H43   H     H_    0.714517 0.776697 0.862717 0.152048
H44   H     H_    0.376665 0.897665 0.314914 -0.021360
H45   H     H_    0.672225 0.625287 0.783037 0.086368
H46   H     H_    0.248447 0.240640 0.276598 0.094902
H47   H     H_    0.327410 0.333541 0.345853 0.072289
H48   H     H_    0.360673 0.335683 0.252924 0.028375
H49   H     H_    0.294625 0.104303 0.168917 -0.013307
H50   H     H_    0.758293 0.192052 0.262188 -0.008908
H51   H     H_    0.154275 0.925869 0.245000 0.068823
H52   H     H_    0.208573 0.401583 0.717790 0.063951
H53   H     H_    0.060152 0.310136 0.917695 0.018203
H54   H     H_    0.067168 0.088116 0.743698 0.072727
H55   H     H_    0.745849 0.285857 0.691689 -0.181868
H56   H     H_    0.543570 0.697353 0.756604 0.137620
H57   H     H_    0.497117 0.125736 0.628644 0.059809
H58   H     H_    0.319986 0.137572 0.662529 0.165814
H59   H     H_    0.418280 0.226479 0.622319 0.158245
H60   H     H_    0.460882 0.033246 0.809732 0.097489
H61   H     H_    0.522907 0.042465 0.721943 0.142937
H62   H     H_    0.657218 0.083761 0.800955 0.250966
H63   H     H_    0.468046 0.283638 0.879174 0.005610
H64   H     H_    0.911547 0.276221 0.191107 0.013059
H65   H     H_    0.654316 0.473822 0.136749 0.143330
H66   H     H_    0.697217 0.520484 0.063387 0.085696
H67   H     H_    0.519868 0.731107 0.327228 -0.023644
H68   H     H_    0.724310 0.596845 0.143147 0.200691
H69   H     H_    0.483929 0.462648 0.362078 0.018174
H70   H     H_    0.690234 0.304208 0.050423 0.038439
H71   H     H_    0.530191 0.560760 0.939851 0.015931
H72   H     H_    0.921291 0.975686 0.511479 0.005593
H73   H     H_    0.978455 0.730414 0.095921 0.076588
H74   H     H_    0.402419 0.752876 0.602653 -0.034869
H75   H     H_    0.602153 0.311710 0.312674 0.073696
H76   H     H_    0.497007 0.231063 0.184488 0.040423
O1    O     O_2   0.871030 0.438240 0.324420 -0.422528
O2    O     O_2   0.156813 0.186423 0.548274 -0.491339
O3    O     O_3   0.126884 0.218776 0.683783 -0.606737
O4    O     O_3   0.120590 0.445310 0.413740 -0.389996
O5    O     O_3   0.582100 0.611510 0.537680 -0.462719
O6    O     O_2   0.334040 0.276520 0.462890 -0.481234
O7    O     O_3   0.497177 0.206951 0.357638 -0.613757
O8    O     O_2   0.476507 0.482753 0.753440 -0.467586
O9    O     O_3   0.475358 0.311830 0.752498 -0.617381
O10   O     O_3   0.663040 0.605930 0.370050 -0.481518
O11   O     O_2   0.770181 0.538970 0.251259 -0.439335
O12   O     O_3   0.704460 0.743333 0.652403 -0.605560
O13   O     O_3   0.987151 0.293083 0.311864 -0.704188
O14   O     O_3   0.685257 0.694407 0.253895 -0.631195
O15   O     O_2   0.855660 0.723510 0.537160 -0.466653
O16   O     O_3   0.086340 0.654970 0.406630 -0.402521
O17   O     O_2   0.049119 0.817220 0.473392 -0.484883
O18   O     O_2   0.511134 0.874326 0.706238 -0.602327
O19   O     O_2   0.943948 0.337859 0.472568 -0.557336
O20   O     O_2   0.688515 0.918964 0.187629 -0.511312
O21   O     O_2   0.591573 0.968598 0.321204 -0.551379
O22   O     O_2   0.391166 0.049588 0.243338 -0.534899
O23   O     O_3   0.093890 0.812690 0.341417 -0.660960
O24   O     O_2   0.696715 0.113371 0.166897 -0.522992
O25   O     O_2   0.229716 0.863941 0.154676 -0.553839
O26   O     O_2   0.250737 0.397489 0.820292 -0.622500
O27   O     O_2   0.853655 0.265982 0.860665 -0.561071
O28   O     O_2   0.951251 0.088152 0.830776 -0.546273
O29   O     O_2   0.761409 0.167917 0.714731 -0.615694
O30   O     O_2   0.574000 0.189991 0.910081 -0.514719
O31   O     O_2   0.736553 0.349077 0.198906 -0.632433
O32   O     O_2   0.353907 0.549794 0.407151 -0.543817
O33   O     O_2   0.866283 0.248674 0.006625 -0.498172
O34   O     O_2   0.318670 0.561790 0.675630 -0.464613
O35   O     O_2   0.641590 0.661225 0.015610 -0.586872
O36   O     O_2   0.988905 0.037922 0.611903 -0.589712
O37   O     O_2   0.019922 0.633906 0.146918 -0.621441
O38   O     O_2   0.221329 0.683409 0.537019 -0.544574
O39   O     O_3   0.069120 0.554770 0.586270 -0.420922
O40   O     O_3   0.526680 0.394150 0.629950 -0.487177
O41   O     O_3   0.195299 0.703380 0.700360 -0.691415
O42   O     O_3   0.607620 0.388570 0.462320 -0.468939
O43   O     O_3   0.103380 0.345110 0.593380 -0.455136
P1    P     P_3+3 0.038110 0.412300 0.335300 1.033543
P2    P     P_3+3 0.679950 0.711710 0.558590 1.014709
P3    P     P_3+3 0.151226 0.772881 0.416988 0.965094
P4    P     P_3+3 0.151600 0.587780 0.664700 1.003823
P5    P     P_3+3 0.049290 0.233833 0.600423 1.005428
P6    P     P_3+3 0.634399 0.589051 0.277043 0.947162
P7    P     P_3+3 0.511764 0.272168 0.446662 0.972726
P8    P     P_3+3 0.569069 0.407912 0.721433 0.932615

loop_
_geom_bond_atom_site_label_1
_geom_bond_atom_site_label_2
_ccdc_geom_bond_type
C57   H36   S    
Ba1   O15   S    
C15   C24   A    
C57   H35   S    
C53   H27   S    
C25   C27   A    
C20   H9    S    
C72   H60   S    
C17   C18   A    
C75   H66   S    
O2    P5    D    
C5    C83   A    
C43   C44   A    
C52   O18   D    
C5    C9    A    
C10   C11   A    
C81   H73   S    
C19   C74   S    
C31   P1    S    
C24   C25   A    
C12   O14   S    
C79   H71   S    
Ba2   O39   S    
C48   C57   S    
C4    H13   S    
C55   H32   S    
C26   C27   A    
C33   C35   A    
C22   C24   A    
C32   C33   A    
O11   P6    D    
C71   H58   S    
C60   H42   S    
C34   C64   S    
C56   C69   S    
O41   P4    S    
C4    H6    S    
C9    C22   A    
C47   C55   S    
C21   H11   S    
C52   H25   S    
C49   O12   S    
Ba2   O34   S    
O14   P6    S    
O15   P2    D    
C11   H7    S    
C58   H39   S    
C40   C54   S    
Ba1   O16   S    
C51   H21   S    
O34   P4    D    
C62   H47   S    
C66   O26   D    
C6    C7    A    
O43   P5    S    
O13   P1    S    
C49   H34   S    
C39   C44   A    
C39   H14   S    
C67   C71   S    
O12   P2    S    
Ba1   P1    S    
C41   C46   A    
Ba2   O5    S    
O40   P8    S    
C63   H49   S    
C65   O25   D    
C68   O27   D    
C75   H68   S    
O6    P7    D    
O39   P4    S    
C61   O21   D    
C72   C78   S    
C28   C82   S    
C39   C41   A    
O7    P7    S    
O42   P7    S    
C66   H52   S    
Ba2   O40   S    
C4    C16   S    
C70   O29   D    
C47   O13   S    
C3    H10   S    
C82   H74   S    
C37   H16   S    
C71   H57   S    
C1    C59   S    
C82   O38   D    
C28   O41   S    
C13   C14   A    
C6    H8    S    
C41   P3    S    
C49   C50   S    
C76   H69   S    
C72   H62   S    
C25   C79   S    
Ba2   O43   S    
C10   P8    S    
C2    C77   S    
C37   C38   A    
C60   H41   S    
C80   H72   S    
C34   C63   S    
C49   H23   S    
C69   H54   S    
C2    C83   A    
C53   H28   S    
C16   C65   S    
O8    P8    D    
C1    H2    S    
Ba1   O10   S    
O16   P3    S    
C4    O23   S    
C23   C62   S    
C67   C70   S    
C73   O30   D    
C35   C36   A    
C74   O31   D    
C40   C53   S    
C55   O19   D    
C23   O7    S    
C51   H22   S    
C29   C30   A    
C38   P7    S    
C62   H46   S    
Ba1   O4    S    
O3    P5    S    
C21   C22   A    
C46   H17   S    
O17   P3    D    
C12   C51   S    
C23   H75   S    
C42   P2    S    
C16   C81   S    
C54   H31   S    
C27   C75   S    
C16   H19   S    
C69   O28   D    
C81   O37   D    
C58   H37   S    
Ba1   P2    S    
C77   O33   D    
Ba2   O4    S    
C1    C12   S    
C80   O36   D    
C18   C31   A    
Ba1   O1    S    
C68   H53   S    
C57   H33   S    
C11   C13   A    
C28   H20   S    
C17   C26   A    
C34   H76   S    
C15   C83   A    
C35   C80   S    
Ba1   O39   S    
Ba2   P4    S    
C45   O3    S    
Ba1   O42   S    
C45   C66   S    
C42   C43   A    
C3    C5    A    
C7    C8    A    
C51   H24   S    
O10   P6    S    
C62   H48   S    
C48   H12   S    
C14   C20   A    
C53   H26   S    
C47   H1    S    
C72   H61   S    
C26   C29   A    
C56   C68   S    
Ba2   O42   S    
C13   P4    S    
C43   H15   S    
C75   H65   S    
C3    C6    A    
C1    C61   S    
C73   H63   S    
C77   H70   S    
C59   O20   D    
C50   H56   S    
C48   C58   S    
C45   H3    S    
C63   O22   D    
C65   H51   S    
C33   P5    S    
C50   H45   S    
O23   P3    S    
O1    P1    D    
C8    C14   A    
C30   C31   A    
C45   C56   S    
C60   H43   S    
C2    C19   A    
C36   C37   A    
C29   P6    S    
C74   H64   S    
Ba1   Ba2   S    
C32   H18   S    
C15   C17   A    
C54   H30   S    
C56   H4    S    
C28   C40   S    
C67   O9    S    
C61   H44   S    
C78   H5    S    
C7    C10   A    
C36   C44   S    
C8    C9    A    
C23   C34   S    
C30   C76   S    
C64   H50   S    
C70   H55   S    
C73   C78   S    
O9    P8    S    
C18   C19   A    
C47   C48   S    
C64   O24   D    
C12   H67   S    
C50   C60   S    
C54   H29   S    
C20   C21   A    
C32   C38   A    
C67   C78   S    
C59   H40   S    
O5    P2    S    
O4    P1    S    
Ba2   O6    S    
C76   O32   D    
C40   C52   S    
C58   H38   S    
C42   C46   A    
Ba1   O5    S    
C79   O35   D    
C71   H59   S    
