data_mof_unit_23190.cif
_audit_creation_date              2013-03-05T16:50:02-0500
_audit_creation_method            fapswitch 2.2
_symmetry_space_group_name_H-M    P1
_symmetry_Int_Tables_number       1
_space_group_crystal_system       triclinic
_cell_length_a                    27.721391
_cell_length_b                    10.923996
_cell_length_c                    26.620753
_cell_angle_alpha                 92.124504
_cell_angle_beta                  89.655826
_cell_angle_gamma                 89.295102
_cell_volume                      8055.19968992

loop_
_atom_site_label
_atom_site_type_symbol
_atom_site_description
_atom_site_fract_x
_atom_site_fract_y
_atom_site_fract_z
_atom_type_partial_charge
O1    O     O_R   0.500000 0.319660 0.542350 -0.567328
O2    O     O_R   0.500000 0.680340 0.457650 -0.590949
O3    O     O_R   0.500000 0.319630 0.457650 -0.575391
O4    O     O_R   0.500000 0.680370 0.542350 -0.521245
C1    C     C_R   0.501183 0.261878 0.498928 0.813952
C2    C     C_R   0.500560 0.738174 0.501112 0.823690
O5    O     O_R   0.430260 0.500030 0.542340 -0.579862
O6    O     O_R   0.569740 0.499970 0.457660 -0.529470
O7    O     O_R   0.430270 0.500010 0.457650 -0.506514
O8    O     O_R   0.569730 0.499990 0.542350 -0.568403
C3    C     C_R   0.407437 0.500204 0.499961 0.917136
C4    C     C_R   0.592455 0.500261 0.499616 0.894152
Cu1   Cu    Cu3+1 0.500000 0.500020 0.550150 1.025077
Cu2   Cu    Cu3+1 0.500000 0.499980 0.449850 1.042400
O9    O     O_2   0.419820 0.587230 0.791412 -0.572157
O10   O     O_2   0.537111 0.300982 0.206889 -0.586488
C5    C     C_R   0.452151 0.686344 0.057308 0.496165
C6    C     C_R   0.559355 0.338892 0.938146 0.530131
C7    C     C_R   0.179862 0.402519 0.456581 0.543352
C8    C     C_R   0.822564 0.599861 0.465735 0.544700
O11   O     O_2   0.206526 0.312180 0.433812 -0.564811
O12   O     O_2   0.797772 0.699554 0.451489 -0.588091
N1    N     N_R   0.202097 0.497132 0.481804 -0.442650
N2    N     N_R   0.798857 0.496730 0.479977 -0.434947
C9    C     C_R   0.175901 0.592557 0.503402 0.589815
C10   C     C_R   0.824907 0.391475 0.488501 0.592137
C11   C     C_R   0.280522 0.592621 0.468033 -0.207822
C12   C     C_R   0.719546 0.395054 0.470562 -0.223540
C13   C     C_R   0.329883 0.600171 0.477351 0.396287
C14   C     C_R   0.669907 0.391072 0.479463 0.354360
C15   C     C_R   0.328436 0.399261 0.514532 0.412503
C16   C     C_R   0.671215 0.605811 0.506879 0.339348
C17   C     C_R   0.277470 0.401664 0.510714 -0.220263
C18   C     C_R   0.721675 0.601975 0.505803 -0.192569
C19   C     C_R   0.253820 0.496204 0.486312 0.229467
C20   C     C_R   0.746638 0.497806 0.485928 0.196669
C21   C     C_R   0.102104 0.500228 0.473545 -0.121660
C22   C     C_R   0.899181 0.491892 0.469406 -0.119684
C23   C     C_R   0.129383 0.398883 0.454542 0.028894
C24   C     C_R   0.873088 0.602433 0.465776 0.036067
C25   C     C_R   0.105720 0.297172 0.433406 -0.206396
C26   C     C_R   0.897993 0.712473 0.462212 -0.180807
C27   C     C_R   0.125689 0.602459 0.495416 -0.179865
C28   C     C_R   0.874408 0.382663 0.475756 -0.202356
C29   C     C_R   0.354384 0.501115 0.498772 -0.242284
C30   C     C_R   0.645292 0.497592 0.497608 -0.254521
H1    H     H_    0.255760 0.329955 0.525851 0.155871
H2    H     H_    0.740835 0.682771 0.518640 0.199462
H3    H     H_    0.125810 0.220495 0.416465 0.175445
H4    H     H_    0.879026 0.798302 0.457440 0.170915
C31   C     C_R   0.976370 0.380430 0.462978 -0.131381
C32   C     C_R   0.024247 0.604741 0.484272 -0.116095
C33   C     C_R   0.974205 0.604792 0.474206 0.149093
C34   C     C_R   0.027451 0.387775 0.456556 0.140261
C35   C     C_R   0.950019 0.491922 0.468375 -0.004170
C36   C     C_R   0.051241 0.498019 0.471160 0.000968
C37   C     C_R   0.950886 0.267724 0.465083 0.406136
C38   C     C_R   0.047221 0.706249 0.508346 0.350198
C39   C     C_R   0.899896 0.269406 0.471614 0.396691
C40   C     C_R   0.098403 0.707845 0.511133 0.409434
H5    H     H_    0.463793 0.677501 0.724883 0.228086
H6    H     H_    0.570789 0.433629 0.272542 0.213047
O13   O     O_2   0.803673 0.297427 0.511023 -0.527875
O14   O     O_2   0.198196 0.674070 0.534286 -0.522940
C41   C     C_R   0.055641 0.291250 0.434847 -0.158780
C42   C     C_R   0.947795 0.714050 0.468024 -0.154269
H7    H     H_    0.736898 0.316467 0.451842 0.177265
H8    H     H_    0.262334 0.665773 0.449034 0.145305
H9    H     H_    0.039687 0.213026 0.416227 0.171519
H10   H     H_    0.965614 0.800699 0.465554 0.143808
H11   H     H_    0.465185 0.223003 0.268512 0.206843
H12   H     H_    0.500722 0.894640 0.746881 0.165141
C43   C     C_R   0.436779 0.203676 0.342976 -0.255955
C44   C     C_R   0.540809 0.850506 0.679341 -0.245032
H13   H     H_    0.402265 0.244561 0.334369 0.157612
H14   H     H_    0.570150 0.814609 0.701159 0.146786
C45   C     C_R   0.444525 0.157537 0.390649 0.529927
C46   C     C_R   0.541875 0.848593 0.625825 0.497887
C47   C     C_R   0.489541 0.103878 0.402179 -0.083690
C48   C     C_R   0.503582 0.907527 0.600454 0.002629
C49   C     C_R   0.524423 0.086174 0.363502 0.384551
C50   C     C_R   0.464113 0.958356 0.629069 0.452990
C51   C     C_R   0.515343 0.129807 0.315547 -0.130063
C52   C     C_R   0.462491 0.946765 0.681288 -0.196522
H15   H     H_    0.541426 0.114375 0.285532 0.182852
H16   H     H_    0.431628 0.979297 0.703000 0.139741
C53   C     C_R   0.472088 0.190348 0.305677 -0.269576
C54   C     C_R   0.501393 0.897788 0.706274 -0.266877
C55   C     C_R   0.499505 0.928285 0.456140 -0.234948
C56   C     C_R   0.513613 0.071581 0.542394 -0.268231
H17   H     H_    0.495489 0.873830 0.421674 0.173257
H18   H     H_    0.521383 0.127026 0.575866 0.186469
C57   C     C_R   0.502911 0.872035 0.502662 -0.093942
C58   C     C_R   0.504245 0.127849 0.497115 -0.097342
C59   C     C_R   0.508858 0.946061 0.547282 0.090374
C60   C     C_R   0.498193 0.054649 0.452737 0.086667
H19   H     H_    0.394796 0.657254 0.875758 0.188427
H20   H     H_    0.580878 0.273499 0.125703 0.182937
C61   C     C_R   0.477812 0.591683 0.187816 0.652741
C62   C     C_R   0.539872 0.468559 0.812628 0.628059
O15   O     O_2   0.462735 0.693025 0.214163 -0.517877
O16   O     O_2   0.581373 0.441273 0.787777 -0.515096
N3    N     N_R   0.497100 0.493714 0.212343 -0.413755
N4    N     N_R   0.500034 0.510121 0.787267 -0.421310
C63   C     C_R   0.519545 0.400449 0.184300 0.555267
C64   C     C_R   0.460828 0.555062 0.814810 0.560222
C65   C     C_R   0.538690 0.460537 0.293537 -0.406730
C66   C     C_R   0.477708 0.596607 0.705037 -0.405697
C67   C     C_R   0.539601 0.460652 0.346627 0.562749
C68   C     C_R   0.473779 0.587347 0.652201 0.562843
C69   C     C_R   0.460340 0.544138 0.349767 0.455581
C70   C     C_R   0.524907 0.411980 0.650588 0.452893
C71   C     C_R   0.456233 0.528832 0.296653 0.342448
C72   C     C_R   0.518174 0.400825 0.703367 0.334049
C73   C     C_R   0.497040 0.493336 0.267510 0.126261
C74   C     C_R   0.498561 0.502029 0.732043 0.102503
C75   C     C_R   0.499545 0.497530 0.106235 -0.056424
C76   C     C_R   0.500148 0.507987 0.893198 -0.070467
C77   C     C_R   0.475219 0.589983 0.134783 -0.108972
C78   C     C_R   0.537688 0.452658 0.864872 -0.109858
C79   C     C_R   0.452244 0.684447 0.109903 -0.259193
C80   C     C_R   0.568631 0.370859 0.888206 -0.268465
C81   C     C_R   0.524624 0.407111 0.131542 -0.050559
C82   C     C_R   0.462204 0.564240 0.868037 -0.056887
N5    N     N_R   0.500000 0.499970 0.374520 -0.271630
N6    N     N_R   0.500000 0.500030 0.625480 -0.271269
H21   H     H_    0.435552 0.760564 0.131022 0.199173
H22   H     H_    0.594688 0.318008 0.865742 0.186185
C83   C     C_R   0.465735 0.574084 0.974839 -0.004393
C84   C     C_R   0.532098 0.417273 0.024607 -0.009156
C85   C     C_R   0.532301 0.421425 0.970490 -0.014531
C86   C     C_R   0.471360 0.585383 0.027976 -0.013259
C87   C     C_R   0.500078 0.503268 0.946494 -0.075195
C88   C     C_R   0.500388 0.498350 0.052682 -0.069960
C89   C     C_R   0.424692 0.622409 0.949715 0.497450
C90   C     C_R   0.565185 0.344316 0.052326 0.488136
C91   C     C_R   0.424343 0.618612 0.896267 -0.313256
C92   C     C_R   0.557547 0.332113 0.104577 -0.299587
O17   O     O_3   0.448482 0.675278 0.626815 -0.548784
C93   C     C_3   0.399489 0.677322 0.641814 -0.330277
H23   H     H_    0.393842 0.681705 0.683171 0.181026
H24   H     H_    0.380476 0.597113 0.624918 0.173101
H25   H     H_    0.382536 0.761745 0.628043 0.191365
O18   O     O_3   0.580174 0.416866 0.370384 -0.540765
C94   C     C_3   0.620914 0.486234 0.357411 -0.301308
H26   H     H_    0.612660 0.586251 0.356203 0.144482
H27   H     H_    0.636843 0.451551 0.321187 0.148700
H28   H     H_    0.648962 0.475167 0.386314 0.195937
O19   O     O_3   0.976558 0.159323 0.471110 -0.566948
C95   C     C_3   0.967067 0.073406 0.431458 -0.375252
H29   H     H_    0.956494 0.116241 0.395700 0.130602
H30   H     H_    0.939675 0.007392 0.443554 0.208503
H31   H     H_    0.000453 0.019534 0.422958 0.156654
O20   O     O_3   0.019059 0.780944 0.540700 -0.557948
C96   C     C_3   0.024035 0.906452 0.531729 -0.200239
H32   H     H_    0.033836 0.924465 0.492180 0.108473
H33   H     H_    0.050139 0.947998 0.558554 0.205155
H34   H     H_    0.988764 0.952696 0.539384 0.213746
O21   O     O_3   0.406652 0.158603 0.424540 -0.563752
C97   C     C_3   0.381207 0.047929 0.417420 -0.342351
H35   H     H_    0.395761 0.978818 0.442908 0.174295
H36   H     H_    0.381731 0.009701 0.377922 0.146894
H37   H     H_    0.342756 0.064380 0.426918 0.182767
O22   O     O_3   0.579983 0.796583 0.597458 -0.561047
C98   C     C_3   0.606080 0.707453 0.624015 -0.169776
H38   H     H_    0.581941 0.644976 0.644242 0.118281
H39   H     H_    0.632258 0.752459 0.649934 0.135251
H40   H     H_    0.627186 0.647663 0.597712 0.213017
O23   O     O_3   0.565022 0.014485 0.370847 -0.633705
C99   C     C_3   0.604514 0.089371 0.383946 0.075562
H41   H     H_    0.622184 0.048633 0.416782 0.159536
H42   H     H_    0.594247 0.185665 0.395205 0.219010
C100  C     C_3   0.641148 0.088820 0.340775 -0.335031
H43   H     H_    0.652134 0.992792 0.330669 0.220973
H44   H     H_    0.624609 0.129788 0.307334 0.219983
C101  C     C_3   0.685817 0.161662 0.355506 -0.879513
H45   H     H_    0.676194 0.259655 0.362410 0.284905
H46   H     H_    0.712867 0.154353 0.324591 0.238822
H47   H     H_    0.702017 0.125732 0.390123 0.260300
O24   O     O_3   0.426736 0.018665 0.605467 -0.645808
C102  C     C_3   0.427327 0.146243 0.618026 0.044548
H48   H     H_    0.425084 0.195322 0.582404 0.229633
H49   H     H_    0.461288 0.178082 0.636181 0.133859
C103  C     C_3   0.383768 0.184712 0.651003 -0.359364
H50   H     H_    0.350028 0.153849 0.632674 0.233135
H51   H     H_    0.385831 0.141535 0.687912 0.197804
C104  C     C_3   0.381313 0.323531 0.660142 -0.847682
H52   H     H_    0.379123 0.370550 0.624034 0.288269
H53   H     H_    0.413646 0.356121 0.680735 0.234776
H54   H     H_    0.348805 0.348610 0.682997 0.255973
O25   O     O_3   0.384240 0.654983 0.979449 -0.580928
C105  C     C_3   0.345547 0.713328 0.954997 0.103269
H55   H     H_    0.314436 0.715828 0.981528 0.165443
H56   H     H_    0.332475 0.658740 0.921909 0.122619
C106  C     C_3   0.357228 0.846704 0.943662 -0.352724
H57   H     H_    0.360723 0.900278 0.979705 0.241637
H58   H     H_    0.391928 0.852214 0.922915 0.217748
C107  C     C_3   0.317543 0.904564 0.912635 -0.924157
H59   H     H_    0.314156 0.854242 0.875817 0.264573
H60   H     H_    0.326640 0.001254 0.905750 0.260121
H61   H     H_    0.282506 0.902893 0.933051 0.260836
O26   O     O_3   0.609470 0.310136 0.030479 -0.579388
C108  C     C_3   0.627387 0.194963 0.045578 0.115205
H62   H     H_    0.639559 0.142262 0.011225 0.186515
H63   H     H_    0.599710 0.136730 0.063188 0.114234
C109  C     C_3   0.671470 0.213104 0.079362 -0.375689
H64   H     H_    0.700665 0.256196 0.057616 0.231951
H65   H     H_    0.662415 0.275458 0.112014 0.221112
C110  C     C_3   0.689907 0.091314 0.098501 -0.914346
H66   H     H_    0.661662 0.048196 0.121494 0.259105
H67   H     H_    0.722166 0.107225 0.122274 0.261137
H68   H     H_    0.700136 0.028101 0.066445 0.256946
O27   O     O_3   0.354450 0.302603 0.534278 -0.589692
C111  C     C_3   0.330918 0.189454 0.528066 -0.284152
H69   H     H_    0.312760 0.178808 0.491108 0.175483
H70   H     H_    0.304374 0.178537 0.558882 0.155805
H71   H     H_    0.358350 0.115189 0.529900 0.220598
O28   O     O_3   0.647334 0.716256 0.516097 -0.562218
C112  C     C_3   0.643349 0.776830 0.470387 -0.261964
H72   H     H_    0.625663 0.718689 0.440775 0.153684
H73   H     H_    0.679293 0.806975 0.457146 0.167121
H74   H     H_    0.620277 0.859669 0.476646 0.189108
O29   O     O_3   0.424133 0.605032 0.376789 -0.526328
C113  C     C_3   0.422372 0.729389 0.363869 -0.170981
H75   H     H_    0.395660 0.742551 0.333600 0.200831
H76   H     H_    0.457996 0.766160 0.352387 0.115457
H77   H     H_    0.410070 0.785011 0.397184 0.179762
O30   O     O_3   0.556301 0.334116 0.623781 -0.565575
C114  C     C_3   0.603068 0.339807 0.645017 -0.235680
H78   H     H_    0.608887 0.261327 0.669676 0.215674
H79   H     H_    0.610599 0.427533 0.666185 0.142780
H80   H     H_    0.630497 0.332177 0.614760 0.142448
O31   O     O_3   0.413415 0.558556 0.273370 -0.533391
C115  C     C_3   0.381272 0.460699 0.277523 -0.282843
H81   H     H_    0.371410 0.446515 0.317432 0.181858
H82   H     H_    0.396355 0.375122 0.259310 0.141644
H83   H     H_    0.347584 0.483735 0.257489 0.194498
O32   O     O_3   0.535438 0.296289 0.725647 -0.537080
C116  C     C_3   0.497015 0.232292 0.747206 -0.281489
H84   H     H_    0.467832 0.213552 0.719920 0.140979
H85   H     H_    0.481917 0.281197 0.781082 0.160132
H86   H     H_    0.511058 0.142739 0.759378 0.188291
O33   O     O_3   0.435995 0.791710 0.035095 -0.585764
C117  C     C_3   0.471384 0.883566 0.040226 0.017942
H87   H     H_    0.499245 0.868898 0.010262 0.140375
H88   H     H_    0.489681 0.884199 0.077475 0.145849
C118  C     C_3   0.447275 0.008793 0.034652 -0.330965
H89   H     H_    0.435133 0.017505 0.995259 0.213444
H90   H     H_    0.415094 0.016889 0.059733 0.234055
C119  C     C_3   0.481661 0.112540 0.048451 -0.913326
H91   H     H_    0.491021 0.110900 0.088939 0.266425
H92   H     H_    0.464124 0.202012 0.041134 0.259838
H93   H     H_    0.515261 0.103343 0.025704 0.268529
O34   O     O_3   0.570938 0.222410 0.953979 -0.614123
C120  C     C_3   0.556057 0.127062 0.919925 0.017334
H94   H     H_    0.564344 0.039351 0.938073 0.170148
H95   H     H_    0.577695 0.124986 0.884649 0.145510
C121  C     C_3   0.501578 0.131288 0.908407 -0.381469
H96   H     H_    0.480796 0.152804 0.943377 0.236217
H97   H     H_    0.493752 0.204526 0.881674 0.208796
C122  C     C_3   0.484426 0.009804 0.885086 -0.918994
H98   H     H_    0.504679 0.987050 0.849760 0.253813
H99   H     H_    0.445430 0.017082 0.876218 0.255577
H100  H     H_    0.489630 0.934955 0.911749 0.256789
O35   O     O_3   0.645220 0.288270 0.462857 -0.618942
C123  C     C_3   0.631669 0.218038 0.504055 0.029736
H101  H     H_    0.601191 0.160049 0.491769 0.153084
H102  H     H_    0.617712 0.275079 0.536307 0.158713
C124  C     C_3   0.672917 0.133268 0.519865 -0.409011
H103  H     H_    0.685203 0.075545 0.486868 0.216559
H104  H     H_    0.703822 0.188585 0.533635 0.247718
C125  C     C_3   0.656709 0.050280 0.561519 -0.806880
H105  H     H_    0.647413 0.105678 0.596089 0.245027
H106  H     H_    0.686335 0.985304 0.570271 0.270846
H107  H     H_    0.624663 0.996956 0.549599 0.282662
O36   O     O_3   0.353519 0.707423 0.467172 -0.610241
C126  C     C_3   0.357626 0.778879 0.512512 0.051399
H108  H     H_    0.389289 0.839329 0.509201 0.161291
H109  H     H_    0.365266 0.721850 0.545330 0.144468
C127  C     C_3   0.312388 0.859363 0.522216 -0.368745
H110  H     H_    0.312963 0.938051 0.497113 0.191478
H111  H     H_    0.279393 0.807313 0.513801 0.253011
C128  C     C_3   0.308418 0.904826 0.576922 -0.907552
H112  H     H_    0.302258 0.826571 0.601540 0.267248
H113  H     H_    0.277392 0.969546 0.581519 0.250324
H114  H     H_    0.341704 0.952233 0.588716 0.287601
O37   O     O_3   0.875939 0.159970 0.477373 -0.547316
C129  C     C_3   0.849094 0.129927 0.433421 0.064503
H115  H     H_    0.873383 0.089854 0.403766 0.117897
H116  H     H_    0.830522 0.210471 0.417331 0.113413
C130  C     C_3   0.810572 0.036403 0.446010 -0.272558
H117  H     H_    0.825744 0.967521 0.471383 0.246029
H118  H     H_    0.779995 0.083972 0.465980 0.226734
C131  C     C_3   0.791771 0.970379 0.398671 -0.912157
H119  H     H_    0.780789 0.037391 0.370450 0.242981
H120  H     H_    0.760081 0.914425 0.408305 0.279154
H121  H     H_    0.820297 0.908911 0.381989 0.269326
O38   O     O_3   0.121529 0.810123 0.531313 -0.550174
C132  C     C_3   0.131586 0.893878 0.492963 0.054265
H122  H     H_    0.115048 0.983685 0.504526 0.159133
H123  H     H_    0.116543 0.867633 0.455249 0.082472
C133  C     C_3   0.185953 0.912660 0.487762 -0.320755
H124  H     H_    0.202247 0.922064 0.525718 0.261500
H125  H     H_    0.202359 0.832416 0.467055 0.213000
C134  C     C_3   0.197247 0.027168 0.459071 -0.891016
H126  H     H_    0.180810 0.021555 0.421119 0.259551
H127  H     H_    0.236918 0.035841 0.454822 0.255093
H128  H     H_    0.183104 0.109677 0.480170 0.277198

loop_
_geom_bond_atom_site_label_1
_geom_bond_atom_site_label_2
_geom_bond_distance
_ccdc_geom_bond_type
O5    Cu1   1.945677 S    
C51   C53   1.393324 A    
C108  H62   1.110883 S    
C120  H95   1.110625 S    
C46   O22   1.397458 S    
C98   H38   1.112502 S    
C70   O30   1.385435 S    
C11   C13   1.395020 A    
C65   C67   1.413633 A    
O23   C99   1.412371 S    
C67   O18   1.382577 S    
C61   N3    1.378215 A    
C130  H117  1.110258 S    
C109  C110  1.525614 S    
C127  C128  1.524044 S    
C132  H122  1.110057 S    
C129  H115  1.108592 S    
C113  H75   1.109692 S    
C9    C27   1.412773 A    
C46   C48   1.421801 A    
C90   O26   1.395983 S    
C94   H26   1.115197 S    
C10   C28   1.412850 A    
C56   C59   1.389938 A    
C23   C25   1.399082 A    
C34   C41   1.409127 A    
O2    C2    1.297796 A    
C102  H48   1.108197 S    
C103  H50   1.107953 S    
C71   O31   1.383051 S    
C116  H85   1.108211 S    
C108  H63   1.114862 S    
C81   C92   1.396277 A    
C131  H121  1.110877 S    
N2    C20   1.455146 S    
Cu2   N5    2.005337 S    
C44   H14   1.080470 S    
H20   C92   1.079551 S    
O1    C1    1.296385 A    
O9    C64   1.348597 S    
C68   O17   1.381450 S    
C7    O11   1.349054 S    
C93   H24   1.110337 S    
C79   H21   1.083687 S    
C114  H80   1.104549 S    
C75   C77   1.404451 A    
C131  H119  1.109499 S    
C8    C24   1.401248 A    
C109  H65   1.109853 S    
C100  C101  1.525525 S    
C96   H33   1.108980 S    
C99   H41   1.109374 S    
C28   C39   1.417584 A    
C38   C40   1.421502 A    
O33   C117  1.415500 S    
C106  H58   1.109727 S    
C62   N4    1.378740 A    
C110  H68   1.110890 S    
C124  H103  1.111436 S    
C117  H87   1.112890 S    
C63   C81   1.415305 A    
C18   C20   1.409009 A    
H19   C91   1.077550 S    
O4    Cu1   1.988694 S    
H5    C66   1.078588 S    
C43   C45   1.399587 A    
C43   C53   1.392571 A    
C104  H54   1.110087 S    
C11   H8    1.082453 S    
C38   O20   1.393287 S    
C94   H27   1.109992 S    
N4    C74   1.470303 S    
C21   C36   1.412267 A    
C101  H47   1.110139 S    
C22   C35   1.409426 A    
C116  H84   1.106407 S    
C117  H88   1.116344 S    
C125  H105  1.109771 S    
C134  H127  1.110438 S    
C95   H31   1.108275 S    
C37   O19   1.388972 S    
C69   N5    1.376587 A    
O6    Cu2   1.945677 S    
C93   H25   1.105557 S    
C56   C58   1.397467 A    
C107  H59   1.110903 S    
C62   C78   1.408989 A    
C49   O23   1.382194 S    
C55   H17   1.081895 S    
O31   C115  1.407095 S    
C70   N6    1.373154 A    
C69   C71   1.423027 A    
C72   O32   1.387461 S    
C83   C86   1.425014 A    
C76   C87   1.421623 A    
C134  H128  1.110280 S    
C119  H93   1.109420 S    
C118  H90   1.111756 S    
C9    O14   1.347649 S    
C120  C121  1.543321 S    
C57   C59   1.423523 A    
C22   C24   1.406667 A    
C83   C89   1.428658 A    
Cu1   Cu2   2.670048 S    
C128  H114  1.105166 S    
C100  H44   1.110138 S    
C43   H13   1.080327 S    
C6    C85   1.426455 A    
C84   C88   1.428143 A    
C115  H82   1.112738 S    
C89   O25   1.403342 S    
C105  C106  1.536798 S    
C75   C88   1.426040 A    
O8    C4    1.297195 A    
C25   H3    1.082892 S    
O30   C114  1.418597 S    
H12   C54   1.082857 S    
C78   C80   1.396001 A    
O5    C3    1.296828 A    
C133  H125  1.109252 S    
C33   C35   1.414671 A    
C32   C38   1.419689 A    
C108  C109  1.532123 S    
C34   C36   1.422799 A    
O26   C108  1.419758 S    
O25   C105  1.415192 S    
C68   N6    1.367706 A    
C97   H37   1.105024 S    
C8    N2    1.375417 A    
C82   C91   1.400431 A    
C5    C79   1.401058 A    
C130  C131  1.526332 S    
C127  H110  1.108388 S    
O29   C113  1.413981 S    
C4    C30   1.465247 S    
C123  H101  1.106008 S    
C102  H49   1.114409 S    
C112  H72   1.113713 S    
C122  H99   1.110418 S    
C111  H69   1.110749 S    
C76   C82   1.398495 A    
H6    C65   1.079802 S    
C110  H67   1.110360 S    
C11   C19   1.395320 A    
C119  H91   1.110867 S    
O27   C111  1.409481 S    
C39   O37   1.387669 S    
C111  H71   1.107721 S    
C6    O34   1.389674 S    
C106  H57   1.110579 S    
C13   C29   1.410583 A    
C115  H83   1.109057 S    
C129  H116  1.114510 S    
C21   C27   1.409942 A    
C121  H97   1.110583 S    
O7    Cu2   1.942890 S    
C129  C130  1.531143 S    
C22   C28   1.399155 A    
C114  H78   1.109734 S    
C95   H30   1.108198 S    
C112  H73   1.112666 S    
C13   O36   1.384099 S    
O7    C3    1.288621 A    
C115  H81   1.112320 S    
C96   H34   1.109324 S    
C56   H18   1.082923 S    
O21   C97   1.414487 S    
C133  C134  1.524359 S    
C114  H79   1.116159 S    
C8    O12   1.348148 S    
O6    C4    1.285388 A    
C2    C57   1.463606 S    
C40   O38   1.387500 S    
C12   H7    1.082567 S    
C107  H61   1.110834 S    
C62   O16   1.348274 S    
C110  H66   1.110971 S    
C126  C127  1.537696 S    
C45   C47   1.412440 A    
N3    C63   1.380176 A    
C14   O35   1.382258 S    
C69   O29   1.380867 S    
C93   H23   1.110271 S    
C48   C59   1.498442 S    
C58   C60   1.413790 A    
C33   C42   1.407875 A    
C132  H123  1.118337 S    
C65   C73   1.399757 A    
O20   C96   1.408670 S    
C77   C79   1.395967 A    
C7    C23   1.401717 A    
O10   C63   1.348449 S    
C45   O21   1.379816 S    
C86   C88   1.420516 A    
H11   C53   1.081444 S    
C70   C72   1.426134 A    
C27   C40   1.418325 A    
C125  H106  1.110305 S    
C101  H45   1.108435 S    
C51   H15   1.081561 S    
C26   H4    1.081295 S    
C98   H40   1.100434 S    
C50   C52   1.401048 A    
C126  H109  1.111546 S    
O37   C129  1.420744 S    
C44   C46   1.424136 A    
C17   H1    1.081794 S    
C83   C87   1.415693 A    
C3    C29   1.471139 S    
O4    C2    1.286682 A    
O1    Cu1   1.973493 S    
O38   C132  1.424495 S    
Cu1   N6    2.005337 S    
C50   O24   1.387126 S    
C120  H94   1.111074 S    
C113  H77   1.106040 S    
O3    C1    1.287582 A    
C128  H112  1.110495 S    
C94   H28   1.105863 S    
C32   C33   1.414460 A    
C7    N1    1.366820 A    
C90   C92   1.417157 A    
C47   C49   1.414637 A    
O35   C123  1.413177 S    
C118  C119  1.525761 S    
C67   N5    1.376938 A    
C89   C91   1.421966 A    
O32   C116  1.411851 S    
O22   C98   1.418107 S    
C15   C17   1.417107 A    
C10   O13   1.348252 S    
C102  C103  1.533880 S    
C130  H118  1.111031 S    
C109  H64   1.111632 S    
C16   C30   1.405804 A    
C14   C30   1.409899 A    
C97   H36   1.116825 S    
C84   C90   1.433427 A    
C52   C54   1.382906 A    
C127  H111  1.102698 S    
O18   C94   1.415900 S    
C85   C87   1.426476 A    
O8    Cu1   1.942887 S    
C113  H76   1.115920 S    
C49   C51   1.402244 A    
C122  H100  1.111089 S    
C72   C74   1.420663 A    
O17   C93   1.412998 S    
C103  C104  1.527541 S    
C12   C14   1.396396 A    
C133  H124  1.111063 S    
C15   O27   1.392196 S    
O3    Cu2   1.988696 S    
C1    C58   1.464544 S    
C6    C80   1.409954 A    
C42   H10   1.077044 S    
N1    C19   1.439528 S    
N3    C73   1.468729 S    
C103  H51   1.107045 S    
C117  C118  1.527688 S    
C31   C34   1.428883 A    
N4    C64   1.382188 A    
C97   H35   1.107663 S    
C106  C107  1.524631 S    
O34   C120  1.421950 S    
C124  H104  1.110694 S    
C84   C85   1.443008 A    
C75   C81   1.396755 A    
C111  H70   1.109419 S    
C104  H52   1.108149 S    
C21   C23   1.409504 A    
O19   C95   1.414325 S    
C105  H55   1.110871 S    
C112  H74   1.108617 S    
C131  H120  1.110507 S    
C12   C20   1.407724 A    
N2    C10   1.376921 A    
C66   C74   1.401360 A    
O28   C112  1.410761 S    
C122  H98   1.110964 S    
C71   C73   1.410059 A    
C99   H42   1.116064 S    
C123  C124  1.533222 S    
C55   C60   1.386767 A    
C125  H107  1.109787 S    
C41   H9    1.073306 S    
C101  H46   1.110068 S    
C17   C19   1.398777 A    
C48   C50   1.424574 A    
C66   C68   1.411388 A    
C121  H96   1.108056 S    
C116  H86   1.108692 S    
C31   C35   1.414735 A    
N1    C9    1.369860 A    
C55   C57   1.405935 A    
O2    Cu2   1.973493 S    
C132  C133  1.529691 S    
C76   C78   1.399352 A    
C104  H53   1.109030 S    
C37   C39   1.422923 A    
C123  H102  1.107032 S    
C25   C41   1.390940 A    
C61   C77   1.413498 A    
C80   H22   1.082427 S    
C121  C122  1.526639 S    
C31   C37   1.429731 A    
C47   C60   1.487464 S    
C18   H2    1.081328 S    
O36   C126  1.418843 S    
C5    O33   1.384212 S    
C98   H39   1.110879 S    
C134  H126  1.110721 S    
C15   C29   1.407862 A    
C124  C125  1.527021 S    
C64   C82   1.417543 A    
C96   H32   1.110951 S    
C26   C42   1.390391 A    
C24   C26   1.399541 A    
C95   H29   1.115335 S    
C52   H16   1.078760 S    
C107  H60   1.110486 S    
C44   C54   1.387104 A    
C126  H108  1.109914 S    
C100  H43   1.111652 S    
C119  H92   1.110464 S    
C61   O15   1.348970 S    
C16   O28   1.382236 S    
O24   C102  1.421419 S    
C32   C36   1.409311 A    
C118  H89   1.110365 S    
C16   C18   1.399028 A    
C128  H113  1.109923 S    
C5    C86   1.423507 A    
C99   C100  1.528874 S    
C105  H56   1.110413 S    
