data_mof_unit_62548.cif
_audit_creation_date              2012-12-10T19:08:50-0500
_audit_creation_method            fapswitch 2.2
_symmetry_space_group_name_H-M    P1
_symmetry_Int_Tables_number       1
_space_group_crystal_system       triclinic
_cell_length_a                    13.038912
_cell_length_b                    13.64559
_cell_length_c                    27.733749
_cell_angle_alpha                 90.078183
_cell_angle_beta                  93.21978
_cell_angle_gamma                 85.660698
_cell_volume                      4912.55717643

loop_
_atom_site_label
_atom_site_type_symbol
_atom_type_description
_atom_site_fract_x
_atom_site_fract_y
_atom_site_fract_z
_atom_type_partial_charge
Br1   Br    Br    0.274816 0.500844 0.239353 -0.411225
Br2   Br    Br    0.725279 0.498494 0.760627 -0.411239
Br3   Br    Br    0.396208 0.798870 0.024228 -0.432894
Br4   Br    Br    0.603957 0.200748 0.975738 -0.432894
Br5   Br    Br    0.322844 0.051907 0.494879 -0.433020
Br6   Br    Br    0.677156 0.948093 0.505122 -0.433024
C1    C     C_R   0.481119 0.685094 0.499468 0.907218
C2    C     C_R   0.489231 0.590434 0.126833 -0.084050
C3    C     C_R   0.500311 0.499330 0.646875 -0.097234
C4    C     C_R   0.499706 0.500585 0.353124 -0.097232
C5    C     C_R   0.489176 0.591752 0.024959 -0.028113
C6    C     C_R   0.511019 0.407880 0.975038 -0.028101
C7    C     C_R   0.499121 0.409909 0.025492 0.070709
C8    C     C_R   0.501102 0.589721 0.974509 0.070712
C9    C     C_R   0.495128 0.501039 0.050434 0.052504
C10   C     C_R   0.505071 0.498596 0.949566 0.052507
C11   C     C_R   0.466268 0.680018 0.051261 0.231031
C12   C     C_R   0.518881 0.314906 0.500532 0.907205
C13   C     C_R   0.533886 0.319617 0.948728 0.231030
C14   C     C_R   0.473927 0.678931 0.101477 -0.119938
C15   C     C_R   0.526179 0.320717 0.898511 -0.119911
C16   C     C_R   0.499868 0.499867 0.594176 0.895433
C17   C     C_R   0.500133 0.500123 0.405823 0.895431
C18   C     C_R   0.518319 0.675018 0.948452 -0.135003
C19   C     C_R   0.481944 0.324606 0.051557 -0.135001
C20   C     C_1   0.534032 0.211987 0.500973 -0.121269
C21   C     C_1   0.465968 0.788013 0.499028 -0.121278
C22   C     C_2   0.544734 0.021096 0.501292 0.199240
C23   C     C_R   0.507083 0.498442 0.898605 -0.052619
C24   C     C_2   0.455266 0.978904 0.498710 0.199240
C25   C     C_1   0.457164 0.875279 0.498770 0.072026
C26   C     C_1   0.542836 0.124721 0.501231 0.072029
C27   C     C_2   0.032916 0.473115 0.486300 -0.221725
C28   C     C_2   0.967084 0.526885 0.513699 -0.221723
C29   C     C_1   0.854856 0.519529 0.509946 0.188394
C30   C     C_1   0.145144 0.480471 0.490053 0.188395
C31   C     C_R   0.504355 0.586046 0.822617 0.566887
C32   C     C_R   0.495801 0.413617 0.177389 0.566962
C33   C     C_R   0.507306 0.410968 0.822659 0.579529
C34   C     C_R   0.493089 0.501204 0.101395 -0.052606
C35   C     C_R   0.492764 0.588706 0.177335 0.579444
C36   C     C_R   0.595629 0.499039 0.724411 0.328680
C37   C     C_R   0.404435 0.500559 0.275579 0.328698
C38   C     C_R   0.594179 0.499550 0.674290 -0.220564
C39   C     C_R   0.405860 0.500154 0.325702 -0.220579
C40   C     C_R   0.407636 0.498459 0.670203 -0.183673
C41   C     C_R   0.592381 0.501566 0.329804 -0.183674
C42   C     C_R   0.408980 0.498144 0.720352 -0.135122
C43   C     C_R   0.591059 0.501776 0.279654 -0.135132
C44   C     C_R   0.502669 0.498569 0.747394 0.238129
C45   C     C_R   0.507547 0.587531 0.873067 -0.024639
C46   C     C_R   0.497395 0.501137 0.252605 0.238091
C47   C     C_R   0.492650 0.412118 0.126938 -0.024657
C48   C     C_R   0.516958 0.674978 0.898442 -0.100923
C49   C     C_R   0.483299 0.324658 0.101567 -0.100954
C50   C     C_R   0.510883 0.409221 0.873162 -0.084051
H1    H     H_    0.334366 0.498262 0.649788 0.180697
H2    H     H_    0.462675 0.257728 0.033763 0.199686
H3    H     H_    0.997418 0.578145 0.539827 0.180242
H4    H     H_    0.002582 0.421854 0.460173 0.180244
H5    H     H_    0.459874 0.747445 0.120660 0.225014
H6    H     H_    0.540194 0.252203 0.879322 0.225007
H7    H     H_    0.665634 0.501936 0.350219 0.180709
H8    H     H_    0.337375 0.497704 0.738303 0.164597
H9    H     H_    0.662663 0.502316 0.261708 0.164596
H10   H     H_    0.526165 0.743283 0.879865 0.207320
H11   H     H_    0.474123 0.256351 0.120147 0.207324
H12   H     H_    0.333520 0.499729 0.343052 0.196062
H13   H     H_    0.666520 0.499888 0.656936 0.196061
H14   H     H_    0.537607 0.741884 0.966252 0.199669
N1    N     N_R   0.503053 0.498622 0.798715 -0.350946
N2    N     N_R   0.497035 0.501057 0.201285 -0.350946
N3    N     N_1   0.234530 0.484780 0.492250 -0.085817
N4    N     N_1   0.765470 0.515220 0.507750 -0.085818
O1    O     O_R   0.402510 0.634760 0.497160 -0.607726
O2    O     O_2   0.497138 0.328766 0.202462 -0.517780
O3    O     O_2   0.490888 0.673647 0.202392 -0.518258
O4    O     O_2   0.509118 0.326043 0.797593 -0.518222
O5    O     O_R   0.597490 0.365240 0.502840 -0.607730
O6    O     O_R   0.572960 0.644530 0.502140 -0.587057
O7    O     O_R   0.427040 0.355470 0.497860 -0.587060
O8    O     O_R   0.414790 0.495100 0.568760 -0.617368
O9    O     O_R   0.585210 0.504900 0.431240 -0.617372
O10   O     O_R   0.585240 0.504870 0.573730 -0.614921
O11   O     O_R   0.414760 0.495130 0.426270 -0.614917
O12   O     O_2   0.503048 0.670897 0.797548 -0.517818
Zn1   Zn    Zn3+2 0.386190 0.493480 0.496680 1.018537
Zn2   Zn    Zn3+2 0.613810 0.506520 0.503320 1.018534

loop_
_geom_bond_atom_site_label_1
_geom_bond_atom_site_label_2
_ccdc_geom_bond_type
C29   N4    T    
C20   C26   T    
C12   C20   S    
C12   O7    A    
C18   H14   S    
C41   C43   A    
C31   N1    A    
C32   O2    S    
C2    C14   A    
C43   H9    S    
C16   O8    A    
C13   C15   A    
C41   H7    S    
C24   C25   S    
C31   C45   A    
C5    C8    A    
C37   C46   A    
C42   H8    S    
C18   C48   A    
O8    Zn1   S    
C11   C14   A    
C1    C21   S    
C28   C29   S    
C8    C18   A    
C14   H5    S    
N3    Zn1   S    
Br4   C13   S    
C5    C9    A    
Br1   C37   S    
Br6   C22   S    
C6    C10   A    
C12   O5    A    
O11   Zn1   S    
O9    Zn2   S    
C3    C40   A    
C7    C19   A    
C36   C38   A    
C4    C39   A    
O5    Zn2   S    
C40   C42   A    
C47   C49   A    
C32   N2    A    
C21   C25   T    
C27   C30   S    
C33   O4    S    
C19   C49   A    
C31   O12   S    
C22   C26   S    
C2    C35   A    
C1    O1    A    
C10   C23   A    
C16   O10   A    
C44   N1    S    
C46   N2    S    
C33   C50   A    
C43   C46   A    
C39   H12   S    
C27   C28   D    
C38   H13   S    
C37   C39   A    
C15   H6    S    
O7    Zn1   S    
C17   O9    A    
C36   C44   A    
C35   N2    A    
O1    Zn1   S    
C27   H4    S    
C7    C9    A    
C40   H1    S    
C28   H3    S    
C8    C10   A    
C19   H2    S    
Br5   C24   S    
C23   C45   A    
C5    C11   A    
C3    C38   A    
O10   Zn2   S    
C15   C50   A    
C49   H11   S    
C48   H10   S    
C23   C50   A    
C4    C17   S    
C45   C48   A    
C22   C24   D    
O6    Zn2   S    
C35   O3    S    
C32   C47   A    
Br2   C36   S    
C6    C13   A    
C42   C44   A    
Br3   C11   S    
C3    C16   S    
C9    C34   A    
C30   N3    T    
C6    C7    A    
C34   C47   A    
C17   O11   A    
C4    C41   A    
C33   N1    A    
C2    C34   A    
N4    Zn2   S    
C1    O6    A    
