data_mof_unit_60004.cif
_audit_creation_date              2012-12-10T20:24:51-0500
_audit_creation_method            fapswitch 2.2
_symmetry_space_group_name_H-M    P1
_symmetry_Int_Tables_number       1
_space_group_crystal_system       triclinic
_cell_length_a                    25.651867
_cell_length_b                    25.651877
_cell_length_c                    43.101127
_cell_angle_alpha                 89.999865
_cell_angle_beta                  90.000057
_cell_angle_gamma                 90.041558
_cell_volume                      28361.3330756

loop_
_atom_site_label
_atom_site_type_symbol
_atom_type_description
_atom_site_fract_x
_atom_site_fract_y
_atom_site_fract_z
_atom_type_partial_charge
C1    C     C_1   0.171756 0.328243 0.250000 -0.074924
C2    C     C_1   0.828254 0.328254 0.250000 -0.075470
C3    C     C_R   0.500001 0.000013 0.531476 0.375339
C4    C     C_R   0.500011 0.000001 0.968524 0.375336
C5    C     C_R   0.500013 0.000001 0.031474 0.375316
C6    C     C_R   0.999999 0.499988 0.968524 0.375337
C7    C     C_R   0.999999 0.499986 0.031474 0.375316
C8    C     C_R   0.500000 0.000001 0.334340 0.845071
C9    C     C_R   0.500000 0.000000 0.665660 0.845138
C10   C     C_R   0.999999 0.500000 0.334340 0.845074
C11   C     C_R   0.999999 0.500000 0.665660 0.845139
C12   C     C_R   0.000000 0.499999 0.834340 0.845141
C13   C     C_1   0.671756 0.828244 0.750000 -0.074962
C14   C     C_R   0.000000 0.499999 0.165660 0.845076
C15   C     C_R   0.500000 1.000000 0.834340 0.845141
C16   C     C_R   0.500001 1.000000 0.165660 0.845075
C17   C     C_R   0.599038 0.099038 0.250000 0.812566
C18   C     C_R   0.400962 0.900962 0.750000 0.812589
C19   C     C_R   0.900953 0.599047 0.250000 0.817151
C20   C     C_R   0.099047 0.400953 0.750000 0.817152
C21   C     C_R   0.400962 0.900962 0.250000 0.812695
C22   C     C_R   0.599038 0.099038 0.750000 0.812542
C23   C     C_R   0.099047 0.400953 0.250000 0.817153
C24   C     C_1   0.328244 0.171756 0.250000 -0.074924
C25   C     C_R   0.900953 0.599047 0.750000 0.817196
C26   C     C_R   0.599047 0.900953 0.750000 0.817196
C27   C     C_R   0.400953 0.099047 0.250000 0.817153
C28   C     C_R   0.900962 0.400962 0.750000 0.812542
C29   C     C_R   0.099038 0.599038 0.250000 0.812694
C30   C     C_R   0.400953 0.099047 0.750000 0.817152
C31   C     C_R   0.599047 0.900953 0.250000 0.817152
C32   C     C_R   0.099038 0.599038 0.750000 0.812589
C33   C     C_R   0.900962 0.400962 0.250000 0.812566
C34   C     C_R   0.212381 0.250917 0.273519 -0.178501
C35   C     C_1   0.828254 0.328254 0.750000 -0.075575
C36   C     C_R   0.792234 0.753698 0.729551 -0.178553
C37   C     C_R   0.728191 0.233250 0.278060 -0.180308
C38   C     C_R   0.270758 0.767801 0.721885 -0.180487
C39   C     C_R   0.787489 0.748953 0.273590 -0.178509
C40   C     C_R   0.211298 0.249834 0.727105 -0.178558
C41   C     C_R   0.268848 0.769710 0.278138 -0.180507
C42   C     C_R   0.728263 0.233179 0.721936 -0.180404
C43   C     C_R   0.232199 0.729241 0.721885 -0.180497
C44   C     C_R   0.766750 0.271809 0.278060 -0.180309
C45   C     C_R   0.753698 0.792234 0.729551 -0.178550
C46   C     C_1   0.171746 0.671746 0.250000 -0.075595
C47   C     C_R   0.250917 0.212381 0.273519 -0.178521
C48   C     C_R   0.766821 0.271737 0.721936 -0.180400
C49   C     C_R   0.230289 0.731152 0.278138 -0.180506
C50   C     C_R   0.249834 0.211298 0.727105 -0.178564
C51   C     C_R   0.748954 0.787489 0.273590 -0.178490
C52   C     C_R   0.707766 0.746302 0.770449 -0.178553
C53   C     C_R   0.287619 0.249083 0.226481 -0.178501
C54   C     C_R   0.229241 0.732199 0.778115 -0.180486
C55   C     C_R   0.771809 0.266750 0.221940 -0.180307
C56   C     C_R   0.288702 0.250165 0.772895 -0.178558
C57   C     C_1   0.328244 0.171756 0.750000 -0.074971
C58   C     C_R   0.712511 0.751047 0.226410 -0.178508
C59   C     C_R   0.771737 0.266821 0.778064 -0.180405
C60   C     C_R   0.231152 0.730290 0.221862 -0.180506
C61   C     C_R   0.733250 0.228191 0.221940 -0.180308
C62   C     C_R   0.267801 0.770758 0.778115 -0.180497
C63   C     C_R   0.249083 0.287619 0.226481 -0.178521
C64   C     C_R   0.746302 0.707766 0.770449 -0.178549
C65   C     C_R   0.269710 0.768848 0.221862 -0.180506
C66   C     C_R   0.733179 0.228262 0.778064 -0.180399
C67   C     C_R   0.751046 0.712511 0.226409 -0.178490
C68   C     C_1   0.671756 0.828244 0.250000 -0.074913
C69   C     C_R   0.250166 0.288701 0.772895 -0.178565
C70   C     C_3   0.599840 0.066870 0.138088 0.125505
C71   C     C_3   0.627539 0.112919 0.153029 -0.803918
C72   C     C_3   0.400148 0.933157 0.861915 0.125563
C73   C     C_3   0.372437 0.887115 0.846973 -0.804173
C74   C     C_3   0.933133 0.400157 0.138088 0.125499
C75   C     C_3   0.887085 0.372457 0.153029 -0.803917
C76   C     C_3   0.066842 0.599852 0.861915 0.125622
C77   C     C_3   0.112883 0.627563 0.846973 -0.804195
C78   C     C_3   0.400181 0.933103 0.138083 0.125650
C79   C     C_R   0.211393 0.288606 0.250000 0.160361
C80   C     C_3   0.372495 0.887045 0.153021 -0.804259
C81   C     C_3   0.599863 0.066834 0.861910 0.125553
C82   C     C_3   0.627578 0.112872 0.846968 -0.804048
C83   C     C_3   0.066894 0.599820 0.138083 0.125654
C84   C     C_3   0.112952 0.627508 0.153021 -0.804269
C85   C     C_3   0.933167 0.400136 0.861910 0.125499
C86   C     C_3   0.887129 0.372421 0.846968 -0.804025
C87   C     C_3   0.099850 0.566847 0.638085 0.125564
C88   C     C_3   0.127559 0.612889 0.653026 -0.804171
C89   C     C_3   0.900160 0.433129 0.361912 0.125504
C90   C     C_R   0.788607 0.711393 0.750000 0.160193
C91   C     C_3   0.872461 0.387079 0.346971 -0.803920
C92   C     C_3   0.433149 0.900153 0.638084 0.125622
C93   C     C_3   0.387106 0.872445 0.653026 -0.804193
C94   C     C_3   0.566881 0.099834 0.361912 0.125505
C95   C     C_3   0.612933 0.127528 0.346972 -0.803910
C96   C     C_3   0.900139 0.433163 0.638090 0.125554
C97   C     C_3   0.872425 0.387124 0.653032 -0.804045
C98   C     C_3   0.099818 0.566897 0.361917 0.125652
C99   C     C_3   0.127505 0.612956 0.346979 -0.804264
C100  C     C_3   0.566841 0.099859 0.638090 0.125499
C101  C     C_R   0.711385 0.211384 0.250000 0.166583
C102  C     C_3   0.612881 0.127570 0.653031 -0.804019
C103  C     C_3   0.433092 0.900189 0.361918 0.125660
C104  C     C_3   0.387030 0.872507 0.346981 -0.804264
C105  C     C_1   0.828244 0.671756 0.750000 -0.074962
C106  C     C_R   0.288614 0.788614 0.750000 0.166500
C107  C     C_R   0.788606 0.711393 0.250000 0.160361
C108  C     C_R   0.211393 0.288607 0.750000 0.160310
C109  C     C_R   0.288615 0.788615 0.250000 0.166185
C110  C     C_R   0.711384 0.211384 0.750000 0.166576
C111  C     C_R   0.211386 0.711386 0.750000 0.166500
C112  C     C_R   0.788615 0.288615 0.250000 0.166582
C113  C     C_R   0.711393 0.788606 0.750000 0.160194
C114  C     C_R   0.288607 0.211393 0.250000 0.160361
C115  C     C_R   0.788616 0.288616 0.750000 0.166576
C116  C     C_1   0.671746 0.171746 0.250000 -0.075471
C117  C     C_R   0.211385 0.711385 0.250000 0.166184
C118  C     C_R   0.288606 0.211393 0.750000 0.160310
C119  C     C_R   0.711393 0.788607 0.250000 0.160361
C120  C     C_R   0.524458 0.040880 0.114842 0.373660
C121  C     C_R   0.475538 0.959128 0.885159 0.373692
C122  C     C_R   0.959121 0.475540 0.114842 0.373664
C123  C     C_R   0.040872 0.524462 0.885159 0.373634
C124  C     C_R   0.475558 0.959116 0.114840 0.373608
C125  C     C_R   0.524472 0.040871 0.885157 0.373659
C126  C     C_R   0.040883 0.524442 0.114840 0.373603
C127  C     C_1   0.328254 0.828253 0.750000 -0.075601
C128  C     C_R   0.959129 0.475527 0.885157 0.373714
C129  C     C_R   0.024460 0.540873 0.614841 0.373692
C130  C     C_R   0.975542 0.459120 0.385158 0.373660
C131  C     C_R   0.459126 0.975542 0.614841 0.373636
C132  C     C_R   0.540883 0.024455 0.385158 0.373664
C133  C     C_R   0.975529 0.459128 0.614843 0.373659
C134  C     C_R   0.024441 0.540884 0.385160 0.373609
C135  C     C_R   0.540873 0.024470 0.614843 0.373716
C136  C     C_R   0.459114 0.975564 0.385160 0.373603
C137  C     C_1   0.361450 0.138550 0.250000 -0.134638
C138  C     C_1   0.828244 0.671756 0.250000 -0.074913
C139  C     C_1   0.638550 0.861450 0.750000 -0.134659
C140  C     C_1   0.861465 0.361465 0.250000 -0.151442
C141  C     C_1   0.138535 0.638535 0.750000 -0.151545
C142  C     C_1   0.638550 0.861450 0.250000 -0.134630
C143  C     C_1   0.361450 0.138550 0.750000 -0.134670
C144  C     C_1   0.138535 0.638535 0.250000 -0.151458
C145  C     C_1   0.861465 0.361465 0.750000 -0.151538
C146  C     C_1   0.361465 0.861465 0.750000 -0.151545
C147  C     C_1   0.638535 0.138535 0.250000 -0.151443
C148  C     C_1   0.861450 0.638550 0.750000 -0.134660
C149  C     C_1   0.171756 0.328244 0.750000 -0.074971
C150  C     C_1   0.138550 0.361450 0.250000 -0.134638
C151  C     C_1   0.638535 0.138535 0.750000 -0.151538
C152  C     C_1   0.361465 0.861465 0.250000 -0.151458
C153  C     C_1   0.138550 0.361450 0.750000 -0.134670
C154  C     C_1   0.861450 0.638550 0.250000 -0.134630
C155  C     C_R   0.500011 1.000000 0.065787 -0.052403
C156  C     C_R   0.500009 0.000000 0.934212 -0.052388
C157  C     C_R   0.000000 0.499988 0.065787 -0.052404
C158  C     C_R   1.000000 0.499991 0.934212 -0.052387
C159  C     C_R   0.999991 0.500000 0.565788 -0.052388
C160  C     C_1   0.328254 0.828254 0.250000 -0.075597
C161  C     C_R   0.999988 0.500000 0.434213 -0.052404
C162  C     C_R   0.500000 0.000010 0.565788 -0.052386
C163  C     C_R   0.499999 0.000013 0.434213 -0.052404
C164  C     C_R   0.522578 0.041847 0.082210 -0.023030
C165  C     C_R   0.477424 0.958161 0.917791 -0.022986
C166  C     C_R   0.958153 0.477420 0.082210 -0.023033
C167  C     C_R   0.041839 0.522576 0.917791 -0.022993
C168  C     C_R   0.477444 0.958151 0.082208 -0.023008
C169  C     C_R   0.522592 0.041839 0.917789 -0.023006
C170  C     C_R   0.041849 0.522557 0.082208 -0.023004
C171  C     C_1   0.671746 0.171746 0.750000 -0.075575
C172  C     C_R   0.958161 0.477407 0.917789 -0.022999
C173  C     C_R   0.022575 0.541840 0.582209 -0.022986
C174  C     C_R   0.977422 0.458153 0.417790 -0.023029
C175  C     C_R   0.458159 0.977428 0.582209 -0.022995
C176  C     C_R   0.541850 0.022574 0.417790 -0.023035
C177  C     C_R   0.977409 0.458160 0.582211 -0.023006
C178  C     C_R   0.022555 0.541849 0.417792 -0.023008
C179  C     C_R   0.541841 0.022590 0.582210 -0.023000
C180  C     C_R   0.458148 0.977450 0.417792 -0.023005
C181  C     C_R   0.500005 0.999999 0.131348 -0.291121
C182  C     C_1   0.171746 0.671746 0.750000 -0.075601
C183  C     C_R   0.500003 1.000000 0.868651 -0.291082
C184  C     C_R   0.000001 0.499995 0.131348 -0.291120
C185  C     C_R   0.000000 0.499996 0.868651 -0.291081
C186  C     C_R   0.999996 0.500000 0.631348 -0.291083
C187  C     C_R   0.999995 0.500001 0.368652 -0.291121
C188  C     C_R   0.500000 0.000004 0.631348 -0.291085
C189  C     C_R   0.499999 0.000005 0.368652 -0.291123
C190  C     C_R   0.999987 0.499999 0.468526 0.375316
C191  C     C_R   0.999988 0.499999 0.531475 0.375336
C192  C     C_R   0.500000 0.000014 0.468526 0.375317
H1    H     H_    0.251334 0.183417 0.291814 0.145038
H2    H     H_    0.711510 0.220503 0.299879 0.140277
H3    H     H_    0.129341 0.646068 0.363547 0.249080
H4    H     H_    0.167796 0.601657 0.340395 0.194697
H5    H     H_    0.106220 0.625479 0.325828 0.274963
H6    H     H_    0.533956 0.099974 0.654929 0.120566
H7    H     H_    0.555076 0.122332 0.617118 0.117529
H8    H     H_    0.645994 0.129429 0.636465 0.249246
H9    H     H_    0.601558 0.167854 0.659617 0.194163
H10   H     H_    0.625414 0.106290 0.674182 0.275072
H11   H     H_    0.444844 0.877711 0.382891 0.117548
H12   H     H_    0.465974 0.900048 0.345078 0.120605
H13   H     H_    0.824788 0.756871 0.713644 0.145209
H14   H     H_    0.374509 0.893791 0.325829 0.274965
H15   H     H_    0.398324 0.832214 0.340397 0.194698
H16   H     H_    0.353918 0.870674 0.363548 0.249078
H17   H     H_    0.584728 0.086937 0.070787 0.192748
H18   H     H_    0.527269 0.119188 0.073272 0.226607
H19   H     H_    0.415259 0.913094 0.929218 0.192721
H20   H     H_    0.472706 0.880822 0.926730 0.226639
H21   H     H_    0.913066 0.415268 0.070788 0.192742
H22   H     H_    0.880813 0.472727 0.073272 0.226620
H23   H     H_    0.086905 0.584742 0.929217 0.192747
H24   H     H_    0.183417 0.251333 0.291814 0.145051
H25   H     H_    0.119178 0.527295 0.926730 0.226585
H26   H     H_    0.415298 0.913057 0.070781 0.192733
H27   H     H_    0.472760 0.880809 0.073269 0.226585
H28   H     H_    0.584759 0.086905 0.929212 0.192752
H29   H     H_    0.527312 0.119178 0.926728 0.226601
H30   H     H_    0.086941 0.584703 0.070781 0.192740
H31   H     H_    0.119190 0.527243 0.073269 0.226571
H32   H     H_    0.913096 0.415239 0.929212 0.192725
H33   H     H_    0.880822 0.472685 0.926728 0.226655
H34   H     H_    0.084738 0.586909 0.570782 0.192721
H35   H     H_    0.711636 0.220377 0.700114 0.140283
H36   H     H_    0.027289 0.619179 0.573269 0.226638
H37   H     H_    0.915272 0.413062 0.429213 0.192748
H38   H     H_    0.972732 0.380811 0.426728 0.226606
H39   H     H_    0.413086 0.915267 0.570782 0.192747
H40   H     H_    0.380819 0.972718 0.573269 0.226584
H41   H     H_    0.586947 0.084719 0.429213 0.192742
H42   H     H_    0.619191 0.027256 0.426728 0.226619
H43   H     H_    0.915243 0.413092 0.570788 0.192752
H44   H     H_    0.972692 0.380821 0.573272 0.226601
H45   H     H_    0.084700 0.586944 0.429219 0.192733
H46   H     H_    0.283227 0.784758 0.300018 0.140859
H47   H     H_    0.027239 0.619191 0.426731 0.226584
H48   H     H_    0.586912 0.084753 0.570788 0.192725
H49   H     H_    0.619180 0.027304 0.573272 0.226654
H50   H     H_    0.413046 0.915310 0.429219 0.192740
H51   H     H_    0.380806 0.972776 0.426731 0.226570
H52   H     H_    0.181492 0.249409 0.709296 0.145103
H53   H     H_    0.816353 0.748436 0.291940 0.145035
H54   H     H_    0.743129 0.675212 0.786356 0.145214
H55   H     H_    0.248666 0.316583 0.208186 0.145038
H56   H     H_    0.281361 0.786618 0.799979 0.140471
H57   H     H_    0.756871 0.824788 0.713644 0.145214
H58   H     H_    0.720503 0.211510 0.200121 0.140279
H59   H     H_    0.250592 0.318508 0.790704 0.145099
H60   H     H_    0.751564 0.683647 0.208060 0.145048
H61   H     H_    0.720377 0.211636 0.799886 0.140287
H62   H     H_    0.284759 0.783227 0.199982 0.140860
H63   H     H_    0.788490 0.279496 0.200121 0.140279
H64   H     H_    0.213382 0.718639 0.799979 0.140474
H65   H     H_    0.316583 0.248666 0.208186 0.145051
H66   H     H_    0.675212 0.743129 0.786356 0.145209
H67   H     H_    0.216772 0.715242 0.199982 0.140860
H68   H     H_    0.779497 0.288490 0.299879 0.140279
H69   H     H_    0.788364 0.279623 0.799886 0.140284
H70   H     H_    0.683647 0.751564 0.208060 0.145035
H71   H     H_    0.318508 0.250591 0.790704 0.145103
H72   H     H_    0.622316 0.055111 0.117116 0.117526
H73   H     H_    0.599966 0.033986 0.154927 0.120568
H74   H     H_    0.606256 0.125446 0.174180 0.275096
H75   H     H_    0.667826 0.101608 0.159615 0.194145
H76   H     H_    0.629388 0.146032 0.136462 0.249259
H77   H     H_    0.400029 0.966042 0.845076 0.120572
H78   H     H_    0.377676 0.944920 0.882888 0.117541
H79   H     H_    0.218639 0.713382 0.700021 0.140471
H80   H     H_    0.370582 0.854002 0.863539 0.249187
H81   H     H_    0.332152 0.898437 0.840389 0.194349
H82   H     H_    0.393716 0.874585 0.825822 0.275027
H83   H     H_    0.966017 0.400033 0.154928 0.120566
H84   H     H_    0.944893 0.377682 0.117116 0.117519
H85   H     H_    0.853973 0.370606 0.136463 0.249261
H86   H     H_    0.898398 0.332170 0.159615 0.194143
H87   H     H_    0.874557 0.393739 0.174180 0.275097
H88   H     H_    0.055078 0.622324 0.882887 0.117588
H89   H     H_    0.033957 0.599970 0.845076 0.120619
H90   H     H_    0.748436 0.816353 0.291940 0.145048
H91   H     H_    0.125415 0.606284 0.825822 0.275040
H92   H     H_    0.101561 0.667848 0.840387 0.194346
H93   H     H_    0.145996 0.629421 0.863539 0.249192
H94   H     H_    0.377704 0.944858 0.117110 0.117544
H95   H     H_    0.400045 0.965986 0.154923 0.120600
H96   H     H_    0.393779 0.874522 0.174173 0.274963
H97   H     H_    0.332203 0.898344 0.159606 0.194696
H98   H     H_    0.370658 0.853933 0.136454 0.249080
H99   H     H_    0.599976 0.033949 0.845071 0.120611
H100  H     H_    0.622335 0.055067 0.882882 0.117578
H101  H     H_    0.249408 0.181492 0.709296 0.145099
H102  H     H_    0.629439 0.145984 0.863534 0.249256
H103  H     H_    0.667861 0.101545 0.840382 0.194162
H104  H     H_    0.606298 0.125405 0.825817 0.275081
H105  H     H_    0.034011 0.599956 0.154923 0.120601
H106  H     H_    0.055138 0.622297 0.117111 0.117552
H107  H     H_    0.146063 0.629346 0.136454 0.249080
H108  H     H_    0.101651 0.667799 0.159606 0.194701
H109  H     H_    0.125475 0.606224 0.174173 0.274961
H110  H     H_    0.944934 0.377664 0.882882 0.117531
H111  H     H_    0.966052 0.400024 0.845071 0.120563
H112  H     H_    0.215241 0.716772 0.300018 0.140860
H113  H     H_    0.874595 0.393700 0.825817 0.275069
H114  H     H_    0.898456 0.332138 0.840381 0.194165
H115  H     H_    0.854017 0.370559 0.863534 0.249248
H116  H     H_    0.122322 0.555084 0.617112 0.117541
H117  H     H_    0.099970 0.533961 0.654923 0.120574
H118  H     H_    0.106281 0.625418 0.674178 0.275027
H119  H     H_    0.167845 0.601569 0.659611 0.194348
H120  H     H_    0.129413 0.646003 0.636461 0.249186
H121  H     H_    0.900034 0.466013 0.345073 0.120568
H122  H     H_    0.877684 0.444888 0.382884 0.117525
H123  H     H_    0.779623 0.288364 0.700114 0.140287
H124  H     H_    0.870613 0.353967 0.363538 0.249259
H125  H     H_    0.832174 0.398390 0.340385 0.194146
H126  H     H_    0.893744 0.374552 0.325821 0.275097
H127  H     H_    0.466035 0.900032 0.654922 0.120621
H128  H     H_    0.444910 0.877681 0.617111 0.117587
H129  H     H_    0.353992 0.870593 0.636460 0.249194
H130  H     H_    0.398425 0.832159 0.659610 0.194344
H131  H     H_    0.374578 0.893724 0.674178 0.275041
H132  H     H_    0.555124 0.122310 0.382885 0.117515
H133  H     H_    0.533997 0.099964 0.345073 0.120569
H134  H     H_    0.286618 0.781361 0.700021 0.140473
H135  H     H_    0.625458 0.106245 0.325821 0.275101
H136  H     H_    0.601626 0.167817 0.340386 0.194140
H137  H     H_    0.646046 0.129373 0.363539 0.249259
H138  H     H_    0.877666 0.444929 0.617118 0.117578
H139  H     H_    0.900025 0.466048 0.654929 0.120611
H140  H     H_    0.893705 0.374591 0.674183 0.275081
H141  H     H_    0.832142 0.398449 0.659618 0.194161
H142  H     H_    0.870565 0.354011 0.636466 0.249255
H143  H     H_    0.099955 0.534015 0.345077 0.120601
H144  H     H_    0.122295 0.555142 0.382890 0.117544
N1    N     N_R   0.511754 0.956011 0.015438 -0.156578
N2    N     N_R   0.988244 0.543989 0.484562 -0.156578
N3    N     N_R   0.543989 0.988266 0.515440 -0.156548
N4    N     N_R   0.456012 0.011762 0.484562 -0.156609
N5    N     N_R   0.988245 0.543989 0.515440 -0.156558
N6    N     N_R   0.011729 0.456009 0.484561 -0.156596
N7    N     N_R   0.456012 0.011761 0.515440 -0.156618
N8    N     N_R   0.543989 0.988267 0.484562 -0.156566
N9    N     N_3   0.545010 0.084846 0.065598 -0.423758
N10   N     N_3   0.454979 0.915171 0.934405 -0.423768
N11   N     N_3   0.915156 0.454987 0.065598 -0.423758
N12   N     N_R   0.488271 0.043991 0.984560 -0.156606
N13   N     N_3   0.084828 0.545022 0.934405 -0.423773
N14   N     N_3   0.455018 0.915151 0.065594 -0.423770
N15   N     N_3   0.545040 0.084829 0.934402 -0.423765
N16   N     N_3   0.084848 0.544984 0.065594 -0.423770
N17   N     N_3   0.915172 0.454958 0.934402 -0.423760
N18   N     N_3   0.045018 0.584831 0.565595 -0.423768
N19   N     N_3   0.954990 0.415153 0.434402 -0.423758
N20   N     N_3   0.415167 0.954987 0.565595 -0.423774
N21   N     N_3   0.584851 0.045001 0.434403 -0.423758
N22   N     N_3   0.954962 0.415169 0.565598 -0.423765
N23   N     N_R   0.043990 0.488246 0.015438 -0.156609
N24   N     N_3   0.044981 0.584850 0.434406 -0.423770
N25   N     N_3   0.584832 0.045034 0.565598 -0.423761
N26   N     N_3   0.415145 0.955029 0.434406 -0.423770
N27   N     N_R   0.956009 0.511728 0.984560 -0.156546
N28   N     N_R   0.488271 0.043991 0.015438 -0.156596
N29   N     N_R   0.511753 0.956011 0.984560 -0.156558
N30   N     N_R   0.956009 0.511727 0.015438 -0.156565
N31   N     N_R   0.043990 0.488247 0.984560 -0.156617
N32   N     N_R   0.011730 0.456009 0.515440 -0.156606
O1    O     O_3   0.500000 0.000000 0.250000 -0.493173
O2    O     O_R   0.457240 1.000000 0.680670 -0.602901
O3    O     O_R   1.000000 0.542760 0.319330 -0.602893
O4    O     O_R   1.000000 0.457240 0.680670 -0.602893
O5    O     O_R   0.957240 0.500000 0.819330 -0.602828
O6    O     O_R   0.042760 0.500000 0.180670 -0.602895
O7    O     O_R   0.500000 0.957240 0.819330 -0.602836
O8    O     O_R   0.500000 0.042760 0.180670 -0.602873
O9    O     O_R   0.042760 0.500000 0.819330 -0.602903
O10   O     O_R   0.957240 0.500000 0.180670 -0.602873
O11   O     O_R   0.500000 0.042760 0.819330 -0.602893
O12   O     O_3   0.500000 0.000000 0.750000 -0.493164
O13   O     O_R   0.500000 0.957240 0.180670 -0.602893
O14   O     O_R   0.602780 0.060140 0.268190 -0.636747
O15   O     O_R   0.397220 0.939860 0.731810 -0.636764
O16   O     O_R   0.939860 0.602780 0.268190 -0.634421
O17   O     O_R   0.060140 0.397220 0.731810 -0.634427
O18   O     O_R   0.397220 0.939860 0.268190 -0.636817
O19   O     O_R   0.602780 0.060140 0.731810 -0.636815
O20   O     O_R   0.060140 0.397220 0.268190 -0.634400
O21   O     O_R   0.939860 0.602780 0.731810 -0.634455
O22   O     O_R   0.602780 0.939860 0.731810 -0.634445
O23   O     O_3   0.000000 0.500000 0.250000 -0.493174
O24   O     O_R   0.397220 0.060140 0.268190 -0.634424
O25   O     O_R   0.939860 0.397220 0.731810 -0.636741
O26   O     O_R   0.060140 0.602780 0.268190 -0.636810
O27   O     O_R   0.397220 0.060140 0.731810 -0.634436
O28   O     O_R   0.602780 0.939860 0.268190 -0.634395
O29   O     O_R   0.060140 0.602780 0.731810 -0.636835
O30   O     O_R   0.939860 0.397220 0.268190 -0.636748
O31   O     O_R   0.102780 0.560140 0.768190 -0.636762
O32   O     O_R   0.897220 0.439860 0.231810 -0.636742
O33   O     O_R   0.439860 0.102780 0.768190 -0.634427
O34   O     O_3   0.000000 0.500000 0.750000 -0.493164
O35   O     O_R   0.560140 0.897220 0.231810 -0.634421
O36   O     O_R   0.897220 0.439860 0.768190 -0.636812
O37   O     O_R   0.102780 0.560140 0.231810 -0.636813
O38   O     O_R   0.560140 0.897220 0.768190 -0.634455
O39   O     O_R   0.439860 0.102780 0.231810 -0.634400
O40   O     O_R   0.102780 0.439860 0.231810 -0.634425
O41   O     O_R   0.897220 0.560140 0.768190 -0.634446
O42   O     O_R   0.439860 0.897220 0.231810 -0.636810
O43   O     O_R   0.560140 0.102780 0.768190 -0.636740
O44   O     O_R   0.897220 0.560140 0.231810 -0.634396
O45   O     O_R   0.457240 1.000000 0.319330 -0.602893
O46   O     O_R   0.102780 0.439860 0.768190 -0.634436
O47   O     O_R   0.560140 0.102780 0.231810 -0.636747
O48   O     O_R   0.439860 0.897220 0.768190 -0.636834
O49   O     O_3   0.548360 0.081656 0.130381 -0.578577
O50   O     O_3   0.451625 0.918357 0.869621 -0.578580
O51   O     O_3   0.918345 0.451637 0.130381 -0.578572
O52   O     O_3   0.081642 0.548376 0.869621 -0.578622
O53   O     O_3   0.451666 0.918333 0.130377 -0.578619
O54   O     O_3   0.548388 0.081639 0.869618 -0.578604
O55   O     O_3   0.081666 0.548336 0.130377 -0.578624
O56   O     O_R   0.542760 1.000000 0.680670 -0.602827
O57   O     O_3   0.918362 0.451610 0.869618 -0.578564
O58   O     O_3   0.048373 0.581644 0.630379 -0.578580
O59   O     O_3   0.951641 0.418343 0.369619 -0.578577
O60   O     O_3   0.418354 0.951631 0.630378 -0.578620
O61   O     O_3   0.581661 0.048352 0.369619 -0.578571
O62   O     O_3   0.951614 0.418360 0.630382 -0.578604
O63   O     O_3   0.048333 0.581667 0.369623 -0.578619
O64   O     O_3   0.581642 0.048383 0.630382 -0.578562
O65   O     O_3   0.418327 0.951676 0.369623 -0.578622
O66   O     O_R   1.000000 0.457240 0.319330 -0.602874
O67   O     O_R   1.000000 0.542760 0.680670 -0.602836
O68   O     O_R   0.542760 1.000000 0.319330 -0.602870
Zn1   Zn    Zn3+2 0.500000 0.061050 0.224040 0.983157
Zn2   Zn    Zn3+2 1.000000 0.438950 0.275960 0.983156
Zn3   Zn    Zn3+2 0.438950 0.000000 0.724040 0.983111
Zn4   Zn    Zn3+2 0.561050 1.000000 0.275960 0.983161
Zn5   Zn    Zn3+2 1.000000 0.438950 0.724040 0.983131
Zn6   Zn    Zn3+2 0.000000 0.561050 0.275960 0.983101
Zn7   Zn    Zn3+2 0.561050 0.000000 0.724040 0.983122
Zn8   Zn    Zn3+2 0.438950 1.000000 0.275960 0.983093
Zn9   Zn    Zn3+2 0.500000 0.938950 0.775960 0.983104
Zn10  Zn    Zn3+2 0.938950 0.500000 0.224040 0.983164
Zn11  Zn    Zn3+2 0.061050 0.500000 0.775960 0.983112
Zn12  Zn    Zn3+2 0.500000 0.938950 0.224040 0.983101
Zn13  Zn    Zn3+2 0.500000 0.061050 0.775960 0.983132
Zn14  Zn    Zn3+2 0.061050 0.500000 0.224040 0.983095
Zn15  Zn    Zn3+2 0.938950 0.500000 0.775960 0.983124
Zn16  Zn    Zn3+2 1.000000 0.561050 0.724040 0.983103

loop_
_geom_bond_atom_site_label_1
_geom_bond_atom_site_label_2
_ccdc_geom_bond_type
C96   H138  S    
H50   N26   S    
C52   C113  A    
C130  C174  A    
C11   O4    A    
C28   C145  S    
O28   Zn4   S    
C75   H85   S    
O16   Zn6   S    
C13   C139  T    
O26   Zn6   S    
C68   C119  S    
H48   N25   S    
C70   O49   S    
C99   H3    S    
H20   N10   S    
C30   O33   A    
N23   N31   A    
C35   C145  T    
C21   C152  S    
C149  C153  T    
C27   O39   A    
C30   O27   A    
O20   Zn2   S    
C124  C168  A    
C61   H58   S    
O12   Zn13  S    
C35   C115  S    
C163  C192  S    
C125  C169  A    
C43   H79   S    
C7    N30   A    
H22   N11   S    
O10   Zn10  S    
C110  C171  S    
C138  C154  T    
C190  N6    A    
C129  C173  A    
C165  N10   S    
C41   C49   A    
C15   O7    A    
C158  C167  A    
H40   N20   S    
C41   H46   S    
C98   H143  S    
C88   H120  S    
C76   H88   S    
C128  C185  A    
O12   Zn3   S    
C26   C139  S    
C82   H102  S    
C72   O50   S    
C192  N4    A    
C31   O28   A    
C5    C155  S    
C29   C144  S    
C106  C127  S    
H51   N26   S    
C30   C143  S    
C46   C117  S    
C123  C185  A    
C23   O40   A    
C38   H134  S    
C14   O10   A    
C97   H142  S    
O12   Zn7   S    
C66   H61   S    
C20   O17   A    
C81   O54   S    
O44   Zn10  S    
C98   H144  S    
C1    C150  T    
H44   N22   S    
C66   C110  A    
C40   H52   S    
C96   O62   S    
C7    C157  S    
C44   C112  A    
C85   H111  S    
C60   C65   A    
C1    C79   S    
O34   Zn16  S    
O66   Zn2   S    
C95   H135  S    
C16   O13   A    
C177  N22   S    
C54   H64   S    
C47   H1    S    
C49   H112  S    
C90   C105  S    
C77   H93   S    
C72   C73   S    
C116  C147  T    
C6    N27   A    
C62   C106  A    
C63   H55   S    
C133  O62   S    
C107  C138  S    
C38   C43   A    
C59   C66   A    
O46   Zn11  S    
H32   N17   S    
C161  C174  A    
O1    Zn8   S    
C80   H98   S    
C37   C44   A    
C94   H132  S    
C12   C185  S    
C58   C119  A    
C55   H63   S    
O13   Zn12  S    
C77   H92   S    
O6    Zn14  S    
C81   H100  S    
C134  O63   S    
C69   H59   S    
C3    N7    A    
C10   O66   A    
C83   H106  S    
C58   C67   A    
C86   H114  S    
C64   H54   S    
C98   C99   S    
O23   Zn2   S    
H39   N20   S    
C89   H121  S    
O67   Zn16  S    
C93   H129  S    
C57   C118  S    
C103  O65   S    
C100  H6    S    
C87   H117  S    
C47   C114  A    
C39   C51   A    
C24   C114  S    
C71   H76   S    
O17   Zn5   S    
C18   O15   A    
O15   Zn3   S    
O14   Zn4   S    
N4    N7    A    
C158  C172  A    
C85   C86   S    
H27   N14   S    
C70   H72   S    
C32   O29   A    
C120  O49   S    
C48   H123  S    
C126  C170  A    
C176  N21   S    
H23   N13   S    
C102  H9    S    
O48   Zn9   S    
H25   N13   S    
O37   Zn14  S    
C91   H126  S    
C78   C80   S    
C76   O52   S    
O1    Zn4   S    
O2    Zn3   S    
C151  C171  T    
C104  H15   S    
C3    C162  S    
C45   H57   S    
C49   C117  A    
C92   H128  S    
C51   C119  A    
C174  N19   S    
C68   C142  T    
C33   O30   A    
C89   C91   S    
O8    Zn1   S    
C73   H82   S    
O23   Zn6   S    
O34   Zn15  S    
C104  H16   S    
N3    N8    A    
O56   Zn7   S    
C41   C109  A    
C123  O52   S    
H18   N9    S    
C43   C111  A    
C121  O50   S    
O12   Zn9   S    
C6    C158  S    
C173  N18   S    
C80   H96   S    
C20   C153  S    
C56   H71   S    
O3    Zn6   S    
C130  C187  A    
C46   C144  T    
C162  C175  A    
C87   H116  S    
C105  C148  T    
C10   O3    A    
C4    N12   A    
C5    N28   A    
C61   C101  A    
O43   Zn13  S    
C34   C79   A    
C44   H68   S    
C62   H56   S    
C83   C84   S    
O35   Zn12  S    
H17   N9    S    
C190  N2    A    
H29   N15   S    
C42   C48   A    
O47   Zn1   S    
C93   H131  S    
C15   O11   A    
C27   O24   A    
O30   Zn2   S    
C71   H74   S    
C72   H77   S    
N27   N30   A    
C9    O2    A    
O27   Zn3   S    
C36   C90   A    
C101  C116  S    
C22   C151  S    
C32   O31   A    
C50   C118  A    
C166  N11   S    
C59   H69   S    
N6    N32   A    
O7    Zn9   S    
C161  C190  S    
C14   O6    A    
C91   H124  S    
C128  C172  A    
C24   C137  T    
N2    N5    A    
C121  C165  A    
O4    Zn5   S    
O40   Zn14  S    
C136  C189  A    
H37   N19   S    
C42   C110  A    
C34   H24   S    
C135  O64   S    
C37   C101  A    
H47   N24   S    
C53   C63   A    
C74   O51   S    
C8    O45   A    
C55   C61   A    
C33   O32   A    
C120  C164  A    
C132  O61   S    
C56   C69   A    
O31   Zn11  S    
C87   O58   S    
C78   H94   S    
C58   H70   S    
C122  O51   S    
C168  N14   S    
H33   N17   S    
C87   C88   S    
C11   C186  S    
C8    O68   A    
O34   Zn5   S    
O45   Zn8   S    
C64   C90   A    
C130  O59   S    
C9    C188  S    
H49   N25   S    
C2    C112  S    
C27   C137  S    
C122  C166  A    
C82   H103  S    
C3    N3    A    
H45   N24   S    
C11   O67   A    
C74   H83   S    
C5    N1    A    
C132  C176  A    
C103  H12   S    
C78   O53   S    
C124  C181  A    
C97   H141  S    
O1    Zn1   S    
C28   O25   A    
C15   C183  S    
C51   H90   S    
C178  N24   S    
C70   C71   S    
C104  H14   S    
H31   N16   S    
C40   C108  A    
C84   H107  S    
C67   H60   S    
C85   H110  S    
H21   N11   S    
C129  C186  A    
O24   Zn8   S    
C92   O60   S    
C170  N16   S    
H38   N19   S    
C23   O20   A    
C21   O18   A    
C53   H65   S    
C175  N20   S    
C75   H86   S    
C159  C191  S    
C76   H89   S    
C52   C64   A    
H43   N22   S    
C191  N32   A    
C16   C181  S    
C167  N13   S    
C54   C62   A    
C99   H4    S    
C124  O53   S    
O29   Zn16  S    
H41   N21   S    
O23   Zn10  S    
C102  H8    S    
C157  C170  A    
C95   H137  S    
C155  C168  A    
C21   O42   A    
C94   H133  S    
C65   H62   S    
C180  N26   S    
C134  C178  A    
H36   N18   S    
C81   H99   S    
C65   C109  A    
C32   C141  S    
C83   H105  S    
C86   H115  S    
C4    C156  S    
C23   C150  S    
H26   N14   S    
C16   O8    A    
O34   Zn11  S    
C25   O21   A    
C53   C114  A    
O1    Zn12  S    
O42   Zn12  S    
C88   H119  S    
C71   H75   S    
C56   C118  A    
C134  C187  A    
C73   H80   S    
O9    Zn11  S    
C172  N17   S    
H42   N21   S    
C179  N25   S    
C31   O35   A    
C37   H2    S    
C50   H101  S    
C102  H10   S    
C128  O57   S    
C20   O46   A    
O23   Zn14  S    
C91   H125  S    
C133  C177  A    
O32   Zn10  S    
C156  C165  A    
O21   Zn16  S    
C40   C50   A    
C131  C175  A    
C92   C93   S    
C54   C111  A    
C25   C148  S    
O18   Zn8   S    
C36   H13   S    
C111  C182  S    
C94   C95   S    
C127  C146  T    
C84   H109  S    
C45   C113  A    
C96   H139  S    
C103  C104  S    
C19   C154  S    
C82   H104  S    
C34   C47   A    
C161  C178  A    
C132  C189  A    
O68   Zn4   S    
C95   H136  S    
O19   Zn7   S    
C152  C160  T    
C26   O22   A    
C55   C112  A    
C125  C183  A    
C126  C184  A    
C81   C82   S    
C63   C79   A    
C42   H35   S    
C39   C107  A    
C169  N15   S    
C60   H67   S    
C17   C147  S    
C22   O19   A    
C80   H97   S    
C33   C140  S    
C156  C169  A    
C141  C182  T    
C39   H53   S    
N12   N28   A    
C86   H113  S    
C73   H81   S    
C164  N9    S    
C120  C181  A    
C8    C189  S    
O33   Zn13  S    
C93   H130  S    
C121  C183  A    
C123  C167  A    
C131  C188  A    
C122  C184  A    
C52   H66   S    
C72   H78   S    
C98   O63   S    
C159  C177  A    
C163  C176  A    
C19   O16   A    
C69   C108  A    
C192  N8    A    
O39   Zn1   S    
O25   Zn5   S    
C78   H95   S    
C9    O56   A    
C17   O47   A    
C18   O48   A    
C74   C75   S    
C57   C143  T    
C94   O61   S    
C29   O37   A    
C12   O5    A    
C60   C117  A    
C76   C77   S    
C77   H91   S    
C75   H87   S    
H34   N18   S    
C38   C106  A    
C4    N29   A    
O5    Zn15  S    
C6    N31   A    
O36   Zn15  S    
O41   Zn15  S    
C92   H127  S    
C96   C97   S    
C99   H5    S    
C100  C102  S    
C10   C187  S    
C36   C45   A    
C191  N5    A    
C29   O26   A    
C162  C179  A    
C133  C186  A    
C48   C115  A    
N1    N29   A    
C126  O55   S    
C17   O14   A    
C135  C188  A    
C70   H73   S    
C89   H122  S    
O22   Zn7   S    
H28   N15   S    
C12   O9    A    
C18   C146  S    
C157  C166  A    
C100  O64   S    
C14   C184  S    
C155  C164  A    
C136  C180  A    
C88   H118  S    
C2    C140  T    
C31   C142  S    
C135  C179  A    
C7    N23   A    
O38   Zn9   S    
H30   N16   S    
C19   O44   A    
C67   C107  A    
C74   H84   S    
C125  O54   S    
C22   O43   A    
C103  H11   S    
C131  O60   S    
C28   O36   A    
C97   H140  S    
C25   O41   A    
C108  C149  S    
C100  H7    S    
C85   O57   S    
C129  O58   S    
C26   O38   A    
C89   O59   S    
C59   C115  A    
C159  C173  A    
C163  C180  A    
H19   N10   S    
O11   Zn13  S    
C109  C160  S    
C83   O55   S    
C136  O65   S    
C13   C113  S    
C84   H108  S    
