data_mof_unit_37160.cif
_audit_creation_date              2012-12-10T18:18:17-0500
_audit_creation_method            fapswitch 2.2
_symmetry_space_group_name_H-M    P1
_symmetry_Int_Tables_number       1
_space_group_crystal_system       triclinic
_cell_length_a                    14.078231
_cell_length_b                    15.01053
_cell_length_c                    15.336058
_cell_angle_alpha                 89.504727
_cell_angle_beta                  67.602907
_cell_angle_gamma                 90.365237
_cell_volume                      2996.09447668

loop_
_atom_site_label
_atom_site_type_symbol
_atom_type_description
_atom_site_fract_x
_atom_site_fract_y
_atom_site_fract_z
_atom_type_partial_charge
C1    C     C_R   0.500237 0.673434 0.499890 0.899913
C2    C     C_R   0.500399 0.769345 0.499911 -0.075608
C3    C     C_R   0.587747 0.185414 0.496107 -0.240976
C4    C     C_R   0.412077 0.814551 0.504351 -0.250571
C5    C     C_R   0.588574 0.093301 0.496013 0.115766
C6    C     C_R   0.411196 0.906660 0.504595 0.117107
C7    C     C_R   0.499762 0.046328 0.500408 0.063813
C8    C     C_R   0.499994 0.953632 0.500236 0.064832
C9    C     C_R   0.410747 0.092034 0.504919 0.114537
C10   C     C_R   0.589031 0.907926 0.495668 0.113585
C11   C     C_R   0.676662 0.047568 0.491495 -0.196170
C12   C     C_R   0.499736 0.326560 0.500175 0.907382
C13   C     C_R   0.323093 0.952389 0.509153 -0.200861
C14   C     C_R   0.676899 0.955007 0.491298 -0.195264
C15   C     C_R   0.322863 0.044950 0.509333 -0.194290
C16   C     C_R   0.435840 0.501618 0.676664 0.905440
C17   C     C_R   0.564379 0.501028 0.323358 0.911308
C18   C     C_R   0.176989 0.444207 0.561415 0.037036
C19   C     C_R   0.822810 0.556089 0.438942 0.037258
C20   C     C_R   0.226847 0.555113 0.440394 -0.059573
C21   C     C_R   0.772936 0.445302 0.560019 -0.069536
C22   C     C_R   0.127247 0.556442 0.439915 0.010572
C23   C     C_R   0.417449 0.616743 0.084494 -0.282644
C24   C     C_R   0.872386 0.444249 0.560778 0.006405
C25   C     C_R   0.050240 0.499504 0.501060 0.075359
C26   C     C_R   0.949404 0.501159 0.499674 0.077175
C27   C     C_R   0.074100 0.441324 0.563421 -0.064228
C28   C     C_R   0.925395 0.559587 0.437631 -0.069498
C29   C     C_R   0.103943 0.614703 0.379632 -0.231340
C30   C     C_R   0.895274 0.386767 0.621836 -0.237838
C31   C     C_R   0.005062 0.617921 0.378214 -0.007143
C32   C     C_R   0.993821 0.384059 0.623992 -0.006170
C33   C     C_R   0.397705 0.520539 0.777455 -0.124879
C34   C     C_R   0.632907 0.528701 0.884359 -0.286808
C35   C     C_R   0.606296 0.506955 0.220494 -0.124545
C36   C     C_R   0.281592 0.600340 0.913483 0.403667
C37   C     C_R   0.740403 0.475526 0.068373 0.407343
C38   C     C_R   0.305757 0.564843 0.823141 -0.246278
C39   C     C_R   0.705060 0.478164 0.166931 -0.237214
C40   C     C_R   0.464989 0.508554 0.822467 -0.231056
C41   C     C_R   0.543401 0.538030 0.176413 -0.242439
C42   C     C_R   0.451082 0.551524 0.906440 0.048824
C43   C     C_R   0.576723 0.541752 0.078340 0.051869
C44   C     C_R   0.356687 0.596364 0.956257 -0.023754
C45   C     C_R   0.345479 0.634728 0.044304 -0.028267
C46   C     C_R   0.677234 0.510731 0.021936 -0.020998
C47   C     C_R   0.530224 0.547933 0.941884 0.095972
C48   C     C_R   0.507587 0.568713 0.036113 0.100437
C49   C     C_1   0.267510 0.697619 0.095168 0.307246
C50   C     C_1   0.812811 0.517620 0.856714 0.314376
C51   C     C_1   0.207863 0.390458 0.624199 0.255190
C52   C     C_1   0.792252 0.608898 0.375280 0.246306
C53   C     C_1   0.990043 0.684787 0.316495 0.192642
C54   C     C_1   0.006584 0.320466 0.689852 0.207594
C55   C     C_R   0.707239 0.515702 0.922602 -0.022044
C56   C     C_R   0.411276 0.184224 0.504843 -0.230871
C57   C     C_R   0.588569 0.815743 0.495566 -0.232265
C58   C     C_R   0.499483 0.230630 0.500389 -0.076992
H1    H     H_    0.286425 0.598648 0.393476 0.130942
H2    H     H_    0.657941 0.529735 0.808223 0.149406
H3    H     H_    0.343031 0.219620 0.508291 0.165099
H4    H     H_    0.656852 0.780344 0.492014 0.165250
H5    H     H_    0.656006 0.221701 0.492611 0.166153
H6    H     H_    0.343836 0.778262 0.507798 0.164082
H7    H     H_    0.745128 0.083343 0.488089 0.153663
H8    H     H_    0.254634 0.916613 0.512543 0.151977
H9    H     H_    0.745529 0.920292 0.487740 0.153956
H10   H     H_    0.254243 0.079664 0.512862 0.153700
H11   H     H_    0.099742 0.669638 0.854776 0.354381
H12   H     H_    0.713287 0.401906 0.607051 0.137115
H13   H     H_    0.923474 0.385578 0.113261 0.370362
H14   H     H_    0.163500 0.659146 0.333661 0.143136
H15   H     H_    0.835318 0.343118 0.668587 0.153049
H16   H     H_    0.465610 0.555058 0.220466 0.161918
H17   H     H_    0.531124 0.466942 0.788771 0.160765
H18   H     H_    0.752034 0.452202 0.202911 0.186572
H19   H     H_    0.253965 0.573409 0.786730 0.191591
H20   H     H_    0.405336 0.646679 0.151802 0.137534
N1    N     N_R   0.249980 0.499930 0.499960 -0.121690
N2    N     N_R   0.750020 0.500070 0.500040 -0.120430
N3    N     N_1   0.206703 0.748906 0.137398 -0.132693
N4    N     N_1   0.896910 0.520263 0.802783 -0.137622
N5    N     N_1   0.232787 0.347405 0.674677 -0.175357
N6    N     N_1   0.767604 0.651178 0.324087 -0.178456
N7    N     N_1   0.978749 0.738824 0.267085 -0.118946
N8    N     N_1   0.015413 0.269141 0.742972 -0.114186
O1    O     O_R   0.419720 0.632140 0.499980 -0.631343
O2    O     O_2   0.164340 0.745793 0.970102 -0.309248
O3    O     O_3   0.085319 0.621257 0.902573 -0.484984
O4    O     O_2   0.840885 0.353008 0.939021 -0.271385
O5    O     O_2   0.943408 0.474888 0.965188 -0.231033
O6    O     O_3   0.879045 0.348551 0.090811 -0.524200
O7    O     O_R   0.580280 0.367860 0.500020 -0.626653
O8    O     O_R   0.580270 0.632160 0.499970 -0.622018
O9    O     O_R   0.419730 0.367840 0.500030 -0.621345
O10   O     O_R   0.373870 0.499980 0.632250 -0.609337
O11   O     O_R   0.626130 0.500020 0.367750 -0.610245
O12   O     O_R   0.534420 0.500000 0.632240 -0.621972
O13   O     O_R   0.465580 0.500000 0.367760 -0.619610
O14   O     O_2   0.102699 0.608639 0.063848 -0.254342
S1    S     S_3+6 0.156603 0.646092 0.965910 0.047245
S2    S     S_3+6 0.853788 0.412871 0.011884 0.052000
Zn1   Zn    Zn3+2 0.392800 0.499980 0.500010 0.954543
Zn2   Zn    Zn3+2 0.607200 0.500020 0.499990 0.953821

loop_
_geom_bond_atom_site_label_1
_geom_bond_atom_site_label_2
_ccdc_geom_bond_type
C1    O1    A    
O13   Zn1   S    
C23   C45   A    
C22   C29   A    
C2    C4    A    
O2    S1    D    
C2    C57   A    
C7    C8    A    
N2    Zn2   S    
C24   C26   A    
C5    C11   A    
C37   S2    S    
C11   C14   A    
C1    C2    S    
C49   N3    T    
C52   N6    T    
O4    S2    D    
C41   H16   S    
C19   C52   S    
H13   O6    S    
C1    O8    A    
C22   C25   A    
C46   C55   A    
C14   H9    S    
C12   O9    A    
C43   C48   A    
O6    S2    S    
C29   H14   S    
C12   C58   S    
C40   C42   A    
O8    Zn2   S    
C34   C55   A    
C34   H2    S    
C41   C43   A    
N1    Zn1   S    
C42   C44   A    
H11   O3    S    
O7    Zn2   S    
C32   C54   S    
O9    Zn1   S    
C18   C51   S    
C13   H8    S    
C16   O10   A    
C33   C40   A    
C57   H4    S    
C10   C57   A    
C4    C6    A    
C10   C14   A    
C54   N8    T    
C30   H15   S    
C18   N1    A    
C6    C8    A    
C25   C26   A    
C36   S1    S    
C35   C39   A    
C16   C33   S    
C47   C48   A    
C45   C49   S    
C9    C56   A    
C39   H18   S    
C31   C53   S    
C20   H1    S    
C19   C28   A    
C17   O13   A    
O1    Zn1   S    
C8    C10   A    
C20   C22   A    
C13   C15   A    
C12   O7    A    
C36   C44   A    
O5    S2    D    
C51   N5    T    
C44   C45   A    
C50   N4    T    
C5    C7    A    
C7    C9    A    
C23   C48   A    
C20   N1    A    
O3    S1    S    
C27   C32   A    
C28   C31   A    
C18   C27   A    
C50   C55   S    
C3    C5    A    
C38   H19   S    
C3    H5    S    
C25   C27   A    
C4    H6    S    
C26   C28   A    
C33   C38   A    
C40   H17   S    
C21   H12   S    
C36   C38   A    
C9    C15   A    
C29   C31   A    
C6    C13   A    
C30   C32   A    
C16   O12   A    
O12   Zn2   S    
C15   H10   S    
C21   N2    A    
O14   S1    D    
C56   C58   A    
C42   C47   A    
C23   H20   S    
C19   N2    A    
C35   C41   A    
C43   C46   A    
C24   C30   A    
O11   Zn2   S    
C3    C58   A    
C37   C39   A    
C21   C24   A    
C56   H3    S    
C53   N7    T    
C34   C47   A    
C17   C35   S    
C37   C46   A    
O10   Zn1   S    
C17   O11   A    
C11   H7    S    
