data_mof_unit_6929.cif
_audit_creation_date              2012-12-10T21:09:57-0500
_audit_creation_method            fapswitch 2.2
_symmetry_space_group_name_H-M    P1
_symmetry_Int_Tables_number       1
_space_group_crystal_system       triclinic
_cell_length_a                    12.782369
_cell_length_b                    17.542119
_cell_length_c                    16.865923
_cell_angle_alpha                 90.775171
_cell_angle_beta                  96.145634
_cell_angle_gamma                 90.403605
_cell_volume                      3759.62760043

loop_
_atom_site_label
_atom_site_type_symbol
_atom_type_description
_atom_site_fract_x
_atom_site_fract_y
_atom_site_fract_z
_atom_type_partial_charge
C1    C     C_R   0.503183 0.352050 0.499644 0.966032
C2    C     C_R   0.445330 0.116708 0.532247 -0.142621
C3    C     C_1   0.423937 0.968167 0.533492 0.127754
C4    C     C_1   0.427371 0.036318 0.536305 0.152814
C5    C     C_R   0.429561 0.452404 0.829578 0.365667
C6    C     C_R   0.558284 0.560147 0.173529 0.370192
C7    C     C_R   0.437069 0.448484 0.744571 0.119017
C8    C     C_R   0.575256 0.541272 0.256494 0.224860
C9    C     C_R   0.556935 0.554940 0.754984 0.278353
C10   C     C_R   0.418532 0.465693 0.243035 0.270056
C11   C     C_R   0.550222 0.558190 0.838444 -0.266968
C12   C     C_R   0.489023 0.647263 0.499495 0.942036
C13   C     C_R   0.413350 0.472891 0.158861 -0.247445
C14   C     C_R   0.488065 0.508056 0.876025 -0.065594
C15   C     C_R   0.483335 0.518885 0.123416 -0.096679
C16   C     C_R   0.296815 0.505328 0.484916 0.905283
C17   C     C_R   0.702914 0.491539 0.515836 0.934315
C18   C     C_1   0.485666 0.514456 0.963397 0.192151
C19   C     C_1   0.483246 0.517418 0.035843 0.183128
C20   C     C_R   0.815000 0.467121 0.527235 -0.224953
C21   C     C_R   0.181550 0.510138 0.475469 -0.223509
C22   C     C_R   0.018713 0.490683 0.390095 0.061877
C23   C     C_R   0.457537 0.729984 0.500774 -0.297583
C24   C     C_R   0.985281 0.447755 0.602905 0.011703
C25   C     C_R   0.122846 0.519987 0.401145 0.364762
C26   C     C_R   0.875014 0.453458 0.603452 0.398005
C27   C     C_R   0.127541 0.507053 0.542620 0.080416
C28   C     C_R   0.863306 0.447052 0.457995 0.041254
C29   C     C_R   0.029224 0.471866 0.534509 -0.028505
C30   C     C_R   0.970665 0.466680 0.458718 -0.001216
C31   C     C_R   0.447372 0.840178 0.588319 0.473289
C32   C     C_R   0.386666 0.157871 0.472403 0.441517
C33   C     C_R   0.434477 0.761717 0.575420 -0.022318
C34   C     C_R   0.503524 0.266604 0.499352 -0.299699
C35   C     C_R   0.429046 0.226111 0.446605 -0.030384
C36   C     C_3   0.820047 0.376311 0.411423 -0.382286
C37   C     C_3   0.882198 0.305352 0.438291 -0.694022
C38   C     C_3   0.140195 0.574793 0.599837 -0.400799
C39   C     C_3   0.097771 0.646955 0.557742 -0.777407
C40   C     C_3   0.625744 0.614653 0.719637 -0.320630
C41   C     C_3   0.700893 0.661862 0.778513 -0.780223
C42   C     C_3   0.331001 0.421328 0.276215 -0.351388
C43   C     C_3   0.282533 0.355522 0.223455 -0.953104
C44   C     C_3   0.962078 0.488882 0.306515 -0.345396
C45   C     C_R   0.446333 0.778642 0.432040 0.400402
C46   C     C_3   0.000712 0.423586 0.256938 -0.815896
C47   C     C_3   0.056419 0.405080 0.665627 -0.371255
C48   C     C_3   0.091504 0.450341 0.742541 -0.609711
C49   C     C_3   0.372330 0.716864 0.631830 -0.334668
C50   C     C_3   0.275572 0.759319 0.655177 -0.791889
C51   C     C_3   0.421174 0.239578 0.357471 -0.351261
C52   C     C_3   0.485982 0.181377 0.315913 -0.801191
C53   C     C_3   0.378456 0.907223 0.375542 -0.286804
C54   C     C_3   0.467064 0.954540 0.345549 -0.665643
C55   C     C_3   0.608602 0.097800 0.629239 -0.286393
C56   C     C_R   0.565911 0.224539 0.558504 0.400670
C57   C     C_3   0.680358 0.047752 0.583475 -0.679276
C58   C     C_3   0.372334 0.387552 0.697143 -0.366861
C59   C     C_3   0.420645 0.308399 0.708095 -0.656551
C60   C     C_3   0.689531 0.536758 0.289515 -0.432556
C61   C     C_3   0.733606 0.603193 0.342998 -0.559477
C62   C     C_R   0.418629 0.856211 0.444061 -0.042127
C63   C     C_R   0.538565 0.147863 0.572765 -0.029835
C64   C     C_R   0.428788 0.887232 0.522332 -0.148098
H1    H     H_    0.592436 0.600974 0.876115 0.198619
H2    H     H_    0.081625 0.691230 0.602197 0.242048
H3    H     H_    0.093989 0.567756 0.650922 0.230310
H4    H     H_    0.222798 0.581834 0.625453 0.210286
H5    H     H_    0.656164 0.702577 0.812689 0.268252
H6    H     H_    0.749459 0.624636 0.820244 0.299068
H7    H     H_    0.754654 0.695812 0.744940 0.266101
H8    H     H_    0.674911 0.587451 0.678406 0.275472
H9    H     H_    0.576373 0.656735 0.686539 0.213327
H10   H     H_    0.231968 0.377213 0.171150 0.280157
H11   H     H_    0.344880 0.318414 0.203308 0.284411
H12   H     H_    0.353256 0.443852 0.119522 0.202981
H13   H     H_    0.230390 0.321047 0.257799 0.275184
H14   H     H_    0.359075 0.396886 0.333724 0.234034
H15   H     H_    0.267323 0.460759 0.286759 0.263955
H16   H     H_    0.861460 0.336010 0.739811 0.386318
H17   H     H_    0.080832 0.705812 0.310343 0.398963
H18   H     H_    0.084225 0.432839 0.247555 0.281997
H19   H     H_    0.992792 0.368349 0.287174 0.258210
H20   H     H_    0.953359 0.420863 0.197791 0.269298
H21   H     H_    0.877994 0.482641 0.307881 0.183252
H22   H     H_    0.970250 0.543273 0.275217 0.290557
H23   H     H_    0.888839 0.300531 0.504129 0.285328
H24   H     H_    0.033701 0.493891 0.756125 0.295457
H25   H     H_    0.102650 0.410775 0.793444 0.305969
H26   H     H_    0.167795 0.479641 0.738129 0.199880
H27   H     H_    0.018187 0.350533 0.678783 0.224907
H28   H     H_    0.128253 0.386049 0.639621 0.186459
H29   H     H_    0.630410 0.937124 0.737255 0.391946
H30   H     H_    0.142573 0.044877 0.458096 0.389626
H31   H     H_    0.297401 0.808890 0.694809 0.318492
H32   H     H_    0.226992 0.779637 0.601197 0.252515
H33   H     H_    0.228515 0.720566 0.689136 0.245739
H34   H     H_    0.841813 0.253604 0.411040 0.254604
H35   H     H_    0.342054 0.663820 0.601660 0.215343
H36   H     H_    0.421198 0.701174 0.686943 0.241121
H37   H     H_    0.570025 0.185297 0.340656 0.254323
H38   H     H_    0.457168 0.122637 0.323566 0.283180
H39   H     H_    0.480166 0.193205 0.251073 0.258200
H40   H     H_    0.338246 0.236755 0.331104 0.267900
H41   H     H_    0.453643 0.294874 0.342662 0.228799
H42   H     H_    0.392530 0.788301 0.226541 0.386425
H43   H     H_    0.847935 0.224701 0.626306 0.372507
H44   H     H_    0.492781 0.000983 0.388560 0.208454
H45   H     H_    0.962661 0.308231 0.419297 0.249718
H46   H     H_    0.536839 0.919142 0.337577 0.299267
H47   H     H_    0.438444 0.980447 0.287643 0.262145
H48   H     H_    0.333237 0.874000 0.327128 0.231191
H49   H     H_    0.318126 0.946467 0.394932 0.236790
H50   H     H_    0.635960 0.999322 0.553023 0.247577
H51   H     H_    0.715900 0.080568 0.537276 0.281494
H52   H     H_    0.744445 0.024354 0.625611 0.265189
H53   H     H_    0.657218 0.131330 0.675576 0.264293
H54   H     H_    0.559395 0.061326 0.663973 0.235282
H55   H     H_    0.241773 0.415524 0.972085 0.387368
H56   H     H_    0.736387 0.366330 0.420710 0.239663
H57   H     H_    0.619645 0.698279 0.023407 0.390335
H58   H     H_    0.435804 0.292666 0.771601 0.301472
H59   H     H_    0.367668 0.265006 0.676052 0.227840
H60   H     H_    0.496652 0.307230 0.683358 0.288639
H61   H     H_    0.291271 0.387918 0.712987 0.216265
H62   H     H_    0.358590 0.398410 0.633913 0.240940
H63   H     H_    0.753947 0.652573 0.307631 0.299410
H64   H     H_    0.678719 0.620582 0.385799 0.287232
H65   H     H_    0.807662 0.585811 0.378082 0.192772
H66   H     H_    0.739293 0.531466 0.239869 0.210953
H67   H     H_    0.820600 0.380402 0.346391 0.192350
H68   H     H_    0.701367 0.481529 0.319300 0.194438
H69   H     H_    0.155283 0.669285 0.518809 0.291879
H70   H     H_    0.021995 0.634931 0.520786 0.273867
N1    N     N_R   0.500030 0.500030 0.707230 -0.122682
N2    N     N_R   0.499970 0.499970 0.292770 -0.141905
O1    O     O_R   0.500000 0.389130 0.566570 -0.580696
O2    O     O_2   0.708920 0.430424 0.696862 -0.190312
O3    O     O_3   0.886021 0.386645 0.761044 -0.515342
O4    O     O_2   0.254246 0.638290 0.381578 -0.292379
O5    O     O_2   0.171005 0.575582 0.259499 -0.297709
O6    O     O_3   0.057230 0.662118 0.340701 -0.577217
O7    O     O_2   0.416425 0.940062 0.706413 -0.297475
O8    O     O_2   0.496590 0.818463 0.748092 -0.306073
O9    O     O_3   0.610911 0.915977 0.682884 -0.584885
O10   O     O_2   0.189636 0.191837 0.413471 -0.313081
O11   O     O_2   0.272504 0.084918 0.350457 -0.332284
O12   O     O_R   0.500000 0.610870 0.433430 -0.517720
O13   O     O_3   0.207385 0.064413 0.489474 -0.551674
O14   O     O_2   0.595803 0.735691 0.344452 -0.286327
O15   O     O_2   0.424770 0.674213 0.308908 -0.230338
O16   O     O_3   0.454896 0.809075 0.260057 -0.521469
O17   O     O_2   0.710053 0.336297 0.567547 -0.343965
O18   O     O_2   0.680828 0.273607 0.692222 -0.310188
O19   O     O_3   0.786905 0.203224 0.591838 -0.587027
O20   O     O_2   0.280080 0.334037 0.834309 -0.305292
O21   O     O_2   0.418050 0.349533 0.944550 -0.297574
O22   O     O_3   0.267668 0.447979 0.930587 -0.570487
O23   O     O_R   0.499990 0.389100 0.433480 -0.668307
O24   O     O_2   0.658110 0.696921 0.188991 -0.204025
O25   O     O_2   0.735515 0.598112 0.109674 -0.324676
O26   O     O_3   0.567652 0.666953 0.048329 -0.548690
O27   O     O_R   0.500010 0.610900 0.566520 -0.678994
O28   O     O_R   0.346360 0.500000 0.555540 -0.672264
O29   O     O_R   0.653640 0.500000 0.444460 -0.646795
O30   O     O_R   0.346350 0.499970 0.422460 -0.600174
O31   O     O_R   0.653650 0.500030 0.577540 -0.557955
O32   O     O_2   0.841768 0.527265 0.737643 -0.334159
S1    S     S_3+6 0.823513 0.450031 0.699284 0.059057
S2    S     S_3+6 0.156322 0.599271 0.343478 0.001437
S3    S     S_3+6 0.490109 0.878474 0.685082 -0.000450
S4    S     S_3+6 0.261368 0.124812 0.428430 -0.007279
S5    S     S_3+6 0.479448 0.747692 0.335466 0.065096
S6    S     S_3+6 0.686976 0.262342 0.604398 -0.023694
S7    S     S_3+6 0.347560 0.391590 0.883072 -0.015101
S8    S     S_3+6 0.634311 0.631843 0.131132 0.045607
Zn1   Zn    Zn3+2 0.500000 0.500020 0.588860 0.976974
Zn2   Zn    Zn3+2 0.500000 0.499980 0.411140 0.996820

loop_
_geom_bond_atom_site_label_1
_geom_bond_atom_site_label_2
_ccdc_geom_bond_type
C25   S2    S    
O9    S3    S    
C52   H39   S    
C34   C56   A    
C16   C21   S    
C23   C45   A    
O10   S4    D    
C27   C29   A    
O13   S4    S    
C5    S7    S    
C47   H28   S    
C14   C18   S    
C60   H68   S    
O20   S7    D    
C3    C64   S    
C16   O28   A    
H30   O13   S    
C15   C19   S    
C8    N2    A    
C12   C23   S    
C52   H38   S    
C6    S8    S    
O15   S5    D    
C36   C37   S    
C10   N2    A    
C18   C19   T    
C55   H53   S    
C38   C39   S    
C11   C14   A    
C50   H31   S    
C10   C42   S    
C27   C38   S    
C33   C49   S    
N2    Zn2   S    
C45   C62   A    
C17   C20   S    
C40   H9    S    
C54   H46   S    
C2    C32   A    
C34   C35   A    
C24   C29   A    
C62   C64   A    
C6    C15   A    
C46   H18   S    
C22   C44   S    
C26   S1    S    
C44   C46   S    
C23   C33   A    
C22   C25   A    
C55   C63   S    
O27   Zn1   S    
O12   Zn2   S    
C31   C33   A    
H29   O9    S    
O30   Zn2   S    
C22   C30   A    
C7    C58   S    
C37   H45   S    
C61   H65   S    
O6    S2    S    
C59   H58   S    
C21   C27   A    
C42   H15   S    
C48   H26   S    
O2    S1    D    
C43   H11   S    
O29   Zn2   S    
O24   S8    D    
C44   H22   S    
C37   H34   S    
C53   H49   S    
C1    C34   S    
C57   H52   S    
C59   H59   S    
C52   H37   S    
H42   O16   S    
O18   S6    D    
C51   C52   S    
C32   C35   A    
C1    O23   A    
N1    Zn1   S    
C57   H51   S    
C17   O31   A    
C36   H67   S    
C16   O30   A    
C5    C7    A    
O25   S8    D    
C6    C8    A    
C20   C28   A    
C51   H40   S    
C53   C54   S    
O17   S6    D    
C9    C40   S    
C3    C4    T    
C56   S6    S    
C60   C61   S    
C2    C4    S    
C7    N1    A    
C29   C30   A    
C45   S5    S    
C49   H35   S    
C53   C62   S    
C47   C48   S    
O8    S3    D    
C13   H12   S    
C51   H41   S    
C48   H24   S    
C41   H7    S    
C56   C63   A    
O1    Zn1   S    
C61   H63   S    
C9    C11   A    
C5    C14   A    
O21   S7    D    
C46   H20   S    
O16   S5    S    
C9    N1    A    
C53   H48   S    
O32   S1    D    
O31   Zn1   S    
C38   H4    S    
C42   H14   S    
C48   H25   S    
C55   C57   S    
C35   C51   S    
C39   H2    S    
C42   C43   S    
O23   Zn2   S    
C60   H66   S    
C44   H21   S    
C1    O1    A    
C2    C63   A    
O19   S6    S    
C41   H5    S    
C39   H69   S    
C59   H60   S    
C21   C25   A    
O11   S4    D    
C40   C41   S    
C50   H33   S    
O4    S2    D    
C40   H8    S    
C24   C47   S    
C47   H27   S    
C31   C64   A    
C37   H23   S    
C24   C26   A    
C20   C26   A    
C10   C13   A    
C58   H62   S    
C57   H50   S    
C43   H13   S    
H16   O3    S    
C54   H44   S    
C12   O12   A    
C13   C15   A    
C58   C59   S    
O7    S3    D    
H17   O6    S    
C8    C60   S    
C49   H36   S    
C50   H32   S    
C31   S3    S    
C43   H10   S    
H55   O22   S    
H57   O26   S    
C28   C30   A    
O5    S2    D    
C54   H47   S    
O3    S1    S    
C61   H64   S    
C32   S4    S    
C36   H56   S    
C46   H19   S    
O22   S7    S    
O14   S5    D    
O26   S8    S    
C38   H3    S    
C28   C36   S    
C58   H61   S    
C49   C50   S    
C17   O29   A    
C55   H54   S    
H43   O19   S    
O28   Zn1   S    
C11   H1    S    
C41   H6    S    
C12   O27   A    
C39   H70   S    
