data_mof_unit_50560.cif
_audit_creation_date              2012-12-10T18:42:30-0500
_audit_creation_method            fapswitch 2.2
_symmetry_space_group_name_H-M    P1
_symmetry_Int_Tables_number       1
_space_group_crystal_system       triclinic
_cell_length_a                    8.618618
_cell_length_b                    10.735849
_cell_length_c                    9.857695
_cell_angle_alpha                 87.710389
_cell_angle_beta                  97.686918
_cell_angle_gamma                 90.568032
_cell_volume                      903.186859279

loop_
_atom_site_label
_atom_site_type_symbol
_atom_type_description
_atom_site_fract_x
_atom_site_fract_y
_atom_site_fract_z
_atom_type_partial_charge
C1    C     C_R   0.502961 0.259958 0.503204 0.947597
C2    C     C_R   0.497035 0.740042 0.496796 0.947610
C3    C     C_R   0.201796 0.500502 0.465428 0.957267
C4    C     C_R   0.798204 0.499497 0.534571 0.957256
C5    C     C_2   0.040357 0.521557 0.450192 0.070986
C6    C     C_2   0.959643 0.478440 0.549805 0.070926
C7    C     C_R   0.594276 0.069124 0.417010 0.107548
C8    C     C_R   0.405717 0.930876 0.582991 0.107573
C9    C     C_R   0.577632 0.941391 0.402216 0.108651
C10   C     C_R   0.422359 0.058609 0.597784 0.108667
C11   C     C_R   0.489489 0.872999 0.490153 -0.164158
C12   C     C_R   0.510503 0.127000 0.509847 -0.164154
C13   C     C_R   0.599535 0.575536 0.080491 -0.173675
C14   C     C_R   0.400462 0.424465 0.919510 -0.173626
C15   C     C_R   0.600462 0.575648 0.936419 0.268127
C16   C     C_R   0.399546 0.424345 0.063586 0.268178
H1    H     H_    0.678536 0.635529 0.142388 0.217270
H2    H     H_    0.321471 0.364464 0.857614 0.217269
N1    N     N_R   0.499960 0.499970 0.857200 -0.100463
N2    N     N_R   0.500040 0.500030 0.142800 -0.100475
O1    O     O_R   0.499990 0.316750 0.614620 -0.599776
O2    O     O_R   0.500010 0.683250 0.385380 -0.599773
O3    O     O_R   0.499990 0.316780 0.385290 -0.599107
O4    O     O_R   0.500010 0.683220 0.614710 -0.599067
O5    O     O_R   0.271750 0.499990 0.587840 -0.582315
O6    O     O_R   0.728250 0.500010 0.412160 -0.582310
O7    O     O_R   0.271750 0.500010 0.358510 -0.587031
O8    O     O_R   0.728250 0.499990 0.641490 -0.587079
Zn1   Zn    Zn3+2 0.500000 0.499980 0.653120 1.005862
Zn2   Zn    Zn3+2 0.500000 0.500020 0.346880 1.005876
Cl1   Cl    Cl    0.968211 0.629010 0.315187 -0.724886
Cl2   Cl    Cl    0.031791 0.370982 0.684803 -0.724956
N3    N     N_2   0.696741 0.140606 0.341118 -0.292166
H3    H     H_    0.703025 0.114417 0.242714 0.233120
C17   C     C_3   0.848648 0.165908 0.416487 -0.736344
H4    H     H_    0.918277 0.078936 0.433405 0.221418
H5    H     H_    0.835831 0.204991 0.516866 0.267480
H6    H     H_    0.912133 0.235005 0.357346 0.242036
N4    N     N_2   0.303260 0.859392 0.658887 -0.292149
H7    H     H_    0.296994 0.885573 0.757296 0.233134
C18   C     C_3   0.151345 0.834097 0.583531 -0.736427
H8    H     H_    0.081703 0.921062 0.566666 0.221418
H9    H     H_    0.087889 0.764972 0.642655 0.242059
H10   H     H_    0.164140 0.795058 0.483129 0.267482
N5    N     N_2   0.650745 0.881623 0.300962 -0.261896
H11   H     H_    0.766012 0.907128 0.298427 0.250439
C19   C     C_3   0.558645 0.885545 0.166520 -0.765540
H12   H     H_    0.524160 0.982457 0.132969 0.215243
H13   H     H_    0.450883 0.828227 0.167675 0.268381
H14   H     H_    0.628301 0.848693 0.090481 0.217419
N6    N     N_2   0.349251 0.118378 0.699040 -0.261899
H15   H     H_    0.233991 0.092865 0.701587 0.250444
C20   C     C_3   0.441360 0.114465 0.833474 -0.765585
H16   H     H_    0.475855 0.017555 0.867032 0.215258
H17   H     H_    0.371708 0.151321 0.909511 0.217439
H18   H     H_    0.549116 0.171786 0.832308 0.268385
N7    N     N_2   0.702579 0.656690 0.872938 -0.266553
H19   H     H_    0.679277 0.749528 0.883517 0.203607
C21   C     C_3   0.867223 0.628456 0.907135 -0.718222
H20   H     H_    0.908810 0.651868 0.014554 0.253567
H21   H     H_    0.935207 0.684558 0.838403 0.234002
H22   H     H_    0.888709 0.528201 0.893354 0.282189
N8    N     N_2   0.297503 0.343252 0.127091 -0.266527
H23   H     H_    0.320994 0.250417 0.116664 0.203635
C22   C     C_3   0.132810 0.371300 0.092816 -0.718337
H24   H     H_    0.064897 0.315191 0.161601 0.233976
H25   H     H_    0.091292 0.347737 0.985426 0.253587
H26   H     H_    0.111150 0.471553 0.106469 0.282111

loop_
_geom_bond_atom_site_label_1
_geom_bond_atom_site_label_2
_ccdc_geom_bond_type
C2    O2    A    
C6    Cl2   S    
N8    C22   S    
C1    O1    A    
C16   N8    S    
C18   H9    S    
C18   H8    S    
C14   H2    S    
C4    O6    A    
C19   H12   S    
C22   H25   S    
C13   C15   A    
C13   H1    S    
C9    C11   A    
C22   H26   S    
C20   H17   S    
N3    H3    S    
C21   H20   S    
C19   H13   S    
N2    Zn2   S    
N5    H11   S    
O7    Zn2   S    
C15   N1    A    
C15   N7    S    
N7    H19   S    
C5    C6    D    
C1    C12   S    
C10   C12   A    
C8    C11   A    
C10   N6    S    
C8    C10   A    
O8    Zn1   S    
C17   H5    S    
C5    Cl1   S    
C9    N5    S    
C1    O3    A    
C19   H14   S    
C3    O7    A    
N5    C19   S    
C2    O4    A    
C7    C12   A    
C18   H10   S    
C14   C16   A    
N7    C21   S    
C4    C6    S    
C21   H21   S    
C7    N3    S    
C16   N2    A    
N6    H15   S    
N1    Zn1   S    
O3    Zn2   S    
C3    C5    S    
C3    O5    A    
C17   H6    S    
O5    Zn1   S    
N4    C18   S    
C22   H24   S    
C4    O8    A    
C20   H18   S    
N4    H7    S    
C7    C9    A    
C8    N4    S    
O4    Zn1   S    
C21   H22   S    
C2    C11   S    
C17   H4    S    
O2    Zn2   S    
C13   N2    A    
N3    C17   S    
C20   H16   S    
O1    Zn1   S    
C14   N1    A    
N8    H23   S    
N6    C20   S    
O6    Zn2   S    
