data_mof_unit_40382.cif
_audit_creation_date              2012-12-10T19:10:25-0500
_audit_creation_method            fapswitch 2.2
_symmetry_space_group_name_H-M    P1
_symmetry_Int_Tables_number       1
_space_group_crystal_system       triclinic
_cell_length_a                    11.234854
_cell_length_b                    10.010729
_cell_length_c                    15.671879
_cell_angle_alpha                 90.253158
_cell_angle_beta                  91.411557
_cell_angle_gamma                 89.603539
_cell_volume                      1762.00882406

loop_
_atom_site_label
_atom_site_type_symbol
_atom_type_description
_atom_site_fract_x
_atom_site_fract_y
_atom_site_fract_z
_atom_type_partial_charge
C1    C     C_R   0.257625 0.500378 0.501493 0.821127
C2    C     C_3   0.630219 0.498280 0.951130 0.508306
C3    C     C_3   0.629648 0.485814 0.052015 0.570563
C4    C     C_1   0.495986 0.501331 0.824355 0.069517
C5    C     C_1   0.496272 0.499660 0.175107 0.109284
C6    C     C_1   0.497367 0.499299 0.250467 -0.095034
C7    C     C_3   0.072378 0.622683 0.567879 0.230457
C8    C     C_3   0.073834 0.357276 0.547758 0.259290
C9    C     C_3   0.929494 0.633914 0.556061 0.514295
C10   C     C_3   0.932216 0.367854 0.563216 0.430874
C11   C     C_3   0.059183 0.512822 0.409850 0.373022
C12   C     C_3   0.119656 0.499648 0.506519 -0.048557
C13   C     C_3   0.878976 0.497421 0.512529 -0.211943
C14   C     C_R   0.499340 0.499751 0.339157 0.886285
C15   C     C_3   0.922518 0.488226 0.418019 -0.499924
C16   C     C_3   0.391046 0.080800 0.454539 -0.011042
C17   C     C_3   0.387481 0.922195 0.459711 -0.008476
C18   C     C_3   0.606075 0.077063 0.456582 0.218744
C19   C     C_3   0.600017 0.919624 0.449469 0.221611
C20   C     C_3   0.501912 0.081332 0.588241 0.514400
C21   C     C_3   0.509558 0.919484 0.587954 0.511027
C22   C     C_R   0.741799 0.499258 0.506438 0.992768
C23   C     C_R   0.499937 0.500256 0.660710 0.951480
C24   C     C_3   0.438059 0.636558 0.050842 -0.141150
C25   C     C_3   0.412682 0.385217 0.047158 -0.086052
C26   C     C_3   0.425941 0.368001 0.947498 0.245129
C27   C     C_3   0.428080 0.637005 0.949675 0.251272
C28   C     C_1   0.497941 0.500877 0.749164 -0.017842
C29   C     C_3   0.496894 0.501014 0.083144 -0.045900
C30   C     C_3   0.494241 0.501344 0.916050 -0.056836
H1    H     H_    0.870124 0.556496 0.375599 0.219534
H2    H     H_    0.898570 0.389285 0.391236 0.218003
H3    H     H_    0.314044 0.114366 0.490605 0.191462
H4    H     H_    0.315463 0.901664 0.503647 0.170424
H5    H     H_    0.684028 0.094184 0.497841 0.089787
H6    H     H_    0.682076 0.881483 0.477552 0.124808
H7    H     H_    0.346067 0.635876 0.075993 0.179488
H8    H     H_    0.320866 0.422182 0.058100 0.169248
N1    N     N_3   0.499750 0.138610 0.498180 -0.171794
N2    N     N_3   0.499750 0.861390 0.498180 -0.179307
O1    O     O_R   0.314910 0.616040 0.499980 -0.636238
O2    O     O_R   0.314910 0.383960 0.499980 -0.633311
O3    O     O_R   0.500120 0.616090 0.377110 -0.585380
O4    O     O_R   0.500120 0.383910 0.377110 -0.577743
O5    O     O_R   0.685320 0.616040 0.499960 -0.579939
O6    O     O_R   0.685320 0.383960 0.499960 -0.592648
O7    O     O_R   0.500110 0.615990 0.622830 -0.532891
O8    O     O_R   0.500110 0.384010 0.622830 -0.540909
Zn1   Zn    Zn3+2 0.500150 0.654960 0.499960 1.036346
Zn2   Zn    Zn3+2 0.500150 0.345040 0.499960 1.034616
C31   C     C_3   0.293053 0.643702 0.923321 -0.819387
H9    H     H_    0.237907 0.573432 0.958494 0.233302
H10   H     H_    0.253131 0.741782 0.940601 0.251977
H11   H     H_    0.279345 0.631178 0.853334 0.251724
C32   C     C_3   0.300059 0.346111 0.901911 -0.776058
H12   H     H_    0.223790 0.362186 0.944275 0.233659
H13   H     H_    0.286964 0.407022 0.843732 0.231040
H14   H     H_    0.285144 0.242506 0.878445 0.260319
C33   C     C_3   0.887098 0.762783 0.504822 -0.769596
H15   H     H_    0.838399 0.741297 0.444430 0.247337
H16   H     H_    0.832772 0.827967 0.544823 0.284281
H17   H     H_    0.951365 0.838775 0.486855 0.190082
C34   C     C_3   0.871622 0.233139 0.539366 -0.727824
H18   H     H_    0.851155 0.220393 0.470553 0.227248
H19   H     H_    0.922520 0.145700 0.564439 0.241602
H20   H     H_    0.788450 0.223750 0.571696 0.312675
C35   C     C_3   0.075877 0.648764 0.364288 -0.850090
H21   H     H_    0.035916 0.648213 0.298605 0.261050
H22   H     H_    0.029729 0.733948 0.389773 0.237730
H23   H     H_    0.170758 0.668857 0.357529 0.226558
C36   C     C_3   0.112446 0.416619 0.339856 -0.843541
H24   H     H_    0.070254 0.318617 0.332317 0.236680
H25   H     H_    0.098688 0.452482 0.273263 0.252942
H26   H     H_    0.210107 0.407232 0.347639 0.204418
C37   C     C_3   0.362721 0.137505 0.364484 -0.724290
H27   H     H_    0.276013 0.100137 0.339467 0.189379
H28   H     H_    0.346951 0.244948 0.366818 0.251553
H29   H     H_    0.430538 0.111965 0.317181 0.299221
C38   C     C_3   0.341098 0.856464 0.376303 -0.733491
H30   H     H_    0.341188 0.748904 0.380983 0.276920
H31   H     H_    0.246641 0.885673 0.364577 0.183328
H32   H     H_    0.390005 0.884567 0.318959 0.279062
Cl1   Cl    Cl    0.650563 0.159137 0.361024 -0.507302
Cl2   Cl    Cl    0.615283 0.857229 0.342706 -0.531605
Cl3   Cl    Cl    0.618780 0.149449 0.655200 -0.454130
Cl4   Cl    Cl    0.642247 0.858168 0.640328 -0.439290
Cl5   Cl    Cl    0.376301 0.141258 0.646033 -0.592983
Cl6   Cl    Cl    0.400120 0.853282 0.658081 -0.573035
C39   C     C_3   0.410329 0.252785 0.098553 -0.799129
H33   H     H_    0.383299 0.271369 0.165257 0.234647
H34   H     H_    0.342337 0.185043 0.069821 0.238242
H35   H     H_    0.496269 0.198774 0.100618 0.301303
C40   C     C_3   0.485056 0.766910 0.093513 -0.742513
H36   H     H_    0.425758 0.851926 0.075334 0.221596
H37   H     H_    0.483540 0.760279 0.164131 0.267993
H38   H     H_    0.576123 0.792996 0.075325 0.305922
C41   C     C_3   0.494020 0.235413 0.925957 -0.640358
H39   H     H_    0.439381 0.145497 0.937708 0.212149
H40   H     H_    0.517416 0.231915 0.857516 0.295361
H41   H     H_    0.573556 0.217532 0.966380 0.280778
C42   C     C_3   0.476204 0.769455 0.909203 -0.609313
H42   H     H_    0.487658 0.758976 0.839413 0.286135
H43   H     H_    0.414277 0.855248 0.917859 0.211407
H44   H     H_    0.559306 0.807754 0.937926 0.266512
Cl7   Cl    Cl    0.727736 0.603628 0.105257 -0.469163
Cl8   Cl    Cl    0.694667 0.331692 0.090451 -0.489440
Cl9   Cl    Cl    0.715858 0.638201 0.915784 -0.414431
Cl10  Cl    Cl    0.722264 0.373006 0.900666 -0.390603
C43   C     C_3   0.131540 0.761372 0.553001 -0.809979
H45   H     H_    0.083988 0.843051 0.586797 0.252100
H46   H     H_    0.219383 0.765306 0.583475 0.305630
H47   H     H_    0.144927 0.790601 0.487094 0.226038
C44   C     C_3   0.100632 0.234870 0.486067 -0.842986
H48   H     H_    0.111216 0.137173 0.518709 0.228997
H49   H     H_    0.030739 0.214101 0.438197 0.221218
H50   H     H_    0.178740 0.245911 0.448211 0.263385
C45   C     C_3   0.112335 0.603531 0.664339 -0.748030
H51   H     H_    0.054546 0.541901 0.702164 0.295179
H52   H     H_    0.206119 0.568574 0.670447 0.197440
H53   H     H_    0.108708 0.698505 0.701637 0.280157
C46   C     C_3   0.143057 0.315319 0.632701 -0.665718
H54   H     H_    0.236212 0.347777 0.633885 0.253575
H55   H     H_    0.110474 0.349982 0.693967 0.238033
H56   H     H_    0.140001 0.206202 0.644081 0.274596
Cl11  Cl    Cl    0.859982 0.662635 0.658600 -0.435102
Cl12  Cl    Cl    0.891210 0.372591 0.674980 -0.483342

loop_
_geom_bond_atom_site_label_1
_geom_bond_atom_site_label_2
_ccdc_geom_bond_type
C32   H12   S    
C34   H19   S    
C40   H36   S    
C16   C37   S    
C7    C45   S    
C10   C34   S    
C24   C27   S    
C18   N1    S    
C26   C32   S    
C41   H39   S    
C15   H2    S    
O7    Zn1   S    
C3    Cl7   S    
C42   H42   S    
C19   H6    S    
C45   H52   S    
C5    C6    T    
C25   H8    S    
C11   C36   S    
C8    C46   S    
N2    Zn1   S    
C20   Cl5   S    
C2    Cl9   S    
C17   C38   S    
C18   C19   S    
C3    C29   S    
C9    C13   S    
C24   C29   S    
C46   H56   S    
C36   H26   S    
C4    C28   T    
C11   C15   S    
C27   C31   S    
C16   C17   S    
C39   H34   S    
C18   H5    S    
C24   C40   S    
C21   Cl6   S    
C44   H50   S    
O8    Zn2   S    
C34   H20   S    
C33   H15   S    
C40   H37   S    
C27   C30   S    
C1    C12   S    
C35   H21   S    
O1    Zn1   S    
C41   H40   S    
C11   C35   S    
C24   H7    S    
C5    C29   S    
C3    Cl8   S    
C25   C29   S    
C7    C12   S    
C33   H16   S    
C23   O7    A    
C31   H9    S    
C38   H30   S    
C43   H47   S    
C36   H25   S    
C20   N1    S    
O3    Zn1   S    
C26   C41   S    
C25   C26   S    
C27   C42   S    
C9    Cl11  S    
C7    C43   S    
C31   H10   S    
C17   N2    S    
C37   H27   S    
C16   H3    S    
C6    C14   S    
O5    Zn1   S    
C8    C12   S    
C20   Cl3   S    
N1    Zn2   S    
C18   Cl1   S    
C32   H13   S    
C23   C28   S    
C39   H35   S    
C37   H28   S    
C46   H54   S    
C8    C44   S    
O2    Zn2   S    
C1    O1    A    
C22   O6    A    
C26   C30   S    
C40   H38   S    
C13   C15   S    
C45   H53   S    
C17   H4    S    
C19   Cl2   S    
C41   H41   S    
C14   O4    A    
C44   H48   S    
C42   H43   S    
O4    Zn2   S    
C7    C9    S    
C21   Cl4   S    
C33   H17   S    
C23   O8    A    
C25   C39   S    
C10   C13   S    
C38   H32   S    
C11   C12   S    
C15   H1    S    
C42   H44   S    
O6    Zn2   S    
C38   H31   S    
C2    C30   S    
C35   H23   S    
C31   H11   S    
C43   H46   S    
C2    C3    S    
C36   H24   S    
C45   H51   S    
C21   N2    S    
C2    Cl10  S    
C13   C22   S    
C37   H29   S    
C46   H55   S    
C19   N2    S    
C16   N1    S    
C34   H18   S    
C1    O2    A    
C22   O5    A    
C20   C21   S    
C8    C10   S    
C32   H14   S    
C43   H45   S    
C35   H22   S    
C39   H33   S    
C10   Cl12  S    
C9    C33   S    
C4    C30   S    
C14   O3    A    
C44   H49   S    
