data_mof_unit_18382.cif
_audit_creation_date              2013-03-05T16:05:52-0500
_audit_creation_method            fapswitch 2.2
_symmetry_space_group_name_H-M    P1
_symmetry_Int_Tables_number       1
_space_group_crystal_system       triclinic
_cell_length_a                    14.940067
_cell_length_b                    15.505433
_cell_length_c                    15.744787
_cell_angle_alpha                 89.796832
_cell_angle_beta                  104.716354
_cell_angle_gamma                 81.579461
_cell_volume                      3486.47100946

loop_
_atom_site_label
_atom_site_type_symbol
_atom_site_description
_atom_site_fract_x
_atom_site_fract_y
_atom_site_fract_z
_atom_type_partial_charge
O1    O     O_R   0.383120 0.605620 0.475300 -0.620970
O2    O     O_R   0.531890 0.639510 0.506740 -0.619386
C1    C     C_R   0.440544 0.662440 0.484310 0.864712
O3    O     O_R   0.425580 0.483050 0.607130 -0.567508
O4    O     O_R   0.574360 0.516930 0.638570 -0.622049
C2    C     C_R   0.501104 0.500235 0.661619 0.917156
Zn1   Zn    Zn3+2 0.400660 0.477370 0.479010 0.969872
Zn2   Zn    Zn3+2 0.599340 0.522630 0.520990 0.969225
O5    O     O_R   0.468110 0.360490 0.493260 -0.616586
O6    O     O_R   0.616880 0.394380 0.524700 -0.619314
O7    O     O_R   0.425640 0.483070 0.361430 -0.632102
O8    O     O_R   0.574420 0.516950 0.392870 -0.587882
C3    C     C_R   0.558799 0.337757 0.511145 0.872094
C4    C     C_R   0.498796 0.500094 0.338305 0.877020
C5    C     C_3   0.432823 0.585036 0.934531 0.116486
C6    C     C_3   0.611727 0.515379 0.980090 0.210089
C7    C     C_3   0.606240 0.500417 0.078350 0.097865
H1    H     H_    0.472082 0.647961 0.062484 0.261286
H2    H     H_    0.638328 0.431404 0.098762 0.151980
C8    C     C_1   0.496253 0.501421 0.248823 -0.144557
C9    C     C_3   0.508988 0.509211 0.919069 0.057831
C10   C     C_3   0.441576 0.590196 0.034733 -0.449412
C11   C     C_3   0.502278 0.506100 0.083509 0.106185
C12   C     C_3   0.463254 0.426252 0.037948 -0.501254
C13   C     C_3   0.477502 0.422832 0.944396 -0.446937
C14   C     C_1   0.497357 0.503438 0.173803 0.025735
C15   C     C_1   0.505787 0.506056 0.826668 0.083143
C16   C     C_1   0.503205 0.502819 0.750846 -0.079207
H3    H     H_    0.410607 0.412317 0.897640 0.218280
H4    H     H_    0.529631 0.364966 0.940954 0.248120
H5    H     H_    0.387316 0.431098 0.034648 0.218313
H6    H     H_    0.362719 0.566069 0.904744 0.171653
H7    H     H_    0.370188 0.597483 0.045872 0.177354
H8    H     H_    0.499139 0.364548 0.075750 0.204771
C17   C     C_R   0.402948 0.755208 0.460618 -0.075376
C18   C     C_R   0.594785 0.244991 0.509983 -0.064023
C19   C     C_R   0.288325 0.874769 0.380825 -0.150392
C20   C     C_R   0.311077 0.786362 0.408100 0.083729
C21   C     C_R   0.467340 0.813241 0.483562 -0.230093
C22   C     C_R   0.447806 0.898917 0.449146 0.054598
C23   C     C_R   0.354923 0.931791 0.401396 0.005744
C24   C     C_R   0.518470 0.952990 0.463511 0.082846
C25   C     C_R   0.491937 0.043202 0.443175 0.014956
C26   C     C_R   0.399858 0.074450 0.393395 -0.286372
C27   C     C_R   0.331571 0.020249 0.372758 0.313335
C28   C     C_R   0.615011 0.919776 0.495887 -0.193044
C29   C     C_R   0.681816 0.975426 0.516497 -0.215745
C30   C     C_R   0.653994 0.065460 0.509320 0.165743
C31   C     C_R   0.558371 0.099675 0.474104 0.120624
C32   C     C_R   0.719793 0.121932 0.539118 -0.178677
C33   C     C_R   0.690313 0.211684 0.538926 -0.175345
C34   C     C_R   0.530360 0.189082 0.477368 -0.246241
H9    H     H_    0.457127 0.215943 0.458822 0.165118
H10   H     H_    0.741507 0.254413 0.563399 0.167727
H11   H     H_    0.754948 0.947887 0.541562 0.156285
H12   H     H_    0.218952 0.897679 0.339682 0.190262
H13   H     H_    0.533906 0.790132 0.529130 0.157891
H14   H     H_    0.379210 0.141188 0.368214 0.175567
H15   H     H_    0.641166 0.850763 0.503463 0.152286
H16   H     H_    0.793430 0.096498 0.564576 0.153373
N1    N     N_R   0.731690 0.552720 0.548990 -0.103188
N2    N     N_R   0.268300 0.447240 0.450950 -0.118209
C35   C     C_R   0.846495 0.626145 0.640313 -0.269890
C36   C     C_R   0.754392 0.611866 0.610933 0.022436
C37   C     C_R   0.795384 0.507246 0.512232 -0.005114
C38   C     C_R   0.890355 0.518381 0.539394 0.000354
C39   C     C_R   0.915136 0.578654 0.605569 0.108814
C40   C     C_R   0.960693 0.472244 0.503510 0.042058
C41   C     C_R   0.054742 0.489440 0.532957 -0.040767
C42   C     C_R   0.079127 0.539696 0.608831 0.265347
C43   C     C_R   0.008594 0.587404 0.640323 -0.249483
C44   C     C_R   0.940344 0.409104 0.439573 -0.164891
C45   C     C_R   0.008361 0.367933 0.401640 -0.145606
C46   C     C_R   0.097053 0.392089 0.421712 0.149667
C47   C     C_R   0.120180 0.455497 0.485023 0.025230
C48   C     C_R   0.162426 0.354858 0.377458 -0.263864
C49   C     C_R   0.249101 0.382623 0.394458 0.008822
C50   C     C_R   0.206219 0.485835 0.493542 0.000159
H17   H     H_    0.027425 0.627755 0.696273 0.192291
H18   H     H_    0.225098 0.540612 0.532331 0.163677
H19   H     H_    0.301327 0.353076 0.362408 0.145956
H20   H     H_    0.990126 0.319418 0.353400 0.171897
H21   H     H_    0.864293 0.672100 0.691337 0.151156
H22   H     H_    0.701151 0.645810 0.639394 0.130194
H23   H     H_    0.769631 0.462038 0.463771 0.132373
H24   H     H_    0.872595 0.388907 0.417748 0.146973
H25   H     H_    0.146645 0.304934 0.330290 0.194085
N3    N     N_R   0.238099 0.057536 0.325915 0.197728
O9    O     O_R   0.225158 0.111519 0.258920 -0.383400
O10   O     O_R   0.168468 0.051797 0.360193 -0.390834
C51   C     C_3   0.236198 0.729081 0.375893 -0.395209
C52   C     C_3   0.251374 0.680269 0.294844 -0.336376
C53   C     C_3   0.178153 0.620418 0.263593 -0.799932
H26   H     H_    0.181514 0.571558 0.316365 0.261104
H27   H     H_    0.106863 0.659117 0.244464 0.265351
H28   H     H_    0.191652 0.585405 0.205638 0.250633
H29   H     H_    0.246465 0.728342 0.240660 0.227324
H30   H     H_    0.322065 0.640762 0.309593 0.238283
H31   H     H_    0.232099 0.684259 0.429302 0.226032
H32   H     H_    0.165857 0.769875 0.356920 0.201806
N4    N     N_R   0.432107 0.669826 0.891176 0.205051
O11   O     O_R   0.404932 0.678233 0.805833 -0.366162
O12   O     O_R   0.437199 0.740638 0.935230 -0.373039
N5    N     N_R   0.684266 0.445654 0.963848 0.198495
O13   O     O_R   0.769045 0.437175 0.014606 -0.348180
O14   O     O_R   0.668098 0.395169 0.897543 -0.408351
N6    N     N_R   0.173687 0.533521 0.662244 0.187011
O15   O     O_R   0.225846 0.457557 0.681323 -0.383765
O16   O     O_R   0.202897 0.601161 0.702736 -0.372388
C54   C     C_3   0.645867 0.604628 0.967411 -0.342876
C55   C     C_3   0.658591 0.623773 0.875355 -0.358796
C56   C     C_3   0.714481 0.698802 0.876018 -0.809459
H33   H     H_    0.678767 0.758720 0.899011 0.285840
H34   H     H_    0.786180 0.681416 0.919773 0.270504
H35   H     H_    0.720271 0.712392 0.808460 0.238121
H36   H     H_    0.695817 0.565275 0.851536 0.263527
H37   H     H_    0.589597 0.643155 0.828072 0.255018
H38   H     H_    0.599457 0.659961 0.984996 0.250242
H39   H     H_    0.715406 0.604079 0.014608 0.259794
N7    N     N_R   0.661014 0.554434 0.142493 0.202909
O17   O     O_R   0.738108 0.518103 0.197505 -0.356484
O18   O     O_R   0.630974 0.636460 0.149868 -0.406781

loop_
_geom_bond_atom_site_label_1
_geom_bond_atom_site_label_2
_geom_bond_distance
_ccdc_geom_bond_type
C38   C40   1.421127 A    
N4    O11   1.301338 A    
C28   H15   1.079326 S    
C45   C46   1.389019 A    
N2    C49   1.355758 A    
C55   C56   1.526725 S    
C54   H38   1.103862 S    
N5    O14   1.301537 A    
C6    C54   1.572114 S    
C5    H6    1.115811 S    
N7    O17   1.301464 A    
Zn1   O7    1.983385 S    
C53   H26   1.109078 S    
C46   C48   1.398609 A    
C42   N6    1.438201 S    
O4    C2    1.296391 A    
O7    C4    1.297219 A    
C50   H18   1.077152 S    
C21   H13   1.078631 S    
C24   C28   1.418591 A    
C11   C14   1.442849 S    
O5    C3    1.305715 A    
C54   C55   1.542237 S    
C36   H22   1.081975 S    
C7    N7    1.475794 S    
C19   H12   1.081413 S    
C6    N5    1.486040 S    
C5    C10   1.552947 S    
C2    C16   1.398064 S    
C26   H14   1.079185 S    
C40   C41   1.428273 A    
N6    O15   1.301746 A    
C55   H36   1.110538 S    
C49   H19   1.081818 S    
C51   H32   1.112740 S    
C39   C43   1.391124 A    
C18   C34   1.392133 A    
C40   C44   1.415257 A    
Zn2   N1    2.037296 S    
C22   C24   1.417017 A    
C38   C39   1.417148 A    
C9    C15   1.444666 S    
C53   H27   1.110736 S    
H1    C10   1.105440 S    
N6    O16   1.301642 A    
O3    Zn1   1.960828 S    
C56   H34   1.110799 S    
N5    O13   1.302481 A    
N7    O18   1.301088 A    
C52   H29   1.111969 S    
C13   H3    1.114516 S    
C35   C39   1.399946 A    
C46   C47   1.418140 A    
C52   H30   1.108820 S    
C4    C8    1.399709 S    
C27   N3    1.437215 S    
C12   C13   1.540869 S    
C3    C18   1.461846 S    
O3    C2    1.295386 A    
C51   C52   1.535002 S    
C25   C31   1.414569 A    
C20   C51   1.517709 S    
C5    N4    1.476597 S    
C43   H17   1.084514 S    
C35   H21   1.083919 S    
O1    C1    1.301073 A    
N1    C36   1.355232 A    
C17   C21   1.394623 A    
C25   C26   1.412729 A    
Zn1   N2    2.037640 S    
C19   C20   1.401502 A    
C29   C30   1.392637 A    
C1    C17   1.475377 S    
Zn2   O8    1.960828 S    
C31   C34   1.393239 A    
C17   C20   1.423856 A    
C32   C33   1.396595 A    
C7    C11   1.565522 S    
C48   C49   1.386302 A    
C48   H25   1.083935 S    
C42   C43   1.394005 A    
C18   C33   1.401181 A    
Zn2   O6    1.966032 S    
C30   C31   1.415383 A    
O8    C4    1.295304 A    
C53   H28   1.110391 S    
C24   C25   1.409325 A    
C45   H20   1.084405 S    
C21   C22   1.394467 A    
C34   H9    1.076642 S    
C29   H11   1.083952 S    
C13   H4    1.109792 S    
Zn1   O5    1.922899 S    
C10   H7    1.113965 S    
C9    C13   1.565306 S    
C28   C29   1.391282 A    
C22   C23   1.418024 A    
O1    Zn1   1.966030 S    
N2    C50   1.350686 A    
O2    Zn2   1.922899 S    
C26   C27   1.391869 A    
N3    O10   1.301316 A    
C44   C45   1.384885 A    
O6    C3    1.303715 A    
C54   H39   1.112093 S    
O4    Zn2   1.983388 S    
C44   H24   1.075899 S    
C6    C9    1.607046 S    
C37   H23   1.074788 S    
C55   H37   1.106726 S    
C33   H10   1.082995 S    
C32   H16   1.083636 S    
O2    C1    1.313660 A    
C12   H5    1.113785 S    
C6    C7    1.587905 S    
C8    C14   1.185839 T    
C30   C32   1.404960 A    
C52   C53   1.525468 S    
C7    H2    1.116783 S    
C41   C47   1.424566 A    
C56   H33   1.110957 S    
C19   C23   1.404473 A    
C41   C42   1.426779 A    
C47   C50   1.407668 A    
C12   H8    1.113835 S    
C11   C12   1.546790 S    
C35   C36   1.386720 A    
N1    C37   1.350491 A    
C5    C9    1.577132 S    
N3    O9    1.301288 A    
N4    O12   1.302097 A    
C37   C38   1.410635 A    
C15   C16   1.186070 T    
C23   C27   1.407762 A    
C10   C11   1.550871 S    
C51   H31   1.108334 S    
C56   H35   1.110774 S    
