data_mof_unit_7809.cif
_audit_creation_date              2012-12-10T17:39:18-0500
_audit_creation_method            fapswitch 2.2
_symmetry_space_group_name_H-M    P1
_symmetry_Int_Tables_number       1
_space_group_crystal_system       triclinic
_cell_length_a                    12.315291
_cell_length_b                    13.18954
_cell_length_c                    27.81709
_cell_angle_alpha                 77.603882
_cell_angle_beta                  101.3456
_cell_angle_gamma                 116.588823
_cell_volume                      3920.06676582

loop_
_atom_site_label
_atom_site_type_symbol
_atom_type_description
_atom_site_fract_x
_atom_site_fract_y
_atom_site_fract_z
_atom_type_partial_charge
C1    C     C_R   0.854857 0.286548 0.504541 0.765980
C2    C     C_R   0.884430 0.474991 0.712138 -0.083403
C3    C     C_R   0.989790 0.496103 0.745955 0.270330
C4    C     C_R   0.986508 0.487730 0.898217 -0.097618
C5    C     C_R   0.920918 0.385553 0.876709 -0.121228
C6    C     C_R   0.858753 0.282201 0.907518 0.421548
C7    C     C_R   0.049617 0.591576 0.868183 -0.004360
C8    C     C_R   0.000073 0.501646 0.645327 -0.122345
C9    C     C_R   0.001930 0.499943 0.354822 -0.115121
C10   C     C_R   0.918595 0.384582 0.030375 0.025700
C11   C     C_R   0.071263 0.585500 0.023042 0.058913
C12   C     C_R   0.000783 0.501430 0.592374 0.837180
C13   C     C_R   0.996453 0.484345 0.052236 0.074043
C14   C     C_R   0.838585 0.289182 0.059943 -0.293512
C15   C     C_R   0.839148 0.288347 0.110513 0.457532
C16   C     C_R   0.920959 0.385683 0.132893 -0.072700
C17   C     C_R   0.999413 0.483435 0.103685 -0.121351
C18   C     C_R   0.080921 0.581005 0.125948 -0.004184
C19   C     C_R   0.082730 0.580106 0.176520 0.549875
C20   C     C_R   0.925401 0.389649 0.183694 0.590442
C21   C     C_R   0.043154 0.420816 0.292817 -0.086412
C22   C     C_R   0.042509 0.425865 0.342293 -0.263466
C23   C     C_R   0.145069 0.713357 0.492724 0.831995
C24   C     C_R   0.963471 0.570773 0.316607 0.354079
C25   C     C_R   0.964136 0.564768 0.267200 -0.116588
C26   C     C_R   0.003685 0.490061 0.255115 0.268869
C27   C     C_R   0.921697 0.383664 0.979566 0.002453
C28   C     C_R   0.989712 0.486646 0.949758 0.073689
C29   C     C_R   0.061388 0.588794 0.971065 0.054925
C30   C     C_R   0.860162 0.282400 0.957666 -0.235804
C31   C     C_R   0.114080 0.692686 0.889058 -0.115139
C32   C     C_R   0.154647 0.680058 0.047045 -0.195779
C33   C     C_R   0.159147 0.677647 0.097441 -0.121987
C34   C     C_R   0.001245 0.501407 0.407560 0.847221
C35   C     C_R   0.119979 0.691569 0.939412 -0.192127
C36   C     C_R   0.276379 0.019746 0.432525 -0.164109
C37   C     C_R   0.227840 0.834308 0.482421 -0.057154
C38   C     C_R   0.815042 0.086273 0.539143 -0.177780
C39   C     C_R   0.735772 0.971984 0.550068 -0.122940
C40   C     C_R   0.612460 0.934010 0.532362 -0.110952
C41   C     C_R   0.566264 0.009594 0.501199 0.093473
C42   C     C_R   0.650213 0.123234 0.485704 0.072873
C43   C     C_R   0.439801 0.975907 0.484466 0.093229
C44   C     C_R   0.400854 0.052070 0.449385 0.152535
C45   C     C_R   0.922487 0.391240 0.825384 0.596183
C46   C     C_R   0.486664 0.158443 0.430515 -0.210996
C47   C     C_R   0.609584 0.192874 0.447765 -0.174630
C48   C     C_R   0.350435 0.868747 0.501666 -0.171371
C49   C     C_R   0.190175 0.910880 0.448713 -0.159971
C50   C     C_R   0.773042 0.163569 0.508217 -0.100504
C51   C     C_R   0.356695 0.346490 0.586043 0.319272
C52   C     C_R   0.763722 0.649505 0.434885 0.037377
C53   C     C_R   0.676447 0.692945 0.424545 -0.243286
C54   C     C_R   0.575774 0.644874 0.451288 0.352454
C55   C     C_R   0.557230 0.544976 0.487103 -0.067180
C56   C     C_R   0.047005 0.592553 0.817584 0.553899
C57   C     C_R   0.654362 0.508732 0.498316 0.238719
C58   C     C_R   0.451721 0.482943 0.514200 -0.043821
C59   C     C_R   0.454998 0.400958 0.556492 0.044127
C60   C     C_R   0.552917 0.370620 0.567037 -0.273304
C61   C     C_R   0.648195 0.421465 0.538168 -0.153492
C62   C     C_R   0.340000 0.493629 0.499938 0.039436
C63   C     C_R   0.252880 0.366479 0.570615 0.105731
C64   C     C_R   0.100496 0.520891 0.729520 -0.118131
C65   C     C_R   0.106906 0.524419 0.679616 0.351811
C66   C     C_R   0.889527 0.477891 0.662237 -0.270979
Cu1   Cu    Cu3+1 0.098270 0.475420 0.511360 0.990148
Cu2   Cu    Cu3+1 0.901730 0.524580 0.488640 0.959703
H1    H     H_    0.806348 0.460241 0.636943 0.172349
H2    H     H_    0.182100 0.538091 0.755789 0.182054
H3    H     H_    0.161147 0.773796 0.866501 0.198354
H4    H     H_    0.220229 0.756755 0.028106 0.147689
H5    H     H_    0.224308 0.752707 0.113949 0.192933
H6    H     H_    0.934755 0.619082 0.237907 0.180534
H7    H     H_    0.168923 0.773726 0.952195 0.150667
H8    H     H_    0.095325 0.884988 0.433309 0.167855
H9    H     H_    0.458709 0.215404 0.402161 0.155824
H10   H     H_    0.246234 0.077460 0.405679 0.145869
H11   H     H_    0.798578 0.456362 0.724566 0.163847
H12   H     H_    0.373505 0.808898 0.529618 0.166312
H13   H     H_    0.908932 0.114790 0.556122 0.165168
H14   H     H_    0.556672 0.844375 0.542929 0.164070
H15   H     H_    0.769366 0.912975 0.573783 0.160390
H16   H     H_    0.672244 0.273714 0.429887 0.180654
H17   H     H_    0.177290 0.325942 0.592771 0.163527
H18   H     H_    0.555503 0.303500 0.596799 0.168929
H19   H     H_    0.323011 0.541404 0.465230 0.204372
H20   H     H_    0.843865 0.691466 0.415439 0.199388
H21   H     H_    0.691065 0.768762 0.397318 0.203591
H22   H     H_    0.717214 0.390957 0.549491 0.202118
H23   H     H_    0.072637 0.370805 0.370849 0.173691
H24   H     H_    0.074563 0.363293 0.283739 0.160414
H25   H     H_    0.770972 0.214653 0.044269 0.142830
H26   H     H_    0.814747 0.199904 0.979089 0.179293
N1    N     N_R   0.985217 0.493364 0.797412 -0.469400
N2    N     N_R   0.004864 0.485955 0.204081 -0.474577
N3    N     N_R   0.246290 0.438210 0.528570 -0.239536
N4    N     N_R   0.754320 0.561170 0.471730 -0.214014
O1    O     O_R   0.972510 0.318140 0.514280 -0.587147
O2    O     O_2   0.850162 0.299036 0.212528 -0.447971
O3    O     O_2   0.105872 0.692076 0.788581 -0.513248
O4    O     O_2   0.161766 0.672795 0.198115 -0.512254
O5    O     O_R   0.806530 0.359640 0.495100 -0.610561
O6    O     O_R   0.082990 0.479270 0.579320 -0.534950
O7    O     O_R   0.917010 0.520770 0.560140 -0.605976
O8    O     O_R   0.193470 0.640360 0.504900 -0.549916
O9    O     O_R   0.027490 0.681860 0.485720 -0.590169
O10   O     O_R   0.082990 0.479230 0.439860 -0.591698
O11   O     O_R   0.917010 0.520730 0.420680 -0.546960
O12   O     O_2   0.863592 0.296201 0.803328 -0.448279
Cl1   Cl    Cl    0.920738 0.673163 0.328281 -0.623712
O13   O     O_3   0.358165 0.274303 0.629895 -0.706304
H27   H     H_    0.442661 0.302174 0.646845 0.337070
Cl2   Cl    Cl    0.776731 0.147218 0.886820 -0.503148
Cl3   Cl    Cl    0.495493 0.730393 0.444259 -0.655898
O14   O     O_3   0.759624 0.193076 0.138286 -0.650347
H28   H     H_    0.709513 0.132343 0.117210 0.326769
Cl4   Cl    Cl    0.252110 0.563108 0.662199 -0.582518

loop_
_geom_bond_atom_site_label_1
_geom_bond_atom_site_label_2
_ccdc_geom_bond_type
C10   C27   A    
C58   C62   A    
C56   N1    A    
C21   C26   A    
C8    C66   A    
C51   O13   S    
C41   C42   A    
Cu2   O5    S    
C1    O1    A    
C32   H4    S    
C53   C54   A    
C52   C53   A    
C35   H7    S    
C28   C29   A    
C56   O3    S    
C12   O6    A    
C5    C6    A    
C19   O4    S    
C9    C22   A    
C66   H1    S    
C15   C16   A    
O14   H28   S    
C25   H6    S    
C6    Cl2   S    
C2    H11   S    
C54   C55   A    
C16   C17   A    
C65   Cl4   S    
Cu2   O9    S    
C64   H2    S    
C43   C48   A    
C1    O5    A    
C14   H25   S    
Cu1   O1    S    
C42   C47   A    
C31   H3    S    
C20   N2    A    
C59   C60   A    
C21   C22   A    
C63   H17   S    
C27   C30   A    
C41   C43   A    
C24   Cl1   S    
C7    C56   A    
C4    C7    A    
O13   H27   S    
C4    C28   A    
C44   C46   A    
Cu1   O6    S    
C26   N2    S    
C38   C39   A    
C7    C31   A    
Cu1   Cu2   S    
C40   H14   S    
C52   H20   S    
C51   C63   A    
C24   C25   A    
C10   C14   A    
C39   C40   A    
C60   H18   S    
C45   O12   S    
C18   C19   A    
C58   C59   A    
C23   C37   S    
C23   O8    A    
C5    C45   A    
C60   C61   A    
C43   C44   A    
C36   C49   A    
C62   N3    A    
C37   C49   A    
C20   O2    S    
C8    C12   S    
C23   O9    A    
C54   Cl3   S    
C17   C18   A    
C49   H8    S    
C9    C24   A    
C16   C20   A    
C47   H16   S    
C37   C48   A    
C42   C50   A    
C33   H5    S    
C40   C41   A    
C6    C30   A    
C11   C32   A    
C55   C57   A    
C38   H13   S    
C53   H21   S    
C9    C34   S    
C31   C35   A    
C36   C44   A    
C51   C59   A    
Cu2   O7    S    
C45   N1    A    
C61   H22   S    
C1    C50   S    
C46   C47   A    
C15   O14   S    
C4    C5    A    
C2    C66   A    
C10   C13   A    
C22   H23   S    
C46   H9    S    
Cu1   O8    S    
C57   C61   A    
C38   C50   A    
C62   H19   S    
C29   C35   A    
C13   C17   A    
C34   O10   A    
C32   C33   A    
C48   H12   S    
C2    C3    A    
C25   C26   A    
C39   H15   S    
C63   N3    A    
C36   H10   S    
C64   C65   A    
C11   C13   A    
C12   O7    A    
C57   N4    A    
C52   N4    A    
Cu2   O11   S    
C3    C64   A    
Cu1   O10   S    
C18   C33   A    
Cu2   N4    S    
Cu1   N3    S    
C8    C65   A    
C11   C29   A    
C30   H26   S    
C55   C58   A    
C27   C28   A    
C34   O11   A    
C14   C15   A    
C3    N1    S    
C19   N2    A    
C21   H24   S    
