data_mof_unit_17485.cif
_audit_creation_date              2012-12-10T18:43:48-0500
_audit_creation_method            fapswitch 2.2
_symmetry_space_group_name_H-M    P1
_symmetry_Int_Tables_number       1
_space_group_crystal_system       triclinic
_cell_length_a                    10.830941
_cell_length_b                    10.609272
_cell_length_c                    9.928484
_cell_angle_alpha                 90.32131
_cell_angle_beta                  105.663389
_cell_angle_gamma                 90.784749
_cell_volume                      1098.34517681

loop_
_atom_site_label
_atom_site_type_symbol
_atom_type_description
_atom_site_fract_x
_atom_site_fract_y
_atom_site_fract_z
_atom_type_partial_charge
C1    C     C_R   0.500061 0.260684 0.499710 1.000407
C2    C     C_2   0.879657 0.505753 0.599730 -0.122174
C3    C     C_2   0.059874 0.531259 0.494780 0.374012
C4    C     C_2   0.940091 0.468709 0.505150 0.374007
C5    C     C_R   0.386994 0.063515 0.431977 0.005363
C6    C     C_R   0.613009 0.936485 0.567999 0.005303
C7    C     C_R   0.386715 0.932983 0.431880 0.333897
C8    C     C_R   0.613292 0.067017 0.568102 0.333927
C9    C     C_R   0.499610 0.871763 0.500519 -0.156730
C10   C     C_R   0.500395 0.128236 0.499478 -0.156744
C11   C     C_R   0.499941 0.739315 0.500290 1.000430
C12   C     C_R   0.258843 0.502451 0.439522 0.947200
C13   C     C_R   0.741157 0.497537 0.560476 0.947212
C14   C     C_R   0.581124 0.578351 0.095772 0.349159
C15   C     C_R   0.418876 0.421649 0.904228 0.349143
C16   C     C_R   0.581478 0.577677 0.952470 0.328302
C17   C     C_R   0.418524 0.422321 0.047531 0.328307
C18   C     C_2   0.120345 0.494188 0.400243 -0.122194
Cl1   Cl    Cl    0.876408 0.333666 0.399683 -0.499513
Cl2   Cl    Cl    0.123505 0.666332 0.600218 -0.499437
Cl3   Cl    Cl    0.685529 0.682761 0.212904 -0.446296
Cl4   Cl    Cl    0.314468 0.317242 0.787095 -0.446347
Cl5   Cl    Cl    0.689032 0.676933 0.897123 -0.506068
Cl6   Cl    Cl    0.310980 0.323054 0.102882 -0.506203
Cl7   Cl    Cl    0.245275 0.847113 0.347804 -0.524091
Cl8   Cl    Cl    0.754746 0.152890 0.652119 -0.524158
H1    H     H_    0.907084 0.652225 0.736514 0.246630
H2    H     H_    0.927546 0.508613 0.811053 0.252949
H3    H     H_    0.092851 0.347472 0.263793 0.246551
H4    H     H_    0.072733 0.490949 0.188924 0.252999
H5    H     H_    0.201772 0.106445 0.415609 0.260388
H6    H     H_    0.241713 0.104403 0.261813 0.280950
H7    H     H_    0.798139 0.893517 0.584181 0.260404
H8    H     H_    0.758398 0.895634 0.738046 0.280924
N1    N     N_R   0.499970 0.499970 0.857200 -0.190055
N2    N     N_R   0.500030 0.500030 0.142800 -0.190043
N3    N     N_3   0.945916 0.563236 0.731107 -0.365281
N4    N     N_3   0.054145 0.436565 0.268920 -0.365265
N5    N     N_3   0.272938 0.131602 0.367089 -0.406249
N6    N     N_3   0.727056 0.868404 0.632800 -0.406213
O1    O     O_R   0.499990 0.316750 0.614620 -0.570666
O2    O     O_R   0.500010 0.683250 0.385380 -0.570657
O3    O     O_R   0.499990 0.316780 0.385290 -0.562822
O4    O     O_R   0.500010 0.683220 0.614710 -0.562836
O5    O     O_R   0.317810 0.500000 0.571850 -0.550295
O6    O     O_R   0.682190 0.500000 0.428150 -0.550278
O7    O     O_R   0.317810 0.500030 0.342520 -0.588545
O8    O     O_R   0.682190 0.499970 0.657480 -0.588541
Zn1   Zn    Zn3+2 0.500000 0.499980 0.653120 1.109612
Zn2   Zn    Zn3+2 0.500000 0.500020 0.346880 1.109624

loop_
_geom_bond_atom_site_label_1
_geom_bond_atom_site_label_2
_ccdc_geom_bond_type
H3    N4    S    
N1    Zn1   S    
C13   O8    A    
C2    C4    D    
C5    C7    A    
O3    Zn2   S    
C17   N2    A    
O7    Zn2   S    
C8    Cl8   S    
O6    Zn2   S    
C7    Cl7   S    
O5    Zn1   S    
C6    C9    A    
C18   N4    S    
C3    Cl2   S    
C1    O1    A    
C9    C11   S    
C2    N3    S    
H2    N3    S    
O2    Zn2   S    
C12   O7    A    
H8    N6    S    
C14   Cl3   S    
O1    Zn1   S    
O8    Zn1   S    
H5    N5    S    
C16   Cl5   S    
C6    N6    S    
C5    N5    S    
C16   N1    A    
C14   N2    A    
C13   O6    A    
C8    C10   A    
C14   C16   A    
C15   N1    A    
H7    N6    S    
C5    C10   A    
C3    C4    S    
C17   Cl6   S    
C11   O4    A    
N2    Zn2   S    
H4    N4    S    
C3    C18   D    
C7    C9    A    
H6    N5    S    
C12   C18   S    
C15   C17   A    
C2    C13   S    
C6    C8    A    
C11   O2    A    
C4    Cl1   S    
C1    O3    A    
C15   Cl4   S    
C1    C10   S    
H1    N3    S    
C12   O5    A    
O4    Zn1   S    
