data_mof_unit_19518.cif
_audit_creation_date              2012-12-10T17:55:28-0500
_audit_creation_method            fapswitch 2.2
_symmetry_space_group_name_H-M    P1
_symmetry_Int_Tables_number       1
_space_group_crystal_system       triclinic
_cell_length_a                    10.93213
_cell_length_b                    9.584112
_cell_length_c                    10.980004
_cell_angle_alpha                 89.999886
_cell_angle_beta                  92.958173
_cell_angle_gamma                 90.000114
_cell_volume                      1148.89429221

loop_
_atom_site_label
_atom_site_type_symbol
_atom_type_description
_atom_site_fract_x
_atom_site_fract_y
_atom_site_fract_z
_atom_type_partial_charge
C1    C     C_R   0.262059 0.500145 0.495908 0.910221
C2    C     C_R   0.737941 0.500145 0.504093 0.910221
C3    C     C_R   0.496601 0.500799 0.265644 0.684311
C4    C     C_R   0.503400 0.500799 0.734355 0.684311
C5    C     C_2   0.485856 0.401368 0.934622 -0.262407
C6    C     C_2   0.514141 0.401368 0.065378 -0.262407
C7    C     C_2   0.521541 0.506231 0.865582 0.568930
C8    C     C_2   0.478460 0.506231 0.134417 0.568929
C9    C     C_R   0.061854 0.375104 0.487329 0.274809
C10   C     C_R   0.938145 0.375106 0.512686 0.274810
C11   C     C_R   0.872153 0.501024 0.507062 -0.410597
C12   C     C_R   0.127847 0.501023 0.492943 -0.410593
C13   C     C_R   0.936557 0.627838 0.500764 0.502441
C14   C     C_R   0.063443 0.627837 0.499237 0.502438
C15   C     C_R   0.428569 0.073113 0.415531 0.346057
C16   C     C_R   0.571430 0.073112 0.584469 0.346073
C17   C     C_R   0.421712 0.924335 0.423710 0.504061
C18   C     C_R   0.578288 0.924335 0.576289 0.504079
Cu1   Cu    Cu3+1 0.500000 0.640660 0.500000 1.138643
Cu2   Cu    Cu3+1 0.500000 0.359340 0.500000 1.043698
H1    H     H_    0.438430 0.312406 0.894561 0.112647
H2    H     H_    0.561564 0.312404 0.105439 0.112649
N1    N     N_R   0.500000 0.852070 0.500000 -0.285018
N2    N     N_R   0.500000 0.147940 0.500000 -0.267779
O1    O     O_R   0.319640 0.618740 0.499990 -0.483293
O2    O     O_R   0.680360 0.618740 0.500010 -0.483294
O3    O     O_R   0.319620 0.381170 0.499990 -0.523249
O4    O     O_R   0.680380 0.381170 0.500010 -0.523251
O5    O     O_R   0.500000 0.618750 0.321940 -0.512271
O6    O     O_R   0.500000 0.618750 0.678060 -0.512275
O7    O     O_R   0.499970 0.381180 0.321940 -0.598349
O8    O     O_R   0.500030 0.381180 0.678060 -0.598349
F1    F     F_    0.581942 0.618342 0.915845 -0.603927
F2    F     F_    0.418063 0.618345 0.084154 -0.603927
O9    O     O_3   0.117359 0.249205 0.463119 -0.524065
C19   C     C_3   0.075947 0.203623 0.345175 0.096987
H3    H     H_    0.140504 0.242138 0.278590 0.179114
H4    H     H_    0.983101 0.241971 0.313856 0.123816
C20   C     C_3   0.070938 0.045096 0.342193 -0.557542
H5    H     H_    0.990748 0.007759 0.390895 0.263688
H6    H     H_    0.061534 0.007905 0.246433 0.183862
H7    H     H_    0.155242 0.000821 0.386883 0.320752
O10   O     O_3   0.882641 0.249210 0.536912 -0.524050
C21   C     C_3   0.924055 0.203645 0.654861 0.097035
H8    H     H_    0.859491 0.242152 0.721441 0.179104
H9    H     H_    0.016895 0.242013 0.686180 0.123802
C22   C     C_3   0.929088 0.045118 0.657855 -0.557613
H10   H     H_    0.009263 0.007791 0.609126 0.263699
H11   H     H_    0.938533 0.007940 0.753617 0.183832
H12   H     H_    0.844774 0.000824 0.613200 0.320758
F3    F     F_    0.877934 0.752754 0.498489 -0.610267
F4    F     F_    0.122067 0.752753 0.501508 -0.610280
O11   O     O_3   0.357941 0.143016 0.326782 -0.529973
C23   C     C_3   0.392522 0.100994 0.209439 0.111573
H13   H     H_    0.387759 0.986833 0.194335 0.217081
H14   H     H_    0.488246 0.132734 0.195941 0.125956
C24   C     C_3   0.306806 0.165498 0.111441 -0.810976
H15   H     H_    0.297450 0.279365 0.126362 0.248855
H16   H     H_    0.343006 0.146316 0.020400 0.210351
H17   H     H_    0.215053 0.116264 0.112756 0.237346
O12   O     O_3   0.642054 0.143014 0.673222 -0.529968
C25   C     C_3   0.607464 0.100990 0.790562 0.111565
H18   H     H_    0.612218 0.986828 0.805664 0.217074
H19   H     H_    0.511741 0.132738 0.804056 0.125957
C26   C     C_3   0.693180 0.165484 0.888566 -0.810962
H20   H     H_    0.702541 0.279351 0.873651 0.248848
H21   H     H_    0.656975 0.146297 0.979605 0.210349
H22   H     H_    0.784931 0.116244 0.887252 0.237358
F5    F     F_    0.337439 0.851835 0.354434 -0.610705
F6    F     F_    0.662560 0.851835 0.645566 -0.610702

loop_
_geom_bond_atom_site_label_1
_geom_bond_atom_site_label_2
_ccdc_geom_bond_type
C2    O2    A    
C18   F6    S    
Cu1   N1    S    
O10   C21   S    
C15   C17   A    
C25   H18   S    
Cu2   O3    S    
C20   H7    S    
C11   C13   A    
C9    C10   A    
C23   H13   S    
O9    C19   S    
C21   C22   S    
C3    O7    A    
C26   H22   S    
C1    O3    A    
C19   H4    S    
C4    O6    A    
C22   H11   S    
C4    O8    A    
C13   C14   A    
C1    O1    A    
C7    F1    S    
C3    O5    A    
C24   H15   S    
C17   N1    A    
C1    C12   S    
C4    C7    S    
C6    C8    D    
C5    C6    S    
C15   O11   S    
C16   C18   A    
C15   N2    A    
C21   H9    S    
C3    C8    S    
C22   H12   S    
O12   C25   S    
Cu1   O1    S    
C9    C12   A    
C23   H14   S    
C24   H16   S    
C2    O4    A    
C10   C11   A    
C2    C11   S    
C9    O9    S    
C18   N1    A    
Cu1   O5    S    
C22   H10   S    
Cu2   N2    S    
C5    H1    S    
C21   H8    S    
C20   H6    S    
C16   N2    A    
C26   H20   S    
Cu2   O8    S    
C8    F2    S    
C20   H5    S    
C5    C7    D    
Cu1   O2    S    
C17   F5    S    
C19   H3    S    
C24   H17   S    
C25   H19   S    
Cu2   O4    S    
C25   C26   S    
C16   O12   S    
C10   O10   S    
C13   F3    S    
Cu1   O6    S    
Cu2   O7    S    
C19   C20   S    
C14   F4    S    
Cu1   Cu2   S    
O11   C23   S    
C12   C14   A    
C26   H21   S    
C23   C24   S    
C6    H2    S    
