data_mof_unit_51163.cif
_audit_creation_date              2012-12-10T19:15:19-0500
_audit_creation_method            fapswitch 2.2
_symmetry_space_group_name_H-M    P1
_symmetry_Int_Tables_number       1
_space_group_crystal_system       triclinic
_cell_length_a                    10.650118
_cell_length_b                    9.937406
_cell_length_c                    23.285954
_cell_angle_alpha                 89.693704
_cell_angle_beta                  89.934113
_cell_angle_gamma                 88.164361
_cell_volume                      2463.15731518

loop_
_atom_site_label
_atom_site_type_symbol
_atom_type_description
_atom_site_fract_x
_atom_site_fract_y
_atom_site_fract_z
_atom_type_partial_charge
C1    C     C_R   0.258621 0.501516 0.500012 0.808950
C2    C     C_R   0.316113 0.385088 0.971716 -0.178901
C3    C     C_R   0.313938 0.389630 0.031288 -0.172295
C4    C     C_R   0.399543 0.468005 0.060874 0.010773
C5    C     C_R   0.487421 0.543517 0.030215 -0.026574
C6    C     C_R   0.574117 0.621306 0.059882 -0.087524
C7    C     C_R   0.660445 0.697090 0.029144 -0.250852
C8    C     C_R   0.664241 0.693429 0.969209 0.509930
C9    C     C_R   0.400946 0.471126 0.120708 0.498208
C10   C     C_R   0.573390 0.619270 0.119956 0.530244
C11   C     C_R   0.589980 0.459064 0.236244 -0.131650
C12   C     C_R   0.499528 0.500747 0.389897 0.823655
C13   C     C_R   0.590402 0.443676 0.295596 -0.279057
C14   C     C_R   0.494839 0.505835 0.328082 -0.039965
C15   C     C_R   0.400008 0.584742 0.301613 -0.220684
C16   C     C_R   0.399035 0.599067 0.242358 -0.101752
C17   C     C_R   0.493764 0.535935 0.209700 0.318576
C18   C     C_R   0.387664 0.564741 0.758157 -0.091427
C19   C     C_R   0.390653 0.554076 0.698883 -0.334545
C20   C     C_R   0.498533 0.501667 0.671754 -0.142561
C21   C     C_R   0.604860 0.459836 0.703488 0.429588
C22   C     C_R   0.601209 0.471854 0.763217 -0.210071
C23   C     C_R   0.742170 0.499811 0.500161 0.820248
C24   C     C_R   0.492742 0.523300 0.790371 0.248469
C25   C     C_3   0.071542 0.574204 0.555051 -0.426455
C26   C     C_3   0.075755 0.357918 0.499522 -0.410082
C27   C     C_3   0.926925 0.576642 0.554697 -0.387882
C28   C     C_3   0.934284 0.361539 0.501964 -0.417188
C29   C     C_3   0.071626 0.575947 0.445387 -0.389036
C30   C     C_3   0.122432 0.503653 0.500075 0.208985
C31   C     C_3   0.879545 0.504148 0.500301 0.182759
C32   C     C_3   0.927227 0.576680 0.445668 -0.409975
C33   C     C_3   0.370914 0.083462 0.509287 -0.371645
C34   C     C_3   0.369527 0.924094 0.497953 -0.393869
C35   C     C_3   0.535979 0.081191 0.441397 0.391912
C36   C     C_3   0.567934 0.922828 0.448121 0.399555
C37   C     C_3   0.578401 0.071943 0.546446 0.262390
C38   C     C_3   0.554925 0.915217 0.553225 0.351538
C39   C     C_R   0.501115 0.499901 0.609978 0.918134
C40   C     C_R   0.571162 0.614008 0.878616 0.523317
C41   C     C_R   0.405989 0.456456 0.880957 0.506774
C42   C     C_R   0.402503 0.460589 0.940698 0.022208
C43   C     C_R   0.488480 0.540831 0.969865 -0.082887
C44   C     C_R   0.575682 0.617309 0.938898 -0.144498
H1    H     H_    0.249396 0.322856 0.950084 0.187735
H2    H     H_    0.309379 0.587532 0.674031 0.153872
H3    H     H_    0.682714 0.443507 0.788694 0.144799
H4    H     H_    0.105840 0.678080 0.558350 0.173344
H5    H     H_    0.107622 0.304812 0.459783 0.180748
H6    H     H_    0.106509 0.518652 0.593784 0.158238
H7    H     H_    0.113320 0.299180 0.537024 0.170278
H8    H     H_    0.891635 0.526559 0.594028 0.190191
H9    H     H_    0.906907 0.321752 0.544746 0.188891
H10   H     H_    0.890560 0.681242 0.556620 0.196127
H11   H     H_    0.898218 0.304700 0.464644 0.167055
H12   H     H_    0.105071 0.680335 0.442549 0.176700
H13   H     H_    0.107332 0.522713 0.406394 0.152976
H14   H     H_    0.891130 0.682354 0.444489 0.177873
H15   H     H_    0.892802 0.526137 0.406416 0.149304
H16   H     H_    0.298530 0.135425 0.482129 0.241710
H17   H     H_    0.323660 0.904080 0.456077 0.238939
H18   H     H_    0.245828 0.330624 0.054023 0.190711
H19   H     H_    0.339072 0.105054 0.553959 0.129274
H20   H     H_    0.309997 0.875760 0.530938 0.166016
H21   H     H_    0.537650 0.115305 0.586556 0.103483
H22   H     H_    0.481998 0.906120 0.587684 0.029881
H23   H     H_    0.616461 0.136767 0.424866 0.019872
H24   H     H_    0.667877 0.909920 0.457492 0.015810
H25   H     H_    0.726615 0.758636 0.051483 0.199827
H26   H     H_    0.662987 0.409988 0.210750 0.142137
H27   H     H_    0.665863 0.385900 0.316192 0.132166
H28   H     H_    0.327123 0.634927 0.326895 0.150085
H29   H     H_    0.324768 0.658433 0.221699 0.139850
H30   H     H_    0.304183 0.605684 0.779148 0.152659
N1    N     N_R   0.489233 0.532408 0.851422 -0.346430
N2    N     N_R   0.488556 0.543673 0.148739 -0.355568
N3    N     N_3   0.499750 0.138610 0.498760 -0.139536
N4    N     N_3   0.499750 0.861390 0.498760 -0.116825
O1    O     O_R   0.314910 0.616040 0.499990 -0.635104
O2    O     O_R   0.314910 0.383960 0.499990 -0.630429
O3    O     O_R   0.500080 0.616070 0.416130 -0.570501
O4    O     O_R   0.500080 0.383930 0.416130 -0.600548
O5    O     O_R   0.685320 0.616040 0.499970 -0.605081
O6    O     O_R   0.685320 0.383960 0.499970 -0.601007
O7    O     O_R   0.500150 0.616010 0.583820 -0.621807
O8    O     O_R   0.500150 0.383990 0.583820 -0.606728
O9    O     O_2   0.646587 0.692093 0.847087 -0.549654
O10   O     O_2   0.327782 0.376065 0.852403 -0.574734
O11   O     O_2   0.316430 0.401117 0.150808 -0.590506
O12   O     O_2   0.656641 0.691546 0.149476 -0.573200
Zn1   Zn    Zn3+2 0.500150 0.654960 0.499970 0.969388
Zn2   Zn    Zn3+2 0.500150 0.345040 0.499970 0.961920
O13   O     O_3   0.715774 0.423868 0.675506 -0.650549
C45   C     C_3   0.751364 0.287877 0.687255 0.097673
H31   H     H_    0.764810 0.236005 0.645557 0.199858
H32   H     H_    0.679330 0.230590 0.711230 0.091992
C46   C     C_3   0.875698 0.277889 0.720392 -0.362983
H33   H     H_    0.863989 0.323686 0.763485 0.213331
H34   H     H_    0.902398 0.169797 0.726658 0.183680
C47   C     C_3   0.982229 0.346051 0.688777 -0.802428
H35   H     H_    0.993065 0.305042 0.644722 0.235508
H36   H     H_    0.071686 0.327243 0.712363 0.247870
H37   H     H_    0.963564 0.456487 0.686634 0.271871
O14   O     O_3   0.432576 0.103635 0.402738 -0.616015
C48   C     C_3   0.465213 0.118262 0.344340 0.129250
H38   H     H_    0.485480 0.018499 0.325290 0.189830
H39   H     H_    0.546386 0.184095 0.337968 0.119680
C49   C     C_3   0.350815 0.178072 0.312553 -0.360329
H40   H     H_    0.266145 0.121978 0.324927 0.227568
H41   H     H_    0.334666 0.284835 0.325086 0.233690
C50   C     C_3   0.366895 0.168781 0.247619 -0.865559
H42   H     H_    0.449882 0.224877 0.233448 0.281497
H43   H     H_    0.281534 0.212232 0.226378 0.302328
H44   H     H_    0.378978 0.061914 0.234322 0.250584
O15   O     O_3   0.541385 0.857750 0.395557 -0.615415
C51   C     C_3   0.652067 0.806769 0.367225 0.104759
H45   H     H_    0.621901 0.743565 0.330994 0.189504
H46   H     H_    0.707647 0.739039 0.396297 0.150676
C52   C     C_3   0.735378 0.915950 0.341603 -0.480122
H47   H     H_    0.685704 0.969040 0.305892 0.224311
H48   H     H_    0.760080 0.990866 0.374356 0.197541
C53   C     C_3   0.857228 0.853631 0.317621 -0.898411
H49   H     H_    0.913165 0.804200 0.352456 0.251295
H50   H     H_    0.914084 0.933590 0.297998 0.265966
H51   H     H_    0.836554 0.778179 0.284176 0.283533
O16   O     O_3   0.706534 0.109721 0.552325 -0.648929
C54   C     C_3   0.799239 0.068743 0.511352 0.130253
H52   H     H_    0.871360 0.136847 0.519356 0.188334
H53   H     H_    0.777991 0.088405 0.466297 0.060694
C55   C     C_3   0.878286 0.939335 0.521978 -0.352919
H54   H     H_    0.896742 0.924797 0.568413 0.238220
H55   H     H_    0.830658 0.852266 0.504464 0.253011
C56   C     C_3   0.005321 0.944636 0.490904 -1.063435
H56   H     H_    0.991072 0.950770 0.443698 0.278453
H57   H     H_    0.062840 0.853628 0.501095 0.274161
H58   H     H_    0.059262 0.032285 0.505168 0.267118
O17   O     O_3   0.664615 0.840780 0.570231 -0.624102
C57   C     C_3   0.670148 0.813377 0.630441 0.136883
H59   H     H_    0.741132 0.730476 0.637063 0.168165
H60   H     H_    0.580613 0.776242 0.647929 0.155257
C58   C     C_3   0.708256 0.934521 0.666249 -0.471768
H61   H     H_    0.796510 0.976329 0.649778 0.241019
H62   H     H_    0.632972 0.013929 0.664394 0.211600
C59   C     C_3   0.727303 0.894302 0.729084 -0.861464
H63   H     H_    0.639442 0.853739 0.747034 0.296996
H64   H     H_    0.752446 0.983765 0.754447 0.255941
H65   H     H_    0.804318 0.816758 0.733110 0.269621
O18   O     O_3   0.752353 0.769170 0.941035 -0.601847
C60   C     C_3   0.861660 0.688428 0.929692 0.148580
H66   H     H_    0.898796 0.720285 0.887295 0.190134
H67   H     H_    0.843586 0.578605 0.925994 0.111949
C61   C     C_3   0.962266 0.711239 0.975282 -0.411228
H68   H     H_    0.978182 0.820820 0.979163 0.244603
H69   H     H_    0.930019 0.672910 0.017494 0.223824
C62   C     C_3   0.086046 0.638632 0.959827 -0.905747
H70   H     H_    0.072137 0.528741 0.956116 0.265980
H71   H     H_    0.156519 0.655577 0.993937 0.276608
H72   H     H_    0.122885 0.677476 0.918497 0.263012

loop_
_geom_bond_atom_site_label_1
_geom_bond_atom_site_label_2
_ccdc_geom_bond_type
C4    C9    A    
N3    Zn2   S    
O16   C54   S    
C62   H71   S    
C41   C42   A    
C35   C36   S    
C32   H14   S    
C46   H33   S    
O7    Zn1   S    
C19   H2    S    
C7    C8    A    
C36   H24   S    
C49   H40   S    
C15   H28   S    
C48   H39   S    
O13   C45   S    
C23   O5    A    
C18   C24   A    
C40   O9    S    
C37   C38   S    
C2    C42   A    
C29   C32   S    
C60   H67   S    
C5    C6    A    
C52   C53   S    
C15   C16   A    
O4    Zn2   S    
C51   H45   S    
C18   C19   A    
C25   H6    S    
C47   H35   S    
C10   N2    A    
C38   H22   S    
C51   H46   S    
C16   C17   A    
C37   H21   S    
C56   H58   S    
C17   N2    S    
C9    N2    A    
O1    Zn1   S    
C22   H3    S    
C5    C43   A    
C18   H30   S    
C21   C22   A    
C26   H5    S    
C62   H72   S    
C8    O18   S    
C59   H65   S    
C34   H20   S    
O14   C48   S    
C46   H34   S    
C28   H11   S    
C52   H48   S    
C2    H1    S    
C48   C49   S    
C27   H10   S    
C23   O6    A    
C27   C31   S    
C16   H29   S    
O18   C60   S    
C59   H64   S    
C35   O14   S    
C58   C59   S    
C9    O11   S    
C20   C39   S    
C4    C5    A    
C13   H27   S    
C45   C46   S    
C37   N3    S    
C35   N3    S    
C47   H37   S    
C23   C31   S    
O2    Zn2   S    
C55   H55   S    
C43   C44   A    
C54   H53   S    
C40   N1    A    
C7    H25   S    
C29   C30   S    
C41   N1    A    
C31   C32   S    
C61   C62   S    
C35   H23   S    
C33   H19   S    
C47   H36   S    
C33   C34   S    
C12   O4    A    
C50   H43   S    
C20   C21   A    
C52   H47   S    
C45   H32   S    
C25   H4    S    
C57   H60   S    
C29   H13   S    
C26   C30   S    
C33   H16   S    
C58   H61   S    
C56   H56   S    
C1    O1    A    
C22   C24   A    
C60   C61   S    
C55   C56   S    
C42   C43   A    
C39   O7    A    
C53   H50   S    
C3    C4    A    
C46   C47   S    
C27   H8    S    
C37   O16   S    
C48   H38   S    
C3    H18   S    
C25   C30   S    
C41   O10   S    
C11   C17   A    
C50   H42   S    
C26   C28   S    
C28   C31   S    
C8    C44   A    
C61   H69   S    
C59   H63   S    
C57   C58   S    
C26   H7    S    
C6    C10   A    
C28   H9    S    
C49   C50   S    
C24   N1    S    
C6    C7    A    
C29   H12   S    
N4    Zn1   S    
C25   C27   S    
O5    Zn1   S    
O17   C57   S    
C38   N4    S    
C32   H15   S    
C51   C52   S    
C19   C20   A    
C58   H62   S    
C2    C3    A    
C12   C14   S    
C54   C55   S    
O8    Zn2   S    
C60   H66   S    
C34   N4    S    
C11   C13   A    
C33   N3    S    
O15   C51   S    
C21   O13   S    
C53   H51   S    
C1    C30   S    
C38   O17   S    
C49   H41   S    
C12   O3    A    
C55   H54   S    
C50   H44   S    
C34   H17   S    
C45   H31   S    
C57   H59   S    
C11   H26   S    
O3    Zn1   S    
C40   C44   A    
C61   H68   S    
C10   O12   S    
C62   H70   S    
C56   H57   S    
C1    O2    A    
C14   C15   A    
C36   N4    S    
O6    Zn2   S    
C39   O8    A    
C53   H49   S    
C13   C14   A    
C36   O15   S    
C54   H52   S    
