data_mof_unit_63255.cif
_audit_creation_date              2012-10-26T18:36:27-0400
_audit_creation_method            fapswitch 2.2
_symmetry_space_group_name_H-M    P1
_symmetry_Int_Tables_number       1
_space_group_crystal_system       triclinic
_cell_length_a                    12.74386
_cell_length_b                    13.92149
_cell_length_c                    17.297725
_cell_angle_alpha                 90.052946
_cell_angle_beta                  96.575221
_cell_angle_gamma                 81.973627
_cell_volume                      3018.44551434

loop_
_atom_site_label
_atom_site_type_symbol
_atom_type_description
_atom_site_fract_x
_atom_site_fract_y
_atom_site_fract_z
_atom_type_partial_charge
C1    C     C_R   0.516580 0.315900 0.500884 0.552292
C2    C     C_2   0.026245 0.526637 0.477852 -0.139978
C3    C     C_1   0.143928 0.519264 0.484028 0.173167
C4    C     C_1   0.856071 0.480736 0.515972 0.173167
C5    C     C_R   0.512946 0.497174 0.650904 0.547427
C6    C     C_R   0.487054 0.502827 0.349095 0.547427
C7    C     C_R   0.518386 0.488369 0.735511 0.016448
C8    C     C_R   0.481615 0.511638 0.264488 0.016448
C9    C     C_R   0.426497 0.474825 0.769455 -0.102560
C10   C     C_R   0.573513 0.525163 0.230547 -0.102556
C11   C     C_R   0.430954 0.464787 0.849576 -0.057689
C12   C     C_R   0.483420 0.684100 0.499116 0.552291
C13   C     C_R   0.569059 0.535209 0.150426 -0.057688
C14   C     C_R   0.526792 0.469704 0.896668 0.097549
C15   C     C_R   0.473214 0.530316 0.103331 0.097540
C16   C     C_R   0.619343 0.480773 0.863271 -0.067049
C17   C     C_R   0.380654 0.519267 0.136726 -0.067055
C18   C     C_R   0.615234 0.490207 0.782819 -0.114197
C19   C     C_R   0.384761 0.509826 0.217178 -0.114199
C20   C     C_2   0.529569 0.465581 0.981143 0.206256
C21   C     C_2   0.470440 0.534444 0.018856 0.206257
C22   C     C_1   0.473767 0.787233 0.498226 0.035925
C23   C     C_1   0.526232 0.212766 0.501774 0.035925
C24   C     C_2   0.456081 0.977931 0.496376 0.239941
C25   C     C_2   0.543919 0.022068 0.503624 0.239941
C26   C     C_1   0.534869 0.125852 0.502640 0.077766
C27   C     C_1   0.465131 0.874148 0.497360 0.077766
C28   C     C_2   0.973755 0.473363 0.522148 -0.139977
Cl1   Cl    Cl    0.389611 0.634661 0.969839 -0.571957
Cl2   Cl    Cl    0.610402 0.365367 0.030157 -0.571972
Cl3   Cl    Cl    0.673634 0.956138 0.514685 -0.542294
Cl4   Cl    Cl    0.326365 0.043862 0.485315 -0.542294
Cu1   Cu    Cu3+1 0.605120 0.493930 0.505020 1.045999
Cu2   Cu    Cu3+1 0.394880 0.506070 0.494980 1.046001
H1    H     H_    0.351208 0.471567 0.734185 0.147452
H2    H     H_    0.019764 0.422207 0.564724 0.145391
H3    H     H_    0.648808 0.528401 0.265818 0.147455
H4    H     H_    0.312710 0.500346 0.242191 0.147481
H5    H     H_    0.687277 0.499703 0.757804 0.147483
H6    H     H_    0.693886 0.484005 0.899539 0.155242
H7    H     H_    0.306105 0.516054 0.100455 0.155247
H8    H     H_    0.640574 0.545395 0.124902 0.153483
H9    H     H_    0.359446 0.454589 0.875104 0.153470
H10   H     H_    0.980236 0.577793 0.435276 0.145390
N1    N     N_1   0.763100 0.484810 0.512560 -0.177331
N2    N     N_1   0.236900 0.515190 0.487440 -0.177330
O1    O     O_R   0.601320 0.356300 0.504850 -0.485379
O2    O     O_R   0.398680 0.643700 0.495150 -0.485380
O3    O     O_R   0.423780 0.366550 0.496380 -0.480815
O4    O     O_R   0.576220 0.633450 0.503620 -0.480816
O5    O     O_R   0.599070 0.494270 0.618330 -0.499800
O6    O     O_R   0.400930 0.505730 0.381670 -0.499798
O7    O     O_R   0.421520 0.504520 0.609850 -0.502755
O8    O     O_R   0.578480 0.495480 0.390150 -0.502758

loop_
_geom_bond_atom_site_label_1
_geom_bond_atom_site_label_2
_ccdc_geom_bond_type
C25   Cl3   S    
C12   O4    A    
C18   H5    S    
C24   Cl4   S    
C11   H9    S    
Cu2   N2    S    
C19   H4    S    
C12   C22   S    
Cu1   O5    S    
Cu1   N1    S    
C3    N2    T    
Cu2   O6    S    
C24   C27   S    
C12   O2    A    
C7    C18   A    
C1    C23   S    
C2    C3    S    
Cu1   O4    S    
C5    C7    S    
C20   Cl2   S    
C24   C25   D    
C9    C11   A    
C1    O3    A    
C16   H6    S    
C10   H3    S    
C6    C8    S    
C8    C10   A    
C13   H8    S    
C4    C28   S    
C6    O8    A    
Cu1   Cu2   S    
C17   H7    S    
C4    N1    T    
C13   C15   A    
C22   C27   T    
Cu1   O1    S    
C11   C14   A    
C14   C16   A    
C8    C19   A    
Cu2   O2    S    
C9    H1    S    
C17   C19   A    
C14   C20   S    
C15   C21   S    
C20   C21   D    
C28   H2    S    
Cu2   O7    S    
C16   C18   A    
C23   C26   T    
C5    O7    A    
Cu1   O8    S    
C7    C9    A    
C5    O5    A    
Cu2   O3    S    
C2    C28   D    
C6    O6    A    
C25   C26   S    
C15   C17   A    
C21   Cl1   S    
C1    O1    A    
C2    H10   S    
C10   C13   A    
