data_mof_unit_5292.cif
_audit_creation_date              2013-03-05T15:50:46-0500
_audit_creation_method            fapswitch 2.2
_symmetry_space_group_name_H-M    P1
_symmetry_Int_Tables_number       1
_space_group_crystal_system       triclinic
_cell_length_a                    14.315307
_cell_length_b                    14.818723
_cell_length_c                    33.184036
_cell_angle_alpha                 97.567411
_cell_angle_beta                  90.365711
_cell_angle_gamma                 118.978647
_cell_volume                      6084.47996663

loop_
_atom_site_label
_atom_site_type_symbol
_atom_site_description
_atom_site_fract_x
_atom_site_fract_y
_atom_site_fract_z
_atom_type_partial_charge
O1    O     O_R   0.318160 0.824460 0.443680 -0.509921
O2    O     O_R   0.525040 0.857250 0.449830 -0.503444
C1    C     C_R   0.617055 0.910370 0.437024 0.541200
O3    O     O_R   0.684760 0.998800 0.456360 -0.514558
O4    O     O_R   0.647540 0.166310 0.470260 -0.500178
C2    C     C_R   0.594250 0.205731 0.456672 0.549558
O5    O     O_R   0.500960 0.181750 0.467450 -0.513760
O6    O     O_R   0.331100 0.981120 0.457080 -0.503939
C3    C     C_R   0.295599 0.892810 0.434406 0.543948
O7    O     O_R   0.315560 0.821140 0.532010 -0.434221
O8    O     O_R   0.522630 0.854180 0.531710 -0.499219
C4    C     C_R   0.613852 0.904983 0.551639 0.539975
O9    O     O_R   0.682160 0.995480 0.544690 -0.516035
O10   O     O_R   0.645130 0.163230 0.552140 -0.498646
C5    C     C_R   0.590717 0.201333 0.570400 0.544670
O11   O     O_R   0.498360 0.178430 0.555780 -0.518283
O12   O     O_R   0.328690 0.978040 0.538950 -0.517932
C6    C     C_R   0.289162 0.886716 0.548708 0.568250
Cr1   Cr    Cr6+3 0.424820 0.846020 0.489780 1.063770
Cr2   Cr    Cr6+3 0.657880 0.078580 0.505700 1.027454
Cr3   Cr    Cr6+3 0.417280 0.075360 0.504550 1.016029
O13   O     O_3   0.499990 0.999990 0.500010 -0.248006
C7    C     C_R   0.737558 0.449053 0.105479 0.019000
C8    C     C_R   0.646847 0.424762 0.127381 -0.121583
C9    C     C_R   0.648739 0.410093 0.167851 -0.122284
C10   C     C_R   0.740908 0.418703 0.186954 0.066334
C11   C     C_R   0.829268 0.436585 0.164535 -0.062047
C12   C     C_R   0.827650 0.451657 0.124003 -0.128226
C13   C     C_R   0.772303 0.343243 0.245173 0.377549
C14   C     C_R   0.765849 0.331892 0.286239 -0.020947
C15   C     C_R   0.733304 0.390636 0.313311 0.007855
C16   C     C_R   0.711512 0.464054 0.299140 -0.141051
C17   C     C_R   0.717521 0.475230 0.258098 -0.179094
C18   C     C_R   0.745459 0.413231 0.230715 0.028003
C19   C     C_R   0.606922 0.342417 0.367502 -0.176197
C20   C     C_R   0.572163 0.296681 0.402421 -0.146491
C21   C     C_R   0.742264 0.301725 0.413654 -0.080957
C22   C     C_R   0.777267 0.347766 0.378772 0.381127
C23   C     C_R   0.707944 0.364394 0.354532 0.038732
C24   C     C_R   0.637883 0.271949 0.424794 -0.036369
H1    H     H_    0.576193 0.421966 0.113922 0.136501
H2    H     H_    0.898893 0.470600 0.107915 0.132759
H3    H     H_    0.780398 0.272923 0.296381 0.175615
H4    H     H_    0.579187 0.394669 0.184636 0.111347
H5    H     H_    0.686451 0.510147 0.319570 0.127889
H6    H     H_    0.697905 0.530570 0.247464 0.123070
H7    H     H_    0.551947 0.354083 0.349153 0.121883
H8    H     H_    0.491537 0.275041 0.410418 0.146015
H9    H     H_    0.901128 0.443610 0.178903 0.154029
H10   H     H_    0.795259 0.285208 0.430873 0.155740
H11   H     H_    0.184734 0.730930 0.102724 0.130900
H12   H     H_    0.234584 0.769526 0.176129 0.113267
H13   H     H_    0.190689 0.723849 0.301121 0.119466
H14   H     H_    0.233910 0.727747 0.373040 0.142140
C25   C     C_R   0.244635 0.878083 0.393402 0.020613
C26   C     C_R   0.232471 0.959209 0.380797 -0.125387
C27   C     C_R   0.208576 0.956903 0.339678 -0.112832
C28   C     C_R   0.195883 0.873336 0.310784 0.037487
C29   C     C_R   0.200804 0.789102 0.323328 -0.105462
C30   C     C_R   0.224799 0.791218 0.364418 -0.113946
C31   C     C_R   0.196099 0.807894 0.163235 -0.108539
C32   C     C_R   0.168053 0.786397 0.121361 -0.120765
C33   C     C_R   0.090350 0.900600 0.129587 -0.125744
C34   C     C_R   0.117982 0.921521 0.171578 -0.112380
C35   C     C_R   0.167360 0.872138 0.188559 0.039495
C36   C     C_1   0.178152 0.877470 0.231959 -0.024660
C37   C     C_1   0.185425 0.876872 0.268056 -0.024860
C38   C     C_R   0.110647 0.828874 0.104386 0.021245
H15   H     H_    0.247380 0.027319 0.402295 0.129374
H16   H     H_    0.095353 0.971340 0.190989 0.112219
H17   H     H_    0.045354 0.933772 0.117499 0.127703
H18   H     H_    0.204506 0.022272 0.330244 0.113407
H19   H     H_    0.868855 0.960734 0.122552 0.129309
H20   H     H_    0.841370 0.984252 0.195134 0.126638
H21   H     H_    0.825023 0.978022 0.327282 0.122097
H22   H     H_    0.804270 0.000901 0.400434 0.138156
C39   C     C_R   0.637792 0.878903 0.395518 0.018268
C40   C     C_R   0.552939 0.799953 0.368522 -0.127973
C41   C     C_R   0.565117 0.787769 0.326805 -0.116066
C42   C     C_R   0.662223 0.853656 0.311818 0.036475
C43   C     C_R   0.749382 0.927129 0.338710 -0.105586
C44   C     C_R   0.737426 0.939621 0.380404 -0.119095
C45   C     C_R   0.778012 0.920381 0.174573 -0.096208
C46   C     C_R   0.793132 0.907211 0.133142 -0.119456
C47   C     C_R   0.618197 0.751801 0.121597 -0.122274
C48   C     C_R   0.603195 0.765331 0.162944 -0.113956
C49   C     C_R   0.684634 0.847367 0.189625 0.041664
C50   C     C_1   0.676402 0.850585 0.232680 -0.020611
C51   C     C_1   0.670064 0.851430 0.268774 -0.023397
C52   C     C_R   0.715203 0.820113 0.106620 0.021484
H23   H     H_    0.475124 0.752291 0.379175 0.131546
H24   H     H_    0.530500 0.708732 0.174406 0.109030
H25   H     H_    0.556676 0.684173 0.101865 0.127436
H26   H     H_    0.497382 0.730387 0.306094 0.111257
H27   H     H_    0.882179 0.480955 0.897697 0.137977
H28   H     H_    0.875456 0.457901 0.823160 0.112812
H29   H     H_    0.810857 0.320205 0.690353 0.118724
H30   H     H_    0.763318 0.235997 0.618977 0.133854
C53   C     C_R   0.631206 0.266548 0.610789 0.021103
C54   C     C_R   0.575821 0.315362 0.629490 -0.122842
C55   C     C_R   0.603610 0.363680 0.670014 -0.110337
C56   C     C_R   0.687016 0.363903 0.692177 0.041036
C57   C     C_R   0.746619 0.320951 0.673210 -0.105900
C58   C     C_R   0.719231 0.272846 0.632581 -0.122333
C59   C     C_R   0.805999 0.451407 0.838236 -0.111443
C60   C     C_R   0.809432 0.463982 0.880676 -0.128124
C61   C     C_R   0.627189 0.434107 0.877755 -0.107054
C62   C     C_R   0.623683 0.421004 0.835239 -0.090398
C63   C     C_R   0.713459 0.430742 0.815542 0.042996
C64   C     C_1   0.708541 0.413920 0.771971 -0.021453
C65   C     C_1   0.701356 0.394729 0.735442 -0.021643
C66   C     C_R   0.720577 0.456640 0.900910 0.012517
H31   H     H_    0.508170 0.312469 0.613373 0.131547
H32   H     H_    0.551405 0.404260 0.817760 0.123256
H33   H     H_    0.557955 0.429343 0.892450 0.144767
H34   H     H_    0.556779 0.396341 0.684598 0.106456
C67   C     C_R   0.079958 0.762563 0.911030 -0.027482
C68   C     C_R   0.119364 0.864328 0.902271 -0.118265
C69   C     C_R   0.155306 0.888975 0.863988 0.219778
C70   C     C_R   0.148396 0.808624 0.833821 0.048640
C71   C     C_R   0.116043 0.709037 0.843760 -0.116978
C72   C     C_R   0.084062 0.686740 0.882323 -0.133961
C73   C     C_R   0.227676 0.795875 0.767124 0.228667
C74   C     C_R   0.223156 0.796039 0.725009 -0.093608
C75   C     C_R   0.155136 0.824662 0.706484 -0.014338
C76   C     C_R   0.090592 0.853329 0.730056 -0.113628
C77   C     C_R   0.091887 0.850678 0.771760 -0.112248
C78   C     C_R   0.159583 0.821829 0.790624 0.047239
C79   C     C_R   0.190063 0.928022 0.650000 -0.135520
C80   C     C_R   0.223197 0.943219 0.610900 -0.188049
C81   C     C_R   0.182262 0.762311 0.595935 0.379130
C82   C     C_R   0.150218 0.747852 0.635130 -0.081536
C83   C     C_R   0.159458 0.831975 0.662912 -0.029562
C84   C     C_R   0.225819 0.862313 0.584426 0.025212
H35   H     H_    0.119607 0.924030 0.925015 0.167919
H36   H     H_    0.056098 0.608339 0.888661 0.133351
H37   H     H_    0.124664 0.672710 0.644695 0.139718
H38   H     H_    0.275873 0.777652 0.706696 0.152194
H39   H     H_    0.038462 0.876446 0.716094 0.119543
H40   H     H_    0.038941 0.870123 0.789359 0.121774
H41   H     H_    0.197245 0.993649 0.671213 0.138198
H42   H     H_    0.254910 0.020587 0.602731 0.143482
H43   H     H_    0.110211 0.646766 0.820900 0.136263
C85   C     C_R   0.724986 0.702664 0.901237 0.012010
C86   C     C_R   0.622909 0.655188 0.880363 -0.117430
C87   C     C_R   0.613346 0.653247 0.838063 -0.100821
C88   C     C_R   0.705707 0.698000 0.816583 0.029429
C89   C     C_R   0.806537 0.738668 0.837341 -0.109379
C90   C     C_R   0.815914 0.742075 0.879161 -0.119729
C91   C     C_R   0.765003 0.816140 0.764509 -0.101016
C92   C     C_R   0.757999 0.837304 0.725367 -0.105411
C93   C     C_R   0.686198 0.758298 0.694654 0.035889
C94   C     C_R   0.623122 0.656593 0.703976 -0.096801
C95   C     C_R   0.629338 0.635653 0.743554 -0.096404
C96   C     C_R   0.699838 0.715721 0.774144 0.035576
C97   C     C_R   0.567770 0.740872 0.634958 -0.108830
C98   C     C_R   0.550544 0.777120 0.600519 -0.121070
C99   C     C_R   0.739959 0.901328 0.603386 -0.123079
C100  C     C_R   0.757515 0.863823 0.637541 -0.115725
C101  C     C_R   0.671049 0.785427 0.654502 0.032472
C102  C     C_R   0.635924 0.859698 0.585078 0.016629
H44   H     H_    0.551505 0.623615 0.896800 0.137239
H45   H     H_    0.895061 0.778735 0.894516 0.130547
H46   H     H_    0.838515 0.898227 0.651322 0.104426
H47   H     H_    0.805802 0.916918 0.719750 0.110002
H48   H     H_    0.819069 0.879562 0.787767 0.124931
H49   H     H_    0.534609 0.621652 0.822543 0.140183
H50   H     H_    0.568096 0.593579 0.680844 0.101059
H51   H     H_    0.579354 0.557370 0.750302 0.103799
H52   H     H_    0.499104 0.681688 0.647428 0.124590
H53   H     H_    0.469221 0.743519 0.587139 0.157398
H54   H     H_    0.878629 0.772132 0.821407 0.102124
H55   H     H_    0.807349 0.964110 0.591802 0.129267
O14   O     O_R   0.828710 0.851830 0.052170 -0.507956
O15   O     O_R   0.005980 0.823990 0.047210 -0.496862
C103  C     C_R   0.052142 0.781229 0.063782 0.546293
O16   O     O_R   0.031900 0.688850 0.050170 -0.512194
O17   O     O_R   0.830940 0.518420 0.048680 -0.492116
C104  C     C_R   0.743892 0.486652 0.066196 0.559895
O18   O     O_R   0.668160 0.499860 0.053480 -0.509920
O19   O     O_R   0.689170 0.693840 0.050110 -0.495984
C105  C     C_R   0.742790 0.789130 0.066397 0.555808
O20   O     O_R   0.803860 0.812940 0.962540 -0.481320
O21   O     O_R   0.982950 0.787950 0.964120 -0.528410
C106  C     C_R   0.023248 0.733263 0.947850 0.524048
O22   O     O_R   0.007050 0.649970 0.960540 -0.517741
O23   O     O_R   0.807910 0.482370 0.965590 -0.488849
C107  C     C_R   0.730593 0.484729 0.945625 0.542787
O24   O     O_R   0.643310 0.460980 0.963840 -0.501141
O25   O     O_R   0.666140 0.657800 0.967020 -0.510124
C108  C     C_R   0.742868 0.716940 0.945828 0.541346
Cr4   Cr    Cr6+3 0.903360 0.812540 0.006510 1.026622
Cr5   Cr    Cr6+3 0.914630 0.587050 0.006280 1.022688
Cr6   Cr    Cr6+3 0.673560 0.582680 0.008540 1.025613
O26   O     O_3   0.830520 0.660760 0.007110 -0.292532
F1    F     F_    0.877022 0.372139 0.367816 -0.637829
N1    N     N_R   0.303036 0.772074 0.785463 0.072915
O27   O     O_R   0.348750 0.817656 0.821909 -0.293738
O28   O     O_R   0.335477 0.713842 0.764107 -0.352209
N2    N     N_R   0.196337 0.994334 0.856006 0.075683
O29   O     O_R   0.167660 0.056374 0.876846 -0.340358
O30   O     O_R   0.270540 0.032168 0.830904 -0.299042
F2    F     F_    0.178000 0.680396 0.570583 -0.616271
F3    F     F_    0.797749 0.281114 0.219199 -0.638814

loop_
_geom_bond_atom_site_label_1
_geom_bond_atom_site_label_2
_geom_bond_distance
_ccdc_geom_bond_type
C45   C49   1.398740 A    
C49   C50   1.430746 S    
C93   C101  1.485213 S    
O25   C108  1.307084 A    
C17   H6    1.083508 S    
C61   C66   1.405666 A    
C71   H43   1.083564 S    
O22   Cr5   2.031416 S    
C88   C89   1.398638 A    
H20   C45   1.083610 S    
C87   H49   1.082882 S    
C81   C84   1.409770 A    
C19   H7    1.083247 S    
O20   Cr4   2.035137 S    
O14   C105  1.270673 A    
O17   C104  1.274828 A    
H13   C29   1.083658 S    
C73   C74   1.399000 A    
O4    Cr2   1.918861 S    
H14   C30   1.082961 S    
C39   C40   1.407040 A    
O21   C106  1.273871 A    
C81   F2    1.357777 S    
O8    Cr1   1.917783 S    
C10   C11   1.401013 A    
C76   C77   1.389894 A    
O16   Cr5   2.037493 S    
C74   H38   1.083774 S    
C97   C98   1.393497 A    
H27   C60   1.080770 S    
C21   C22   1.393052 A    
C79   C80   1.393026 A    
C21   C24   1.405452 A    
H12   C31   1.083714 S    
C100  C101  1.409360 A    
C86   C87   1.404642 A    
O4    C2    1.274098 A    
C79   H41   1.083396 S    
C86   H44   1.082667 S    
N1    O27   1.301400 A    
C5    O11   1.269723 A    
C91   H48   1.083738 S    
C62   C63   1.398426 A    
C16   H5    1.083280 S    
C62   H32   1.083620 S    
C42   C51   1.430808 S    
N1    O28   1.301532 A    
C68   C69   1.400180 A    
C99   C102  1.402544 A    
C4    C102  1.476001 S    
C64   C65   1.200050 T    
C47   H25   1.083176 S    
O24   Cr6   2.042219 S    
C10   C18   1.467812 S    
C106  O22   1.270982 A    
C52   C105  1.472886 S    
C15   C23   1.470992 S    
N2    O29   1.301484 A    
Cr5   O26   1.977493 S    
C92   C93   1.404352 A    
O21   Cr4   1.922857 S    
C77   C78   1.406393 A    
C6    C84   1.471983 S    
C3    C25   1.478554 S    
C34   H16   1.083521 S    
C88   C96   1.475353 S    
H19   C46   1.082965 S    
C7    C104  1.470309 S    
C41   C42   1.398061 A    
C36   C37   1.203290 T    
C29   C30   1.396620 A    
C13   F3    1.357632 S    
C25   C30   1.406731 A    
O23   Cr5   1.920710 S    
C8    H1    1.083037 S    
C56   C65   1.429943 S    
C56   C57   1.398876 A    
H11   C32   1.083175 S    
C46   C52   1.406438 A    
C80   H42   1.083097 S    
C9    H4    1.083469 S    
C43   C44   1.394327 A    
C38   C103  1.475637 S    
O17   Cr5   1.914961 S    
C76   H39   1.083507 S    
O1    Cr1   2.035293 S    
C69   N2    1.440510 S    
C55   C56   1.396716 A    
O10   Cr2   1.923025 S    
C97   C101  1.404104 A    
Cr1   O13   1.972652 S    
C17   C18   1.403779 A    
C8    C9    1.390555 A    
C41   H26   1.083642 S    
C63   C64   1.429814 S    
H22   C44   1.083047 S    
O15   Cr4   1.919308 S    
C40   C41   1.395405 A    
O6    C3    1.276050 A    
C60   C66   1.405938 A    
C9    C10   1.401401 A    
O19   C105  1.272276 A    
C13   C18   1.402980 A    
O12   Cr3   1.916023 S    
C104  O18   1.270132 A    
C95   H51   1.083538 S    
O20   C108  1.294656 A    
C107  O24   1.300013 A    
C19   C20   1.391777 A    
C99   C100  1.397960 A    
C19   C23   1.403987 A    
C67   C72   1.398630 A    
Cr4   O26   1.971311 S    
C13   C14   1.393145 A    
C82   C83   1.399073 A    
C28   C37   1.435258 S    
C99   H55   1.083152 S    
C45   C46   1.396131 A    
C100  H46   1.082871 S    
C20   C24   1.402666 A    
O7    Cr1   2.037503 S    
C7    C8    1.404305 A    
C61   H33   1.082810 S    
C25   C26   1.408875 A    
O12   C6    1.277594 A    
C71   C72   1.388718 A    
O1    C3    1.273853 A    
C7    C12   1.406440 A    
C89   C90   1.385298 A    
C69   C70   1.414319 A    
O19   Cr6   1.925402 S    
C72   H36   1.081224 S    
C47   C48   1.393530 A    
H29   C57   1.083608 S    
C97   H52   1.082631 S    
C79   C83   1.400039 A    
Cr6   O26   1.971396 S    
C103  O16   1.270079 A    
Cr2   O13   1.971467 S    
C35   C36   1.435111 S    
C91   C96   1.403873 A    
C94   H50   1.082801 S    
C75   C76   1.395731 A    
C2    C24   1.469682 S    
C14   H3    1.083140 S    
C47   C52   1.406881 A    
C26   C27   1.396571 A    
C61   C62   1.395782 A    
C1    O3    1.268157 A    
C1    C39   1.474058 S    
C98   C102  1.406333 A    
C57   C58   1.396037 A    
O18   Cr6   2.031687 S    
C70   C71   1.403216 A    
H28   C59   1.083735 S    
C87   C88   1.408153 A    
C75   C83   1.463575 S    
C59   C63   1.396155 A    
C33   C38   1.407745 A    
C53   C58   1.405749 A    
O9    Cr2   2.034680 S    
O2    Cr1   1.922117 S    
C48   C49   1.396768 A    
C73   N1    1.440627 S    
C15   C16   1.401379 A    
H21   C43   1.083686 S    
C54   H31   1.082997 S    
C5    C53   1.473904 S    
C42   C43   1.397181 A    
O6    Cr3   1.918341 S    
C66   C107  1.473886 S    
O8    C4    1.270690 A    
C70   C78   1.471440 S    
O11   Cr3   2.035497 S    
C2    O5    1.271783 A    
C85   C108  1.469734 S    
C40   H23   1.083098 S    
C59   C60   1.393440 A    
C67   C68   1.403599 A    
C91   C92   1.389831 A    
C53   C54   1.407386 A    
C32   C38   1.406248 A    
C85   C86   1.404509 A    
C16   C17   1.391674 A    
O2    C1    1.275091 A    
C82   H37   1.083668 S    
O23   C107  1.303624 A    
O15   C103  1.278087 A    
C67   C106  1.466745 S    
C81   C82   1.390636 A    
C34   C35   1.399096 A    
O5    Cr3   2.033782 S    
C21   H10   1.083137 S    
C14   C15   1.405058 A    
C27   C28   1.397472 A    
C22   C23   1.404087 A    
C39   C44   1.407080 A    
O7    C6    1.269182 A    
H30   C58   1.083024 S    
C12   H2    1.083027 S    
C54   C55   1.393863 A    
C89   H54   1.081970 S    
C22   F1    1.357699 S    
C20   H8    1.083086 S    
C27   H18   1.083547 S    
C31   C32   1.394946 A    
C80   C84   1.406126 A    
C85   C90   1.400124 A    
C28   C29   1.399289 A    
O25   Cr6   1.914537 S    
C33   C34   1.398052 A    
O3    Cr2   2.040961 S    
C31   C35   1.398235 A    
C95   C96   1.402196 A    
C92   H47   1.082662 S    
C50   C51   1.200650 T    
N2    O30   1.301463 A    
C26   H15   1.082989 S    
C77   H40   1.082370 S    
C73   C78   1.414296 A    
C11   C12   1.393988 A    
C55   H34   1.083850 S    
O10   C5    1.278598 A    
C48   H24   1.083717 S    
C93   C94   1.410735 A    
C4    O9    1.273365 A    
C94   C95   1.400612 A    
Cr3   O13   1.977720 S    
C33   H17   1.083016 S    
C98   H53   1.083432 S    
C68   H35   1.083259 S    
C11   H9    1.083182 S    
O14   Cr4   2.041559 S    
C74   C75   1.402569 A    
C90   H45   1.077866 S    
