data_mof_unit_45875.cif
_audit_creation_date              2012-12-11T14:06:35-0500
_audit_creation_method            fapswitch 2.2
_symmetry_space_group_name_H-M    P1
_symmetry_Int_Tables_number       1
_space_group_crystal_system       triclinic
_cell_length_a                    6.924733
_cell_length_b                    17.328886
_cell_length_c                    24.105611
_cell_angle_alpha                 104.423464
_cell_angle_beta                  90.718788
_cell_angle_gamma                 90.027462
_cell_volume                      2801.21116206

loop_
_atom_site_label
_atom_site_type_symbol
_atom_type_description
_atom_site_fract_x
_atom_site_fract_y
_atom_site_fract_z
_atom_type_partial_charge
O1    O     O_R   0.494290 0.391990 0.999150 -0.538163
O2    O     O_R   0.827170 0.534410 0.082350 -0.524924
O3    O     O_R   0.994360 0.608010 0.000850 -0.533749
C1    C     C_R   0.659713 0.551471 0.106037 0.742169
O4    O     O_R   0.824210 0.388010 0.004470 -0.527746
O5    O     O_R   0.991370 0.460560 0.922410 -0.545344
C2    C     C_R   0.653744 0.355221 0.002232 0.771242
O6    O     O_R   0.497270 0.539440 0.077590 -0.536448
O7    O     O_3   0.659770 0.523970 0.973170 -0.381309
V1    V     V_3+5 0.935840 0.495550 0.004980 1.500116
O8    O     O_R   0.320910 0.465590 0.917650 -0.547689
C3    C     C_R   0.150939 0.450524 0.893923 0.699907
O9    O     O_R   0.323870 0.611990 0.995530 -0.546122
C4    C     C_R   0.154386 0.645103 0.998452 0.798987
V2    V     V_3+5 0.435470 0.504450 0.995020 1.462333
O10   O     O_3   0.161670 0.476030 0.026830 -0.350954
C5    C     C_2   0.142685 0.730227 0.998052 -0.303730
H1    H     H_    0.277002 0.760974 0.994506 0.150575
C6    C     C_2   0.972879 0.769847 0.002183 -0.305330
H2    H     H_    0.838559 0.739100 0.005720 0.149613
C7    C     C_R   0.016418 0.255101 0.628080 0.584190
N1    N     N_R   0.097491 0.328940 0.648806 -0.557661
C8    C     C_R   0.165874 0.371518 0.612519 0.583034
C9    C     C_R   0.154609 0.340204 0.552840 -0.019489
C10   C     C_R   0.070609 0.264471 0.530118 -0.009236
C11   C     C_R   0.998229 0.221000 0.567926 -0.099736
C12   C     C_R   0.225146 0.383934 0.515830 -0.177282
C13   C     C_R   0.212859 0.354554 0.456563 -0.049707
C14   C     C_R   0.128116 0.278557 0.432412 -0.044630
C15   C     C_R   0.057776 0.233088 0.469678 -0.046792
C16   C     C_R   0.975834 0.156470 0.446619 -0.077878
C17   C     C_R   0.911308 0.111156 0.484814 0.144676
C18   C     C_R   0.913574 0.144987 0.544502 -0.130433
C19   C     C_R   0.110273 0.246324 0.372454 0.575255
N2    N     N_R   0.027025 0.173363 0.350903 -0.565696
C20   C     C_R   0.959599 0.128794 0.386069 0.637109
O11   O     O_2   0.957810 0.214544 0.665898 -0.507778
O12   O     O_2   0.243353 0.444477 0.634159 -0.512441
H3    H     H_    0.289891 0.442154 0.533098 0.165017
O13   O     O_2   0.173033 0.287580 0.335537 -0.510053
O14   O     O_2   0.875237 0.058380 0.361751 -0.476602
C21   C     C_R   0.176619 0.122028 0.256410 -0.067055
H4    H     H_    0.317936 0.129426 0.276819 0.124725
C22   C     C_R   0.161440 0.091896 0.197037 -0.186209
H5    H     H_    0.292785 0.076938 0.172865 0.130963
C23   C     C_R   0.979368 0.081111 0.169350 -0.054338
C24   C     C_R   0.812907 0.101316 0.202759 -0.185946
H6    H     H_    0.670630 0.094138 0.182976 0.127504
C25   C     C_R   0.828514 0.131803 0.262211 -0.065988
H7    H     H_    0.698950 0.147449 0.287148 0.126853
C26   C     C_R   0.010517 0.142396 0.289469 0.375756
C27   C     C_R   0.292564 0.375092 0.737674 -0.071085
H8    H     H_    0.423295 0.361603 0.713003 0.124238
C28   C     C_R   0.305777 0.404385 0.797253 -0.188074
H9    H     H_    0.447570 0.413259 0.817291 0.128098
C29   C     C_R   0.137859 0.420982 0.830471 -0.055195
C30   C     C_R   0.956687 0.408350 0.802400 -0.185966
H10   H     H_    0.824362 0.420634 0.826413 0.128932
C31   C     C_R   0.943854 0.379280 0.742871 -0.072469
H11   H     H_    0.803093 0.369688 0.722202 0.120962
C32   C     C_R   0.111517 0.361987 0.710050 0.376962
C33   C     C_R   0.448168 0.866963 0.612391 0.644906
N3    N     N_R   0.511864 0.822690 0.648794 -0.559743
C34   C     C_R   0.585622 0.747887 0.627729 0.621385
C35   C     C_R   0.599256 0.715289 0.568101 -0.035572
C36   C     C_R   0.536817 0.760223 0.530031 -0.011770
C37   C     C_R   0.459668 0.836668 0.552431 -0.037678
C38   C     C_R   0.672330 0.638600 0.546069 -0.168369
C39   C     C_R   0.686199 0.606135 0.486994 -0.070125
C40   C     C_R   0.628250 0.651331 0.447708 -0.063345
C41   C     C_R   0.551444 0.728776 0.469745 -0.013268
C42   C     C_R   0.489618 0.775012 0.431824 -0.061736
C43   C     C_R   0.408192 0.851528 0.455306 -0.066724
C44   C     C_R   0.394695 0.881120 0.514715 -0.144158
C45   C     C_R   0.644715 0.622601 0.387364 0.593454
N4    N     N_R   0.588570 0.668546 0.351420 -0.562121
C46   C     C_R   0.513067 0.742976 0.372049 0.610354
O15   O     O_2   0.373499 0.939990 0.634087 -0.485608
O16   O     O_2   0.644872 0.704970 0.664372 -0.493411
H12   H     H_    0.718578 0.603123 0.575052 0.180226
O17   O     O_2   0.718479 0.549832 0.364410 -0.498835
O18   O     O_2   0.463095 0.785744 0.334453 -0.487795
H13   H     H_    0.333586 0.939825 0.531495 0.175977
C47   C     C_R   0.774684 0.660672 0.262562 -0.064480
C48   C     C_R   0.794193 0.633134 0.202397 0.077786
C49   C     C_R   0.650861 0.581990 0.169685 -0.095666
C50   C     C_R   0.490988 0.560750 0.198333 -0.195215
H14   H     H_    0.379045 0.522080 0.174651 0.157581
C51   C     C_R   0.472508 0.588584 0.257629 -0.055040
H15   H     H_    0.347261 0.571617 0.278383 0.146568
C52   C     C_R   0.613150 0.638553 0.290189 0.309180
C53   C     C_R   0.339260 0.830550 0.739631 -0.082638
C54   C     C_R   0.321956 0.860645 0.799617 0.092575
C55   C     C_R   0.462742 0.914741 0.830640 -0.127036
C56   C     C_R   0.618334 0.936307 0.800624 -0.226547
H16   H     H_    0.728362 0.976878 0.823432 0.165773
C57   C     C_R   0.634466 0.906784 0.741294 0.234202
C58   C     C_R   0.494647 0.853990 0.710185 0.260779
C59   C     C_2   0.638521 0.269358 0.000372 -0.367423
H17   H     H_    0.770181 0.234710 0.991106 0.162641
C60   C     C_2   0.469644 0.232082 0.006480 -0.232501
O19   O     O_R   0.618210 0.960470 0.922400 -0.535048
O20   O     O_R   0.291310 0.111960 0.995450 -0.545729
O21   O     O_R   0.124210 0.039530 0.077580 -0.545050
C61   C     C_R   0.460729 0.145379 0.000190 0.722567
O22   O     O_R   0.288310 0.965490 0.917650 -0.524012
O23   O     O_R   0.121180 0.892010 0.999220 -0.531636
C62   C     C_R   0.455494 0.947625 0.894078 0.760134
O24   O     O_R   0.621230 0.107990 0.000760 -0.540495
O25   O     O_3   0.455770 0.976060 0.026840 -0.376881
V3    V     V_3+5 0.179680 0.004440 0.995020 1.472690
O26   O     O_R   0.791670 0.888040 0.004570 -0.544632
C63   C     C_R   0.961170 0.854955 0.001731 0.806642
O27   O     O_R   0.794680 0.034510 0.082370 -0.546032
C64   C     C_R   0.964807 0.050128 0.106033 0.704058
V4    V     V_3+5 0.680070 0.995560 0.005010 1.451070
O28   O     O_3   0.953840 0.023940 0.973160 -0.364804
C65   C     C_1   0.758704 0.525644 0.469132 0.415175
N5    N     N_1   0.816097 0.461083 0.455090 -0.323534
C66   C     C_1   0.338108 0.902677 0.420382 0.493607
N6    N     N_1   0.282757 0.943879 0.392532 -0.236649
C67   C     C_1   0.918470 0.712798 0.296493 0.409848
N7    N     N_1   0.032824 0.754673 0.323940 -0.270356
I1    I     I_    0.032941 0.676005 0.162668 -0.368907
C68   C     C_1   0.199333 0.774180 0.707770 0.437794
N8    N     N_1   0.087921 0.728944 0.682062 -0.263782
I2    I     I_    0.089648 0.817640 0.841817 -0.370159
I3    I     I_    0.876178 0.942367 0.700631 -0.263679
C69   C     C_1   0.293427 0.275437 0.025063 0.343106
N9    N     N_1   0.152417 0.309304 0.040487 -0.339558
C70   C     C_1   0.287508 0.405706 0.422630 0.437861
N10   N     N_1   0.346952 0.446957 0.395690 -0.280617
I4    I     I_    0.821387 0.987837 0.457320 -0.320661
C71   C     C_1   0.820883 0.101006 0.580733 0.475766
N11   N     N_1   0.745515 0.065812 0.609379 -0.234650

loop_
_geom_bond_atom_site_label_1
_geom_bond_atom_site_label_2
_ccdc_geom_bond_type
C38   H12   S    
C50   H14   S    
C54   C55   A    
C43   C44   A    
C28   H9    S    
C56   H16   S    
C9    C12   A    
C44   H13   S    
C1    O6    A    
C53   C68   S    
C57   C58   A    
C53   C58   A    
C24   C25   A    
C48   C49   A    
C66   N6    T    
C55   C62   S    
C42   C46   A    
C2    C59   S    
C33   C37   A    
C19   O13   S    
C13   C14   A    
N3    C58   S    
C27   C32   A    
O5    C3    A    
C17   I4    S    
C30   C31   A    
C1    C49   S    
C6    C63   S    
C47   C67   S    
V2    O10   S    
C39   C65   S    
V4    O28   S    
C48   I1    S    
O20   V3    S    
C19   N2    A    
C65   N5    T    
O23   C63   A    
O24   V4    S    
O25   V3    S    
O8    V2    S    
C18   C71   S    
N2    C20   A    
C22   C23   A    
C38   C39   A    
C25   C26   A    
C8    C9    A    
O19   C62   A    
C40   C41   A    
O1    V2    S    
C47   C52   A    
C51   C52   A    
O7    V1    S    
C21   C26   A    
C36   C37   A    
C31   H11   S    
C43   C66   S    
O9    C4    A    
C4    C5    S    
C20   O14   S    
C55   C56   A    
C21   C22   A    
C57   I3    S    
O26   C63   A    
C7    C11   A    
C27   C28   A    
O27   C64   A    
O22   V3    S    
N1    C8    A    
C60   C61   S    
C28   C29   A    
C31   C32   A    
C24   H6    S    
C47   C48   A    
C9    C10   A    
C12   H3    S    
O4    C2    A    
C49   C50   A    
C45   O17   S    
C10   C11   A    
C14   C19   A    
O2    C1    A    
C45   N4    A    
C54   I2    S    
C14   C15   A    
O21   C64   A    
C11   C18   A    
C36   C41   A    
C35   C38   A    
C33   N3    A    
C5    H1    S    
O20   C61   A    
C37   C44   A    
C27   H8    S    
N4    C46   A    
C3    C29   S    
O3    C4    A    
C23   C64   S    
C59   C60   D    
C35   C36   A    
O6    V2    S    
C50   C51   A    
N2    C26   S    
C68   N8    T    
C34   O16   S    
C21   H4    S    
C70   N10   T    
O2    V1    S    
O25   V4    S    
O26   V4    S    
C22   H5    S    
C69   N9    T    
C10   C15   A    
C29   C30   A    
C61   O24   A    
C23   C24   A    
O1    C2    A    
O23   V3    S    
C33   O15   S    
C16   C17   A    
C42   C43   A    
O5    V1    S    
O21   V3    S    
O27   V4    S    
O8    C3    A    
C56   C57   A    
C71   N11   T    
C8    O12   S    
C59   H17   S    
V3    O28   S    
C13   C70   S    
C17   C18   A    
C6    H2    S    
O9    V2    S    
O7    V2    S    
C41   C42   A    
O3    V1    S    
V1    O10   S    
C34   C35   A    
N1    C32   S    
C30   H10   S    
C15   C16   A    
O22   C62   A    
C46   O18   S    
C53   C54   A    
C5    C6    D    
C39   C40   A    
O19   V4    S    
N4    C52   S    
N3    C34   A    
O4    V1    S    
C7    O11   S    
C25   H7    S    
C40   C45   A    
C67   N7    T    
C16   C20   A    
C51   H15   S    
C7    N1    A    
C12   C13   A    
C60   C69   S    
