data_mof_unit_8617.cif
_audit_creation_date              2013-03-05T15:47:25-0500
_audit_creation_method            fapswitch 2.2
_symmetry_space_group_name_H-M    P1
_symmetry_Int_Tables_number       1
_space_group_crystal_system       triclinic
_cell_length_a                    18.045347
_cell_length_b                    18.647983
_cell_length_c                    11.835578
_cell_angle_alpha                 88.95073
_cell_angle_beta                  76.552463
_cell_angle_gamma                 89.826311
_cell_volume                      3872.93485868

loop_
_atom_site_label
_atom_site_type_symbol
_atom_site_description
_atom_site_fract_x
_atom_site_fract_y
_atom_site_fract_z
_atom_type_partial_charge
O1    O     O_R   0.430030 0.075530 0.417420 -0.523302
O2    O     O_R   0.569970 0.924470 0.582580 -0.523250
O3    O     O_R   0.569970 0.075530 0.582580 -0.558185
O4    O     O_R   0.430030 0.924470 0.417420 -0.558222
O5    O     O_R   0.930030 0.575530 0.417420 -0.523133
O6    O     O_R   0.069970 0.424470 0.582580 -0.523195
O7    O     O_R   0.069970 0.575530 0.582580 -0.558903
O8    O     O_R   0.930030 0.424470 0.417420 -0.558198
O9    O     O_R   0.416860 0.075510 0.614610 -0.543122
O10   O     O_R   0.583140 0.924490 0.385390 -0.543108
O11   O     O_R   0.583140 0.075510 0.385390 -0.529481
O12   O     O_R   0.416860 0.924490 0.614610 -0.529473
O13   O     O_R   0.916860 0.575510 0.614610 -0.543407
O14   O     O_R   0.083140 0.424490 0.385390 -0.543100
O15   O     O_R   0.083140 0.575510 0.385390 -0.529262
O16   O     O_R   0.916860 0.424490 0.614610 -0.529408
C1    C     C_R   0.401110 0.101003 0.520181 0.869407
C2    C     C_R   0.598909 0.899010 0.479819 0.869309
C3    C     C_R   0.599227 0.101161 0.478417 0.881561
C4    C     C_R   0.400771 0.898840 0.521585 0.881602
C5    C     C_R   0.901093 0.600978 0.520178 0.868039
C6    C     C_R   0.098890 0.398999 0.479820 0.869484
C7    C     C_R   0.099185 0.601196 0.478427 0.880246
C8    C     C_R   0.900779 0.398834 0.521582 0.881533
C9    C     C_R   0.409463 0.006398 0.864164 0.503009
C10   C     C_R   0.590538 0.993603 0.135838 0.503031
C11   C     C_R   0.909458 0.506372 0.864161 0.503257
C12   C     C_R   0.090537 0.493611 0.135834 0.503011
Cu1   Cu    Cu3+1 0.507800 0.000000 0.383250 1.131851
Cu2   Cu    Cu3+1 0.492200 1.000000 0.616750 1.131878
Cu3   Cu    Cu3+1 0.007800 0.500000 0.383250 1.131827
Cu4   Cu    Cu3+1 0.992200 0.500000 0.616750 1.131568
C13   C     C_R   0.398824 0.002099 0.986641 0.008303
C14   C     C_R   0.601178 0.997890 0.013358 0.008264
C15   C     C_R   0.898820 0.502095 0.986643 0.008214
C16   C     C_R   0.101175 0.497921 0.013358 0.008307
C17   C     C_R   0.542663 0.990303 0.840073 0.490377
C18   C     C_R   0.457337 0.009691 0.159925 0.490348
C19   C     C_R   0.042665 0.490326 0.840073 0.490288
C20   C     C_R   0.957335 0.509699 0.159929 0.490317
C21   C     C_R   0.652142 0.161577 0.466343 -0.148489
C22   C     C_R   0.347840 0.838435 0.533667 -0.148490
C23   C     C_R   0.350353 0.162295 0.529216 -0.155717
C24   C     C_R   0.649661 0.837708 0.470800 -0.155674
C25   C     C_R   0.152081 0.661627 0.466366 -0.148749
C26   C     C_R   0.847874 0.338411 0.533651 -0.148547
C27   C     C_R   0.850310 0.662234 0.529219 -0.155725
C28   C     C_R   0.149650 0.337709 0.470782 -0.155819
C29   C     C_R   0.289039 0.729775 0.631834 0.076370
C30   C     C_R   0.710853 0.270295 0.368264 0.076372
C31   C     C_R   0.686072 0.716824 0.406444 0.076910
C32   C     C_R   0.313835 0.283131 0.593714 0.076839
C33   C     C_R   0.789173 0.229685 0.631717 0.076395
C34   C     C_R   0.210867 0.770297 0.368213 0.076654
C35   C     C_R   0.186165 0.216874 0.406287 0.076860
C36   C     C_R   0.813899 0.783093 0.593623 0.077064
C37   C     C_R   0.340144 0.787546 0.625219 0.367409
C38   C     C_R   0.659782 0.212500 0.374851 0.367345
C39   C     C_R   0.639236 0.777375 0.406739 0.363388
C40   C     C_R   0.360712 0.222604 0.593376 0.363419
C41   C     C_R   0.840240 0.287484 0.625136 0.367416
C42   C     C_R   0.159797 0.712500 0.374788 0.368032
C43   C     C_R   0.139282 0.277397 0.406639 0.363457
C44   C     C_R   0.860846 0.722605 0.593065 0.363852
C45   C     C_R   0.306056 0.831524 0.449300 -0.229693
C46   C     C_R   0.693959 0.168468 0.550670 -0.229747
C47   C     C_R   0.707369 0.839601 0.530341 -0.191447
C48   C     C_R   0.292681 0.160403 0.469619 -0.191572
C49   C     C_R   0.806059 0.331515 0.449321 -0.229758
C50   C     C_R   0.193836 0.668563 0.550766 -0.229671
C51   C     C_R   0.207325 0.339604 0.530373 -0.191544
C52   C     C_R   0.792545 0.660298 0.469813 -0.191246
C53   C     C_R   0.254304 0.775623 0.453857 0.071283
C54   C     C_R   0.745687 0.224387 0.546132 0.071246
C55   C     C_R   0.755434 0.780980 0.531249 0.068840
C56   C     C_R   0.244577 0.218993 0.468753 0.069038
C57   C     C_R   0.754336 0.275594 0.453854 0.071252
C58   C     C_R   0.245588 0.724461 0.546207 0.071335
C59   C     C_R   0.255427 0.281012 0.531243 0.069055
C60   C     C_R   0.744503 0.718932 0.468869 0.069023
N1    N     N_R   0.519530 1.000000 0.207810 -0.302136
N2    N     N_R   0.480470 0.000000 0.792190 -0.302133
N3    N     N_R   0.019530 0.500000 0.207810 -0.302128
N4    N     N_R   0.980470 0.500000 0.792190 -0.302131
H1    H     H_    0.685723 0.128985 0.620167 0.215989
H2    H     H_    0.314339 0.870975 0.379752 0.215980
H3    H     H_    0.285764 0.111950 0.424655 0.221440
H4    H     H_    0.714365 0.888081 0.575194 0.221259
H5    H     H_    0.185549 0.629118 0.620325 0.216012
H6    H     H_    0.814291 0.371000 0.379826 0.216010
H7    H     H_    0.785560 0.611811 0.424973 0.221224
H8    H     H_    0.214241 0.388058 0.575335 0.221438
C61   C     C_R   0.536557 0.997035 0.962698 -0.149776
C62   C     C_R   0.463445 0.002955 0.037300 -0.149760
C63   C     C_R   0.036555 0.497060 0.962699 -0.149751
C64   C     C_R   0.963441 0.502969 0.037302 -0.149770
N5    N     N_R   0.655548 0.982600 0.184101 0.134190
O17   O     O_R   0.690259 0.921027 0.169856 -0.309504
O18   O     O_R   0.692019 0.037680 0.209911 -0.331766
N6    N     N_R   0.344453 0.017422 0.815907 0.134197
O19   O     O_R   0.309747 0.078996 0.830184 -0.309361
O20   O     O_R   0.307979 0.962355 0.790061 -0.331717
N7    N     N_R   0.155548 0.482583 0.184088 0.134229
O21   O     O_R   0.190255 0.421010 0.169798 -0.309363
O22   O     O_R   0.192021 0.537647 0.209946 -0.331662
N8    N     N_R   0.844440 0.517321 0.815894 0.134317
O23   O     O_R   0.809680 0.578870 0.830138 -0.309411
O24   O     O_R   0.807996 0.462208 0.790138 -0.331767
N9    N     N_R   0.389486 0.039282 0.230025 0.121662
O25   O     O_R   0.341946 0.999491 0.304363 -0.440877
O26   O     O_R   0.373221 0.106237 0.214505 -0.356858
N10   N     N_R   0.610512 0.960710 0.769968 0.121676
O27   O     O_R   0.658055 0.000500 0.695634 -0.440875
O28   O     O_R   0.626755 0.893745 0.785444 -0.356961
N11   N     N_R   0.889477 0.539273 0.230047 0.121717
O29   O     O_R   0.841948 0.499466 0.304375 -0.440854
O30   O     O_R   0.873203 0.606232 0.214586 -0.356755
N12   N     N_R   0.110522 0.460743 0.769971 0.121690
O31   O     O_R   0.158056 0.500540 0.695632 -0.440742
O32   O     O_R   0.126799 0.393792 0.785493 -0.356870
N13   N     N_R   0.613398 0.207247 0.291929 0.129111
O33   O     O_R   0.644067 0.190791 0.184878 -0.311164
O34   O     O_R   0.540133 0.216956 0.324183 -0.316691
N14   N     N_R   0.386505 0.792805 0.708172 0.129129
O35   O     O_R   0.355817 0.809290 0.815204 -0.311216
O36   O     O_R   0.459766 0.783063 0.675968 -0.316609
N15   N     N_R   0.420488 0.223033 0.654704 0.118028
O37   O     O_R   0.404234 0.218258 0.767576 -0.287617
O38   O     O_R   0.491066 0.229819 0.597859 -0.363813
N16   N     N_R   0.579428 0.776946 0.345476 0.117954
O39   O     O_R   0.595637 0.781787 0.232610 -0.287747
O40   O     O_R   0.508872 0.770055 0.402368 -0.363803
N17   N     N_R   0.113520 0.707179 0.291727 0.129145
O41   O     O_R   0.144309 0.690741 0.184709 -0.311367
O42   O     O_R   0.040241 0.716840 0.323803 -0.316042
N18   N     N_R   0.886626 0.292737 0.708056 0.129128
O43   O     O_R   0.855953 0.309158 0.815122 -0.311139
O44   O     O_R   0.959894 0.283055 0.675791 -0.316661
N19   N     N_R   0.921043 0.723196 0.653536 0.116752
O45   O     O_R   0.905458 0.716760 0.766265 -0.287925
O46   O     O_R   0.991230 0.732594 0.596154 -0.362696
N20   N     N_R   0.079479 0.276957 0.345366 0.117958
O47   O     O_R   0.095686 0.281841 0.232512 -0.287617
O48   O     O_R   0.008935 0.269966 0.402230 -0.363707
C65   C     C_3   0.782663 0.172921 0.727212 -0.738005
H9    H     H_    0.795446 0.119256 0.688254 0.230810
H10   H     H_    0.822724 0.180570 0.783978 0.279751
H11   H     H_    0.724095 0.173246 0.783394 0.237430
C66   C     C_3   0.217439 0.827023 0.272649 -0.737857
H12   H     H_    0.204669 0.880706 0.311542 0.230872
H13   H     H_    0.276018 0.826659 0.216509 0.237377
H14   H     H_    0.177395 0.819368 0.215858 0.279751
C67   C     C_3   0.172556 0.149958 0.342745 -0.698758
H15   H     H_    0.223351 0.138732 0.272195 0.265635
H16   H     H_    0.161130 0.103591 0.404545 0.222031
H17   H     H_    0.123011 0.154110 0.302679 0.271651
C68   C     C_3   0.827410 0.849902 0.657481 -0.698688
H18   H     H_    0.776464 0.861149 0.727753 0.265239
H19   H     H_    0.876708 0.845548 0.698082 0.271930
H20   H     H_    0.839098 0.896314 0.595795 0.222405
C69   C     C_3   0.282459 0.673053 0.727406 -0.738112
H21   H     H_    0.295225 0.619367 0.688522 0.230802
H22   H     H_    0.322495 0.680710 0.784209 0.279768
H23   H     H_    0.223877 0.673424 0.783541 0.237467
C70   C     C_3   0.717375 0.327050 0.272755 -0.738077
H24   H     H_    0.775948 0.326723 0.216591 0.237453
H25   H     H_    0.677327 0.319391 0.215971 0.279749
H26   H     H_    0.704583 0.380717 0.311698 0.230786
C71   C     C_3   0.672400 0.649891 0.342988 -0.699028
H27   H     H_    0.660915 0.603559 0.404855 0.221979
H28   H     H_    0.622870 0.654067 0.302891 0.271655
H29   H     H_    0.723193 0.638592 0.272471 0.265560
C72   C     C_3   0.327455 0.350054 0.657231 -0.698870
H30   H     H_    0.338872 0.396416 0.595416 0.221965
H31   H     H_    0.276668 0.361286 0.727793 0.265688
H32   H     H_    0.377012 0.345912 0.697271 0.271616
C73   C     C_3   0.318732 0.989059 0.059272 -0.619410
H33   H     H_    0.279496 0.968415 0.008150 0.253702
H34   H     H_    0.319524 0.946400 0.125339 0.225766
H35   H     H_    0.293523 0.039321 0.099789 0.270329
C74   C     C_3   0.681273 0.010908 0.940721 -0.619511
H36   H     H_    0.720524 0.031529 0.991836 0.253705
H37   H     H_    0.706460 0.960641 0.900194 0.270271
H38   H     H_    0.680493 0.053575 0.874662 0.225802
C75   C     C_3   0.818729 0.489063 0.059286 -0.619538
H39   H     H_    0.779477 0.468434 0.008180 0.253714
H40   H     H_    0.819521 0.446397 0.125341 0.225800
H41   H     H_    0.793533 0.539325 0.099818 0.270302
C76   C     C_3   0.181265 0.510977 0.940731 -0.619449
H42   H     H_    0.220493 0.531631 0.991857 0.253702
H43   H     H_    0.206486 0.460719 0.900213 0.270332
H44   H     H_    0.180465 0.553634 0.874664 0.225760

loop_
_geom_bond_atom_site_label_1
_geom_bond_atom_site_label_2
_geom_bond_distance
_ccdc_geom_bond_type
C6    C28   1.452345 S    
C39   N16   1.433469 S    
Cu2   N2    2.037636 S    
C61   C62   1.411856 A    
C7    C25   1.462426 S    
O2    C2    1.304449 A    
N11   O30   1.301253 A    
C71   H27   1.110378 S    
O16   C8    1.301588 A    
O13   Cu4   1.958279 S    
O6    Cu4   1.965141 S    
C63   C64   1.411869 A    
C16   C63   1.430099 A    
C14   C61   1.430110 A    
O14   Cu3   1.958279 S    
C13   C62   1.430100 A    
C65   H11   1.110140 S    
C46   H1    1.078148 S    
N10   O28   1.301245 A    
C69   H21   1.110551 S    
C45   C53   1.393598 A    
C45   H2    1.078149 S    
C72   H30   1.110377 S    
O11   C3    1.301583 A    
C47   H4    1.079110 S    
C70   H24   1.110139 S    
O3    Cu2   1.960616 S    
C42   N17   1.435109 S    
C11   N4    1.369995 A    
C19   N4    1.379937 A    
N9    O26   1.301250 A    
O7    C7    1.305464 A    
C75   H40   1.107612 S    
C20   N11   1.425597 S    
C50   C58   1.393574 A    
N8    O23   1.301054 A    
C24   C39   1.405340 A    
N11   O29   1.299823 A    
C46   C54   1.393600 A    
N5    O17   1.301060 A    
C25   C42   1.409655 A    
Cu3   N3    2.037635 S    
C29   C58   1.423181 A    
C14   C74   1.517751 S    
C76   H43   1.108074 S    
C31   C60   1.422273 A    
C17   N10   1.425556 S    
C32   C40   1.407953 A    
N5    O18   1.300209 A    
N12   O31   1.299834 A    
C33   C41   1.409463 A    
C10   C14   1.418115 A    
C68   H18   1.109275 S    
C51   H8    1.079067 S    
C33   C54   1.423185 A    
C23   C48   1.387233 A    
C26   C49   1.391999 A    
C54   C57   1.418604 A    
C35   C43   1.407946 A    
C22   C45   1.392014 A    
C53   C58   1.418593 A    
C36   C44   1.407820 A    
O3    C3    1.305481 A    
C67   H16   1.110376 S    
C32   C59   1.422303 A    
C55   C60   1.422396 A    
C29   C69   1.518854 S    
O4    Cu1   1.960618 S    
O15   C7    1.301627 A    
C70   H25   1.106520 S    
C36   C55   1.422381 A    
C12   N3    1.369979 A    
C71   H28   1.107087 S    
C20   N3    1.379971 A    
O12   C4    1.301578 A    
C20   C64   1.437555 A    
C22   C37   1.409640 A    
C51   C59   1.394772 A    
N10   O27   1.299829 A    
C69   H22   1.106520 S    
C65   H9    1.110549 S    
C34   C66   1.518845 S    
C74   H37   1.108073 S    
Cu4   N4    2.037636 S    
O11   Cu1   1.964860 S    
C65   H10   1.106522 S    
C26   C41   1.409629 A    
C13   C73   1.517747 S    
C16   C76   1.517742 S    
C30   C38   1.409448 A    
C12   N7    1.431979 S    
C31   C71   1.518289 S    
N18   O44   1.301059 A    
C66   H14   1.106523 S    
C27   C44   1.404940 A    
C52   H7    1.079111 S    
C28   C43   1.405313 A    
C34   C42   1.409472 A    
C11   N8    1.431995 S    
C73   H34   1.107615 S    
C15   C64   1.430118 A    
C67   H17   1.107074 S    
O5    C5    1.304335 A    
C74   H36   1.106803 S    
C76   H44   1.107615 S    
N16   O40   1.300023 A    
N15   O38   1.300019 A    
Cu1   N1    2.037635 S    
C36   C68   1.518168 S    
C2    C24   1.452448 S    
C34   C53   1.423187 A    
C33   C65   1.518843 S    
C9    N6    1.431979 S    
Cu3   Cu4   2.711997 S    
C15   C75   1.517757 S    
C73   H35   1.108075 S    
C18   C62   1.437529 A    
C30   C70   1.518843 S    
O1    Cu1   1.965139 S    
C17   C61   1.437538 A    
N7    O22   1.300203 A    
C48   C56   1.394768 A    
C18   N9    1.425557 S    
C19   C63   1.437531 A    
N13   O33   1.301098 A    
C72   H31   1.109284 S    
O9    Cu2   1.958279 S    
C35   C56   1.422310 A    
C23   C40   1.405343 A    
O9    C1    1.297425 A    
C10   N1    1.369985 A    
C18   N1    1.379948 A    
N17   O41   1.301104 A    
C71   H29   1.109301 S    
N20   O48   1.299912 A    
C17   N2    1.379948 A    
C50   H5    1.078154 S    
C47   C55   1.394839 A    
C28   C51   1.387224 A    
C49   H6    1.078141 S    
C30   C57   1.423182 A    
C69   H23   1.110146 S    
N14   O36   1.301061 A    
N6    O20   1.300208 A    
C72   H32   1.107081 S    
C35   C67   1.518281 S    
C38   N13   1.435086 S    
O7    Cu4   1.960616 S    
C74   H38   1.107617 S    
O12   Cu2   1.964863 S    
C25   C50   1.392022 A    
O8    Cu3   1.960618 S    
C40   N15   1.433487 S    
N18   O43   1.301101 A    
C75   H41   1.108070 S    
C21   C38   1.409624 A    
C29   C37   1.409446 A    
C4    C22   1.462436 S    
N19   O45   1.301321 A    
O15   Cu3   1.964860 S    
C21   C46   1.392002 A    
C68   H20   1.110383 S    
C70   H26   1.110549 S    
C19   N12   1.425568 S    
O1    C1    1.304470 A    
O2    Cu2   1.965141 S    
C11   C15   1.418135 A    
O14   C6    1.297423 A    
C66   H13   1.110142 S    
N16   O39   1.300837 A    
C8    C26   1.462422 S    
C52   C60   1.394840 A    
C66   H12   1.110550 S    
O13   C5    1.297425 A    
C37   N14   1.435093 S    
N19   O46   1.301156 A    
O10   Cu1   1.958279 S    
C49   C57   1.393591 A    
C75   H39   1.106795 S    
C9    N2    1.369984 A    
N8    O24   1.300209 A    
O10   C2    1.297488 A    
O16   Cu4   1.964863 S    
C1    C23   1.452370 S    
N6    O19   1.301060 A    
O8    C8    1.305477 A    
C43   N20   1.433468 S    
C76   H42   1.106809 S    
N12   O32   1.301248 A    
C27   C52   1.387179 A    
N13   O34   1.301056 A    
C10   N5    1.431973 S    
Cu1   Cu2   2.711997 S    
O4    C4    1.305493 A    
C3    C21   1.462417 S    
C56   C59   1.422306 A    
C31   C39   1.407937 A    
C12   C16   1.418093 A    
C68   H19   1.107189 S    
C73   H33   1.106808 S    
N7    O21   1.301056 A    
N17   O42   1.301058 A    
C48   H3    1.079063 S    
N20   O47   1.300744 A    
C24   C47   1.387351 A    
C5    C27   1.452086 S    
C67   H15   1.109277 S    
N9    O25   1.299830 A    
C32   C72   1.518287 S    
N15   O37   1.300836 A    
C41   N18   1.435091 S    
C9    C13   1.418098 A    
N14   O35   1.301103 A    
O5    Cu3   1.965139 S    
C44   N19   1.433304 S    
O6    C6    1.304463 A    
