data_mof_unit_36560.cif
_audit_creation_date              2012-10-26T20:35:02-0400
_audit_creation_method            fapswitch 2.2
_symmetry_space_group_name_H-M    P1
_symmetry_Int_Tables_number       1
_space_group_crystal_system       triclinic
_cell_length_a                    8.71316
_cell_length_b                    17.688715
_cell_length_c                    16.671401
_cell_angle_alpha                 89.94306
_cell_angle_beta                  97.300137
_cell_angle_gamma                 95.134495
_cell_volume                      2538.27843931

loop_
_atom_site_label
_atom_site_type_symbol
_atom_type_description
_atom_site_fract_x
_atom_site_fract_y
_atom_site_fract_z
_atom_type_partial_charge
C1    C     C_R   0.500540 0.355770 0.500308 0.532925
C2    C     C_R   0.599471 0.553486 0.262858 0.161355
C3    C     C_R   0.392861 0.450852 0.824530 0.023426
C4    C     C_R   0.589711 0.560473 0.175881 0.024774
C5    C     C_R   0.497962 0.501494 0.873835 0.002590
C6    C     C_R   0.507136 0.502653 0.126079 0.003442
C7    C     C_1   0.503807 0.502775 0.963174 -0.040876
C8    C     C_1   0.505404 0.502169 0.036962 -0.039345
C9    C     C_R   0.203681 0.497258 0.479685 0.540508
C10   C     C_R   0.796135 0.499917 0.520573 0.542866
C11   C     C_2   0.037592 0.490673 0.469359 -0.171102
C12   C     C_R   0.503437 0.644689 0.500206 0.538831
C13   C     C_2   0.962023 0.501495 0.532230 -0.162646
C14   C     C_R   0.564401 0.847364 0.577107 0.019163
C15   C     C_R   0.402262 0.146101 0.463727 0.024057
C16   C     C_R   0.547372 0.767980 0.574975 -0.131744
C17   C     C_R   0.391695 0.224447 0.463183 -0.138231
C18   C     C_R   0.515672 0.728184 0.501225 -0.022693
C19   C     C_R   0.511414 0.273903 0.502363 -0.013376
C20   C     C_R   0.501331 0.768422 0.428638 -0.135454
C21   C     C_R   0.641379 0.245132 0.545408 -0.128767
C22   C     C_R   0.516115 0.847910 0.428945 0.018106
C23   C     C_1   0.550204 0.968903 0.505398 -0.045256
C24   C     C_R   0.655493 0.166825 0.547363 0.018886
C25   C     C_R   0.546827 0.887544 0.503721 0.059791
C26   C     C_R   0.535525 0.117048 0.505642 0.054906
C27   C     C_3   0.602942 0.887674 0.658224 -0.275801
C28   C     C_3   0.775842 0.913958 0.674260 -0.442583
C29   C     C_3   0.270383 0.095675 0.417818 -0.277157
C30   C     C_3   0.288772 0.092794 0.328130 -0.443593
C31   C     C_3   0.496675 0.888869 0.348947 -0.275455
C32   C     C_3   0.653024 0.922334 0.326490 -0.438684
C33   C     C_3   0.798837 0.138146 0.594191 -0.273925
C34   C     C_1   0.547050 0.036548 0.506192 -0.046518
C35   C     C_3   0.914560 0.118355 0.537738 -0.443320
C36   C     C_3   0.727131 0.603928 0.721993 -0.235370
C37   C     C_3   0.889684 0.579589 0.748322 -0.453065
C38   C     C_3   0.238987 0.418052 0.264426 -0.222304
C39   C     C_3   0.243466 0.345041 0.312415 -0.397762
C40   C     C_3   0.298582 0.384840 0.690348 -0.229790
C41   C     C_3   0.368770 0.308351 0.702457 -0.435761
C42   C     C_3   0.723483 0.606675 0.312366 -0.231272
C43   C     C_3   0.888018 0.588560 0.299798 -0.448851
C44   C     C_3   0.272473 0.401778 0.865913 -0.280552
C45   C     C_R   0.600714 0.550011 0.836497 -0.144451
C46   C     C_3   0.138740 0.447246 0.882208 -0.443785
C47   C     C_3   0.656769 0.630915 0.134227 -0.277995
C48   C     C_3   0.528148 0.680504 0.101950 -0.443463
C49   C     C_R   0.414564 0.448352 0.162324 -0.154129
C50   C     C_R   0.602823 0.549228 0.751637 0.154935
C51   C     C_R   0.396216 0.453164 0.245501 0.151557
C52   C     C_R   0.399372 0.448415 0.738236 0.162653
Cu1   Cu    Cu3+1 0.499990 0.499980 0.580420 0.896483
Cu2   Cu    Cu3+1 0.500010 0.500020 0.419580 0.908943
H1    H     H_    0.561283 0.737199 0.631255 0.117177
H2    H     H_    0.811211 0.952142 0.625680 0.157724
H3    H     H_    0.800806 0.945224 0.732845 0.127749
H4    H     H_    0.533067 0.936982 0.660664 0.144013
H5    H     H_    0.572953 0.849283 0.707874 0.128970
H6    H     H_    0.282913 0.150216 0.301466 0.147917
H7    H     H_    0.401978 0.071652 0.319687 0.155176
H8    H     H_    0.193818 0.053927 0.295835 0.128524
H9    H     H_    0.263729 0.037106 0.441863 0.145083
H10   H     H_    0.157513 0.117932 0.424836 0.131070
H11   H     H_    0.709616 0.965018 0.372150 0.156016
H12   H     H_    0.287843 0.246293 0.433461 0.091225
H13   H     H_    0.731068 0.876583 0.322016 0.147933
H14   H     H_    0.635056 0.950656 0.266998 0.128224
H15   H     H_    0.441676 0.849364 0.299562 0.127220
H16   H     H_    0.417626 0.934386 0.351817 0.145520
H17   H     H_    0.863021 0.072307 0.494773 0.153450
H18   H     H_    0.950334 0.169225 0.503118 0.146534
H19   H     H_    0.019433 0.098819 0.573846 0.130899
H20   H     H_    0.857750 0.182002 0.638159 0.129354
H21   H     H_    0.765704 0.087832 0.630199 0.142470
H22   H     H_    0.897786 0.520965 0.726611 0.165715
H23   H     H_    0.478274 0.737862 0.371445 0.122064
H24   H     H_    0.977147 0.618335 0.722025 0.132229
H25   H     H_    0.917691 0.581909 0.815163 0.133959
H26   H     H_    0.715718 0.610685 0.656624 0.206023
H27   H     H_    0.719492 0.661511 0.747054 0.094807
H28   H     H_    0.351772 0.317554 0.307694 0.165381
H29   H     H_    0.230097 0.357402 0.376069 0.164968
H30   H     H_    0.143494 0.304134 0.289099 0.100915
H31   H     H_    0.173088 0.460248 0.290415 0.159414
H32   H     H_    0.161871 0.403230 0.207073 0.091240
H33   H     H_    0.491432 0.313213 0.690227 0.180810
H34   H     H_    0.732928 0.284062 0.576466 0.108863
H35   H     H_    0.367749 0.287278 0.764917 0.123385
H36   H     H_    0.301282 0.265228 0.660460 0.130958
H37   H     H_    0.178428 0.380678 0.706353 0.094674
H38   H     H_    0.278524 0.394836 0.625772 0.205017
H39   H     H_    0.892570 0.526493 0.292736 0.149750
H40   H     H_    0.927430 0.615842 0.245361 0.128155
H41   H     H_    0.972216 0.609743 0.352328 0.142943
H42   H     H_    0.706170 0.666781 0.297893 0.098280
H43   H     H_    0.719092 0.605658 0.376855 0.211842
H44   H     H_    0.181398 0.498017 0.920438 0.159077
H45   H     H_    0.681670 0.589295 0.874225 0.101070
H46   H     H_    0.077588 0.465534 0.824072 0.144889
H47   H     H_    0.054993 0.411223 0.913964 0.134363
H48   H     H_    0.221428 0.350418 0.831701 0.134112
H49   H     H_    0.327527 0.379375 0.923797 0.144146
H50   H     H_    0.440779 0.649181 0.056885 0.159670
H51   H     H_    0.469168 0.699741 0.152590 0.143911
H52   H     H_    0.579234 0.731255 0.072224 0.128631
H53   H     H_    0.743122 0.668116 0.173213 0.134107
H54   H     H_    0.718861 0.613848 0.083843 0.143035
H55   H     H_    0.341187 0.407174 0.123152 0.098484
H56   H     H_    0.976957 0.475857 0.410013 0.118840
H57   H     H_    0.022509 0.513401 0.592650 0.122152
H58   H     H_    0.845489 0.864165 0.677314 0.148994
N1    N     N_R   0.499960 0.499970 0.701210 -0.219014
N2    N     N_R   0.500040 0.500030 0.298790 -0.212148
O1    O     O_R   0.499990 0.391240 0.567930 -0.514402
O2    O     O_R   0.500010 0.608760 0.432070 -0.520216
O3    O     O_R   0.500000 0.391270 0.432120 -0.488977
O4    O     O_R   0.500000 0.608730 0.567880 -0.514428
O5    O     O_R   0.274830 0.499990 0.552240 -0.512725
O6    O     O_R   0.725170 0.500010 0.447760 -0.506892
O7    O     O_R   0.274840 0.500020 0.416420 -0.505220
O8    O     O_R   0.725160 0.499980 0.583580 -0.510217

loop_
_geom_bond_atom_site_label_1
_geom_bond_atom_site_label_2
_ccdc_geom_bond_type
C41   H35   S    
C29   H9    S    
Cu2   O6    S    
C2    N2    A    
C28   H2    S    
C7    C8    T    
Cu1   Cu2   S    
C28   H58   S    
C37   H25   S    
C17   H12   S    
C20   H23   S    
C38   H32   S    
C42   H42   S    
C36   C37   S    
C19   C21   A    
C24   C26   A    
C39   H30   S    
Cu1   O8    S    
C38   C39   S    
C48   H50   S    
C43   H40   S    
C43   H39   S    
C33   H21   S    
C31   H16   S    
C48   H52   S    
C48   H51   S    
Cu1   N1    S    
C49   C51   A    
C22   C25   A    
Cu2   O2    S    
C43   H41   S    
C14   C27   S    
C32   H14   S    
C41   H36   S    
C46   H44   S    
C21   H34   S    
C35   H17   S    
C40   H37   S    
C28   H3    S    
C11   H56   S    
C44   H49   S    
C44   C46   S    
C15   C29   S    
C41   H33   S    
C46   H47   S    
C3    C44   S    
C1    C19   S    
C51   N2    A    
C22   C31   S    
C38   H31   S    
C4    C6    A    
C45   H45   S    
C42   H43   S    
C5    C7    S    
C44   H48   S    
Cu1   O4    S    
C17   C19   A    
C15   C26   A    
C6    C8    S    
C38   C51   S    
C10   O8    A    
C40   C52   S    
C5    C45   A    
C27   H4    S    
C30   H6    S    
C2    C4    A    
C29   C30   S    
C9    O7    A    
C47   C48   S    
C36   H27   S    
C23   C34   T    
C1    O3    A    
C40   H38   S    
C9    C11   S    
C32   H13   S    
C12   O4    A    
C40   C41   S    
Cu2   O7    S    
C20   C22   A    
C35   H18   S    
C47   H53   S    
C30   H8    S    
C36   H26   S    
C9    O5    A    
C14   C16   A    
Cu2   O3    S    
C42   C43   S    
C21   C24   A    
C36   C50   S    
C49   H55   S    
C15   C17   A    
C46   H46   S    
C35   H19   S    
C26   C34   S    
C37   H22   S    
C31   C32   S    
C39   H28   S    
C3    C5    A    
C10   C13   S    
C3    C52   A    
Cu1   O5    S    
C37   H24   S    
C24   C33   S    
C50   N1    A    
C16   H1    S    
C39   H29   S    
C13   H57   S    
C27   H5    S    
C11   C13   D    
C45   C50   A    
C2    C42   S    
C52   N1    A    
Cu2   N2    S    
C33   C35   S    
C18   C20   A    
C23   C25   S    
C14   C25   A    
C29   H10   S    
C10   O6    A    
C33   H20   S    
C31   H15   S    
C16   C18   A    
C47   H54   S    
C30   H7    S    
C12   C18   S    
C27   C28   S    
C1    O1    A    
C6    C49   A    
Cu1   O1    S    
C32   H11   S    
C12   O2    A    
C4    C47   S    
