data_mof_unit_10367.cif
_audit_creation_date              2012-12-10T17:27:52-0500
_audit_creation_method            fapswitch 2.2
_symmetry_space_group_name_H-M    P1
_symmetry_Int_Tables_number       1
_space_group_crystal_system       triclinic
_cell_length_a                    10.735653
_cell_length_b                    12.065215
_cell_length_c                    12.871697
_cell_angle_alpha                 92.706579
_cell_angle_beta                  92.476973
_cell_angle_gamma                 86.563088
_cell_volume                      1661.02519733

loop_
_atom_site_label
_atom_site_type_symbol
_atom_type_description
_atom_site_fract_x
_atom_site_fract_y
_atom_site_fract_z
_atom_type_partial_charge
C1    C     C_R   0.493684 0.521864 0.699934 0.899337
C2    C     C_R   0.947636 0.481372 0.613720 0.028661
C3    C     C_R   0.873043 0.502068 0.521015 -0.091623
C4    C     C_R   0.927500 0.524126 0.428315 -0.165072
C5    C     C_R   0.054917 0.523571 0.423777 -0.159434
C6    C     C_R   0.129467 0.495789 0.510512 -0.081578
C7    C     C_R   0.513626 0.466344 0.189195 -0.117062
C8    C     C_R   0.497916 0.536325 0.811165 -0.015044
C9    C     C_R   0.566610 0.637797 0.966212 -0.142897
C10   C     C_R   0.545229 0.632094 0.859463 -0.186197
C11   C     C_R   0.466803 0.448602 0.868984 -0.225839
C12   C     C_R   0.739163 0.501785 0.514124 0.912917
C13   C     C_R   0.484823 0.454268 0.975417 0.139206
C14   C     C_R   0.538117 0.548493 0.025336 0.121190
C15   C     C_R   0.559614 0.551265 0.132838 0.198761
C16   C     C_R   0.463931 0.372656 0.138783 -0.223120
C17   C     C_R   0.451429 0.365802 0.031895 -0.195645
C18   C     C_R   0.381991 0.953035 0.396265 -0.164496
C19   C     C_R   0.393437 0.837484 0.408740 0.406835
C20   C     C_R   0.550494 0.858518 0.542129 -0.075202
C21   C     C_R   0.542152 0.975922 0.534388 0.021555
C22   C     C_R   0.455361 0.025201 0.461111 -0.055135
C23   C     C_R   0.507332 0.478820 0.300198 0.943659
C24   C     C_R   0.446923 0.144233 0.456854 0.075768
C25   C     C_R   0.607747 0.160527 0.587737 -0.002846
C26   C     C_R   0.618698 0.045223 0.597728 -0.086708
C27   C     C_R   0.260670 0.499160 0.501665 0.880028
C28   C     C_R   0.901170 0.472004 0.714775 0.207000
C29   C     C_R   0.981177 0.477726 0.803080 -0.113995
C30   C     C_R   0.108167 0.457871 0.792716 -0.217351
C31   C     C_R   0.153567 0.437337 0.693796 -0.051490
C32   C     C_R   0.078529 0.470932 0.605519 0.031729
H1    H     H_    0.870620 0.541950 0.358712 0.185372
H2    H     H_    0.411543 0.293325 0.993690 0.159821
H3    H     H_    0.570666 0.700360 0.814459 0.166496
H4    H     H_    0.431620 0.374289 0.831117 0.163149
H5    H     H_    0.667044 0.213104 0.635205 0.191519
H6    H     H_    0.615698 0.819100 0.597342 0.146998
H7    H     H_    0.944644 0.475419 0.880087 0.184934
H8    H     H_    0.166194 0.438777 0.861367 0.158041
H9    H     H_    0.095836 0.542580 0.351606 0.180182
H10   H     H_    0.431187 0.306129 0.182056 0.187608
H11   H     H_    0.604626 0.712420 0.000997 0.196096
N1    N     N_R   0.523130 0.207800 0.519340 -0.127093
N2    N     N_R   0.476870 0.792180 0.480660 -0.126802
O1    O     O_R   0.506170 0.421690 0.658830 -0.589984
O2    O     O_R   0.491330 0.609320 0.646410 -0.642258
O3    O     O_R   0.690660 0.406170 0.506210 -0.590956
O4    O     O_R   0.675810 0.593790 0.493790 -0.604615
O5    O     O_R   0.508670 0.390680 0.353590 -0.637274
O6    O     O_R   0.493830 0.578310 0.341170 -0.541674
O7    O     O_R   0.324190 0.406210 0.506210 -0.626966
O8    O     O_R   0.309340 0.593830 0.493790 -0.580772
Zn1   Zn    Zn3+2 0.509910 0.374720 0.508290 0.991120
Zn2   Zn    Zn3+2 0.490090 0.625280 0.491710 1.021025
C33   C     C_1   0.356803 0.202769 0.390060 0.248192
N3    N     N_1   0.284029 0.249952 0.336818 -0.203474
C34   C     C_1   0.296688 0.992329 0.313867 0.245789
N4    N     N_1   0.228286 0.022050 0.247491 -0.149554
C35   C     C_1   0.709676 0.000876 0.673204 0.167795
N5    N     N_1   0.782534 0.965403 0.733666 -0.169999
Br1   Br    Br    0.287853 0.744167 0.321719 -0.457554
Br2   Br    Br    0.757274 0.398846 0.741833 -0.567295
C36   C     C_1   0.243850 0.344317 0.685446 0.209664
N6    N     N_1   0.313513 0.267455 0.679434 -0.179461
Br3   Br    Br    0.659276 0.665180 0.200721 -0.503979

loop_
_geom_bond_atom_site_label_1
_geom_bond_atom_site_label_2
_ccdc_geom_bond_type
C6    C32   A    
C9    C14   A    
C27   O8    A    
C29   C30   A    
N1    Zn1   S    
C24   C33   S    
C1    C8    S    
C20   H6    S    
C9    C10   A    
C23   O6    A    
C20   N2    A    
C14   C15   A    
C13   C17   A    
C30   C31   A    
C12   O3    A    
C36   N6    T    
O1    Zn1   S    
C7    C15   A    
C12   O4    A    
C34   N4    T    
C30   H8    S    
C18   C22   A    
C13   C14   A    
C20   C21   A    
O3    Zn1   S    
C11   C13   A    
C29   H7    S    
O5    Zn1   S    
C35   N5    T    
C8    C11   A    
C7    C23   S    
C2    C32   A    
C25   N1    A    
C8    C10   A    
C28   C29   A    
C21   C26   A    
O7    Zn1   S    
C21   C22   A    
C2    C3    A    
O6    Zn2   S    
O8    Zn2   S    
C5    C6    A    
C24   N1    A    
C10   H3    S    
C22   C24   A    
C1    O1    A    
C9    H11   S    
C16   C17   A    
C17   H2    S    
C19   Br1   S    
C3    C4    A    
C28   Br2   S    
C16   H10   S    
C27   O7    A    
N2    Zn2   S    
O2    Zn2   S    
C18   C19   A    
C33   N3    T    
C5    H9    S    
C4    H1    S    
C7    C16   A    
C23   O5    A    
C2    C28   A    
C3    C12   S    
C25   H5    S    
C25   C26   A    
O4    Zn2   S    
C15   Br3   S    
C26   C35   S    
C31   C36   S    
C18   C34   S    
C31   C32   A    
C1    O2    A    
C19   N2    A    
C6    C27   S    
C4    C5    A    
C11   H4    S    
