data_mof_unit_56463.cif
_audit_creation_date              2012-12-10T17:23:41-0500
_audit_creation_method            fapswitch 2.2
_symmetry_space_group_name_H-M    P1
_symmetry_Int_Tables_number       1
_space_group_crystal_system       triclinic
_cell_length_a                    9.607035
_cell_length_b                    10.771389
_cell_length_c                    17.396036
_cell_angle_alpha                 92.542
_cell_angle_beta                  86.377665
_cell_angle_gamma                 90.073716
_cell_volume                      1794.79479676

loop_
_atom_site_label
_atom_site_type_symbol
_atom_type_description
_atom_site_fract_x
_atom_site_fract_y
_atom_site_fract_z
_atom_type_partial_charge
C1    C     C_R   0.499751 0.737371 0.502729 0.827714
C2    C     C_R   0.372204 0.569379 0.775063 -0.248921
C3    C     C_R   0.423630 0.550271 0.147466 -0.202898
C4    C     C_R   0.426111 0.569233 0.226993 0.422774
C5    C     C_R   0.621968 0.424922 0.225520 -0.250416
C6    C     C_R   0.620212 0.409237 0.145879 -0.146057
C7    C     C_R   0.521053 0.471536 0.106471 0.102491
C8    C     C_2   0.473488 0.538103 0.977456 -0.206024
C9    C     C_2   0.520026 0.451398 0.022552 -0.194152
C10   C     C_R   0.524005 0.502682 0.266755 -0.155783
C11   C     C_R   0.343325 0.879421 0.626693 -0.183330
C12   C     C_R   0.482304 0.498192 0.649310 0.770696
C13   C     C_R   0.267615 0.948495 0.684701 -0.136543
C14   C     C_R   0.267617 0.077632 0.684647 -0.130957
C15   C     C_R   0.343239 0.138495 0.626554 -0.182110
C16   C     C_R   0.419094 0.070362 0.566411 0.099725
C17   C     C_R   0.419196 0.939061 0.566525 0.089973
C18   C     C_R   0.499416 0.871550 0.507820 -0.089814
C19   C     C_R   0.582224 0.932542 0.452573 -0.133754
C20   C     C_R   0.581993 0.060598 0.452382 -0.206714
C21   C     C_R   0.499077 0.129490 0.507498 -0.086699
C22   C     C_R   0.867760 0.334495 0.397753 -0.139542
C23   C     C_R   0.499680 0.262920 0.502247 0.755025
C24   C     C_R   0.945547 0.253672 0.347734 -0.213492
C25   C     C_R   0.089003 0.253838 0.347645 -0.175497
C26   C     C_R   0.155533 0.334736 0.397636 -0.094405
C27   C     C_R   0.080473 0.418680 0.449739 0.234161
C28   C     C_R   0.930966 0.418679 0.449762 0.221562
C29   C     C_R   0.920793 0.577359 0.547830 -0.035882
C30   C     C_R   0.068640 0.577336 0.547807 -0.033001
C31   C     C_R   0.517452 0.503299 0.350681 0.842440
C32   C     C_R   0.474653 0.497607 0.733091 -0.034985
C33   C     C_R   0.574689 0.432417 0.771574 0.146365
C34   C     C_R   0.573884 0.445033 0.851828 -0.176843
C35   C     C_R   0.472840 0.519166 0.893599 0.148509
C36   C     C_R   0.372069 0.580830 0.854891 -0.164304
Cu1   Cu    Cu3+1 0.359340 0.500010 0.500010 0.979116
Cu2   Cu    Cu3+1 0.640660 0.499990 0.499990 0.958683
H1    H     H_    0.695664 0.347668 0.115011 0.140708
H2    H     H_    0.644880 0.880475 0.408239 0.167592
H3    H     H_    0.343743 0.779552 0.630551 0.125967
H4    H     H_    0.210177 0.901611 0.730439 0.129391
H5    H     H_    0.210165 0.130985 0.730352 0.137769
H6    H     H_    0.343494 0.238875 0.630330 0.151097
H7    H     H_    0.644530 0.106218 0.407912 0.137660
H8    H     H_    0.861296 0.640804 0.587075 0.137718
H9    H     H_    0.758636 0.326780 0.392928 0.185998
H10   H     H_    0.893788 0.190477 0.308673 0.148138
H11   H     H_    0.149526 0.190782 0.308501 0.157548
H12   H     H_    0.265826 0.327345 0.392710 0.186521
H13   H     H_    0.119394 0.640786 0.587033 0.126311
H14   H     H_    0.696995 0.372934 0.255176 0.159637
H15   H     H_    0.560640 0.363575 0.997645 0.144761
H16   H     H_    0.293941 0.638786 0.886513 0.138174
H17   H     H_    0.343395 0.595683 0.118076 0.182268
H18   H     H_    0.295322 0.620101 0.745899 0.145766
H19   H     H_    0.433428 0.626207 0.002134 0.157050
H20   H     H_    0.654516 0.399549 0.880990 0.122413
N1    N     N_R   0.852190 0.498790 0.499250 -0.201084
N2    N     N_R   0.148060 0.498710 0.499220 -0.195141
O1    O     O_R   0.381190 0.680360 0.500010 -0.542636
O2    O     O_R   0.618760 0.680340 0.500000 -0.588390
O3    O     O_R   0.367440 0.500030 0.613600 -0.611599
O4    O     O_R   0.605010 0.500010 0.613590 -0.550472
O5    O     O_R   0.381240 0.319660 0.500000 -0.612167
O6    O     O_R   0.618810 0.319640 0.499990 -0.594725
O7    O     O_R   0.394990 0.499990 0.386410 -0.544109
O8    O     O_R   0.632560 0.499970 0.386400 -0.601774
N3    N     N_3   0.676456 0.354187 0.728972 -0.562126
H21   H     H_    0.745354 0.316506 0.765910 0.208558
H22   H     H_    0.623029 0.279349 0.704287 0.209201
S1    S     S_3+6 0.308212 0.679832 0.273032 -0.001358
O9    O     O_2   0.184452 0.613408 0.308923 -0.280660
O10   O     O_2   0.379040 0.754152 0.334383 -0.310318
O11   O     O_3   0.252885 0.776987 0.208235 -0.555479
H23   H     H_    0.187309 0.834404 0.238168 0.374683

loop_
_geom_bond_atom_site_label_1
_geom_bond_atom_site_label_2
_ccdc_geom_bond_type
C30   H13   S    
C16   C21   A    
C35   C36   A    
C1    O2    A    
C31   O7    A    
C1    C18   S    
Cu1   Cu2   S    
C23   O6    A    
C15   H6    S    
C34   C35   A    
C3    C7    A    
C27   N2    A    
C26   H12   S    
C5    C6    A    
C12   O4    A    
C15   C16   A    
C2    C32   A    
C18   C19   A    
N3    H22   S    
C3    H17   S    
C10   C31   S    
C29   N1    A    
C16   C17   A    
C30   N2    A    
C5    H14   S    
C20   H7    S    
C33   N3    S    
C22   H9    S    
C22   C28   A    
C13   C14   A    
C12   C32   S    
S1    O11   S    
C13   H4    S    
Cu1   O3    S    
C33   C34   A    
Cu2   O4    S    
C31   O8    A    
C24   H10   S    
Cu2   O6    S    
C24   C25   A    
S1    O10   D    
C12   O3    A    
C8    C9    D    
C25   C26   A    
Cu1   O5    S    
C8    C35   S    
O11   H23   S    
C29   C30   A    
C8    H19   S    
C17   C18   A    
C26   C27   A    
Cu2   O8    S    
C21   C23   S    
C22   C24   A    
C9    H15   S    
C4    C10   A    
C3    C4    A    
C4    S1    S    
C28   N1    A    
C2    C36   A    
C7    C9    S    
C11   C17   A    
C14   C15   A    
S1    O9    D    
C1    O1    A    
Cu1   O1    S    
C6    C7    A    
C29   H8    S    
C32   C33   A    
C23   O5    A    
C19   C20   A    
C5    C10   A    
C2    H18   S    
C11   C13   A    
Cu1   O7    S    
C11   H3    S    
N3    H21   S    
C25   H11   S    
Cu1   N2    S    
C36   H16   S    
C19   H2    S    
Cu2   N1    S    
C20   C21   A    
C27   C28   A    
C34   H20   S    
C6    H1    S    
C14   H5    S    
Cu2   O2    S    
