data_mof_unit_9676.cif
_audit_creation_date              2012-12-11T15:29:13-0500
_audit_creation_method            fapswitch 2.2
_symmetry_space_group_name_H-M    P1
_symmetry_Int_Tables_number       1
_space_group_crystal_system       triclinic
_cell_length_a                    13.503855
_cell_length_b                    13.506249
_cell_length_c                    27.527001
_cell_angle_alpha                 90.437683
_cell_angle_beta                  89.969135
_cell_angle_gamma                 60.160495
_cell_volume                      4354.75810948

loop_
_atom_site_label
_atom_site_type_symbol
_atom_type_description
_atom_site_fract_x
_atom_site_fract_y
_atom_site_fract_z
_atom_type_partial_charge
C1    C     C_R   0.620382 0.101162 0.569802 0.550104
C2    C     C_1   0.637001 0.727440 0.661438 -0.015793
C3    C     C_3   0.188312 0.046254 0.744123 0.178967
C4    C     C_R   0.598388 0.781543 0.569148 0.549269
C5    C     C_3   0.267495 0.056202 0.782240 -0.158727
C6    C     C_1   0.102886 0.195514 0.901470 0.054965
C7    C     C_1   0.235632 0.132407 0.617921 0.056328
C8    C     C_3   0.081534 0.139618 0.770738 -0.124048
C9    C     C_3   0.160593 0.151890 0.807978 -0.037149
C10   C     C_3   0.087386 0.230230 0.738866 0.278426
C11   C     C_3   0.192634 0.137061 0.712573 -0.000364
C12   C     C_1   0.623821 0.744859 0.618466 0.028306
C13   C     C_3   0.164730 0.242708 0.776247 0.229772
C14   C     C_3   0.271989 0.148519 0.750047 -0.203112
C15   C     C_1   0.134638 0.170548 0.860012 0.034407
C16   C     C_R   0.278627 0.120880 0.569538 0.549071
C17   C     C_1   0.212399 0.134882 0.660243 0.066292
C18   C     C_3   0.567448 0.273678 0.742237 -0.085736
C19   C     C_3   0.557089 0.194706 0.780180 -0.132192
C20   C     C_1   0.690588 0.206809 0.901668 0.062710
C21   C     C_1   0.635747 0.133452 0.617657 0.017372
C22   C     C_3   0.671275 0.265365 0.770049 -0.089302
C23   C     C_3   0.758442 0.612092 0.772115 -0.063063
C24   C     C_3   0.660549 0.186383 0.807242 0.038366
C25   C     C_3   0.753798 0.159367 0.739092 -0.098248
C26   C     C_3   0.650144 0.167808 0.712185 -0.001331
C27   C     C_3   0.741525 0.082224 0.776626 0.224854
C28   C     C_R   0.621136 0.099705 0.430994 0.548515
C29   C     C_3   0.639335 0.088554 0.749193 -0.120084
C30   C     C_1   0.672616 0.196494 0.859624 0.044093
C31   C     C_1   0.643790 0.152724 0.659806 -0.018880
C32   C     C_R   0.623812 0.745987 0.379996 -0.008751
C33   C     C_R   0.702155 0.635925 0.364007 -0.098159
C34   C     C_3   0.664170 0.685391 0.809037 0.006599
C35   C     C_R   0.717019 0.611459 0.314062 0.300765
C36   C     C_R   0.652537 0.700400 0.280799 0.047087
C37   C     C_R   0.577163 0.810525 0.297851 -0.060625
C38   C     C_R   0.562412 0.833103 0.346967 -0.102982
C39   C     C_R   0.562372 0.705955 0.200028 0.265411
C40   C     C_R   0.601736 0.776618 0.430686 0.539853
C41   C     C_R   0.573632 0.697621 0.148927 0.272245
C42   C     C_R   0.777575 0.626767 0.156347 -0.133789
C43   C     C_R   0.763753 0.652153 0.205429 -0.057744
C44   C     C_R   0.659641 0.683006 0.228108 0.038550
C45   C     C_3   0.668559 0.604470 0.739695 -0.062664
C46   C     C_R   0.684545 0.641565 0.128529 -0.001528
C47   C     C_R   0.222924 0.141365 0.383988 0.011713
C48   C     C_R   0.220423 0.051928 0.359005 -0.123594
C49   C     C_R   0.197048 0.061350 0.309655 -0.086266
C50   C     C_R   0.176504 0.160034 0.284612 0.050871
C51   C     C_R   0.170813 0.252439 0.310543 -0.032694
C52   C     C_R   0.278558 0.120633 0.431166 0.542507
C53   C     C_R   0.192569 0.243708 0.359918 -0.069960
C54   C     C_R   0.195246 0.230396 0.203283 -0.080022
C55   C     C_R   0.164848 0.250638 0.154552 -0.108581
C56   C     C_3   0.646928 0.714033 0.714204 -0.015995
C57   C     C_R   0.073882 0.135155 0.161174 -0.088895
C58   C     C_R   0.101012 0.118002 0.209925 -0.071666
C59   C     C_R   0.159241 0.167918 0.231801 0.067633
C60   C     C_R   0.101252 0.205562 0.133655 0.034769
C61   C     C_R   0.635961 0.137379 0.382959 -0.025520
C62   C     C_R   0.545311 0.237149 0.363171 -0.084665
C63   C     C_R   0.541542 0.259381 0.313631 0.294133
C64   C     C_3   0.736583 0.722185 0.745853 -0.085860
C65   C     C_R   0.632913 0.182482 0.283762 0.059965
C66   C     C_R   0.727203 0.087451 0.304061 -0.111213
C67   C     C_3   0.575624 0.678289 0.776858 0.231929
C68   C     C_R   0.728571 0.064516 0.353292 -0.119020
C69   C     C_R   0.629886 0.124490 0.196502 0.224012
C70   C     C_R   0.663164 0.128349 0.147677 0.214252
C71   C     C_R   0.669857 0.301435 0.169124 -0.155971
C72   C     C_R   0.650816 0.289235 0.217179 -0.104173
C73   C     C_R   0.634311 0.200064 0.231404 0.008070
C74   C     C_R   0.680898 0.219860 0.134713 -0.016717
C75   C     C_R   0.050655 0.234298 0.948257 0.553921
C76   C     C_3   0.641971 0.795557 0.783567 -0.142136
C77   C     C_R   0.711228 0.563755 0.947026 0.564082
C78   C     C_3   0.551780 0.788421 0.750807 -0.106111
C79   C     C_R   0.722448 0.224080 0.949233 0.567214
C80   C     C_R   0.047589 0.243480 0.086320 0.540317
C81   C     C_R   0.707844 0.574905 0.083457 0.576947
C82   C     C_R   0.718724 0.232324 0.086711 0.594868
C83   C     C_1   0.692044 0.619970 0.901292 0.048486
C84   C     C_1   0.678087 0.656234 0.860592 0.011334
Cr1   Cr    Cr6+3 0.417550 0.169090 0.500530 1.059839
Cr2   Cr    Cr6+3 0.669180 0.913420 0.499920 1.059438
Cr3   Cr    Cr6+3 0.413260 0.917540 0.499520 1.075112
Cr4   Cr    Cr6+3 0.909770 0.175810 0.018240 1.099897
Cr5   Cr    Cr6+3 0.913300 0.427650 0.016090 1.086947
Cr6   Cr    Cr6+3 0.657770 0.431010 0.016900 1.129214
H1    H     H_    0.630454 0.873745 0.802214 0.161147
H2    H     H_    0.467577 0.860949 0.740825 0.161729
H3    H     H_    0.023838 0.099867 0.146098 0.154303
H4    H     H_    0.473479 0.294381 0.385790 0.184447
H5    H     H_    0.651343 0.348226 0.243848 0.226422
H6    H     H_    0.684028 0.371040 0.159258 0.159902
H7    H     H_    0.798279 0.029031 0.281301 0.140661
H8    H     H_    0.799172 0.986922 0.367508 0.153575
H9    H     H_    0.843500 0.541459 0.782392 0.242977
H10   H     H_    0.340228 0.984904 0.801161 0.145922
H11   H     H_    0.349898 0.152913 0.741111 0.113880
H12   H     H_    0.476678 0.209037 0.797452 0.165601
H13   H     H_    0.243303 0.392607 0.737223 0.330373
H14   H     H_    0.904114 0.504625 0.680818 0.357535
H15   H     H_    0.003662 0.135040 0.779555 0.167211
H16   H     H_    0.495590 0.353204 0.727384 0.174473
H17   H     H_    0.941474 0.905219 0.729934 0.367994
H18   H     H_    0.683841 0.338521 0.779187 0.192906
H19   H     H_    0.803600 0.739834 0.732249 0.203264
H20   H     H_    0.292952 0.703368 0.212242 0.378462
H21   H     H_    0.424918 0.829390 0.036217 0.366610
H22   H     H_    0.847230 0.365488 0.231236 0.354536
H23   H     H_    0.627333 0.015066 0.739954 0.118877
H24   H     H_    0.836565 0.640389 0.226446 0.179646
H25   H     H_    0.862634 0.589042 0.140908 0.160343
H26   H     H_    0.243417 0.972087 0.376769 0.153402
H27   H     H_    0.199953 0.989276 0.291031 0.170332
H28   H     H_    0.070569 0.070871 0.230832 0.116567
H29   H     H_    0.151786 0.330923 0.292618 0.167504
H30   H     H_    0.192558 0.314691 0.378502 0.171882
H31   H     H_    0.432942 0.120482 0.164357 0.342970
H32   H     H_    0.834073 0.912886 0.056766 0.374912
H33   H     H_    0.240923 0.480790 0.311685 0.372563
H34   H     H_    0.834783 0.144210 0.722053 0.174408
H35   H     H_    0.421026 0.766390 0.858399 0.329292
H36   H     H_    0.674318 0.529045 0.720723 0.187301
H37   H     H_    0.158213 0.893835 0.794333 0.366322
H38   H     H_    0.750219 0.569891 0.390262 0.152287
H39   H     H_    0.526695 0.878439 0.272883 0.234561
H40   H     H_    0.502068 0.918886 0.359364 0.140930
H41   H     H_    0.243878 0.266483 0.218928 0.168975
H42   H     H_    0.187534 0.304296 0.133778 0.149311
O1    O     O_R   0.301780 0.195490 0.553940 -0.498643
O2    O     O_R   0.636050 0.541380 0.962520 -0.477895
O3    O     O_R   0.666480 0.323610 0.968170 -0.485851
O4    O     O_R   0.522450 0.158840 0.550250 -0.493987
O5    O     O_R   0.817280 0.156800 0.072180 -0.459086
O6    O     O_R   0.005110 0.187160 0.067410 -0.504103
O7    O     O_R   0.026450 0.340060 0.069950 -0.511214
O8    O     O_R   0.808300 0.527240 0.065170 -0.511919
O9    O     O_R   0.634070 0.548770 0.069460 -0.451275
O10   O     O_R   0.664650 0.330470 0.067300 -0.495719
O11   O     O_3   0.826940 0.344820 0.017080 -0.295937
O12   O     O_R   0.658840 0.818280 0.449970 -0.494872
O13   O     O_R   0.694460 0.003360 0.553820 -0.492941
O14   O     O_R   0.657750 0.819520 0.549120 -0.497151
O15   O     O_R   0.501990 0.803120 0.552700 -0.483161
O16   O     O_R   0.318230 0.023430 0.549370 -0.483566
O17   O     O_R   0.302950 0.194150 0.446980 -0.508763
O18   O     O_R   0.523540 0.157600 0.451100 -0.502826
O19   O     O_R   0.695630 0.002030 0.446860 -0.503935
O20   O     O_2   0.041699 0.443347 0.822975 -0.220236
O21   O     O_2   0.248730 0.344177 0.834242 -0.268031
O22   O     O_3   0.167712 0.444952 0.751871 -0.398322
O23   O     O_R   0.503160 0.801780 0.445740 -0.494165
O24   O     O_2   0.949885 0.290752 0.661274 -0.274858
O25   O     O_2   0.862347 0.361422 0.741120 -0.364228
O26   O     O_3   0.971317 0.454677 0.700895 -0.468327
O27   O     O_2   0.939361 0.980725 0.825634 -0.275180
O28   O     O_2   0.811969 0.901614 0.835064 -0.235134
O29   O     O_3   0.924847 0.861397 0.754074 -0.443914
O30   O     O_2   0.451738 0.686022 0.278696 -0.255697
O31   O     O_2   0.354172 0.861505 0.231485 -0.289855
O32   O     O_3   0.367589 0.676552 0.195981 -0.422959
O33   O     O_2   0.405581 0.688556 0.099755 -0.220086
O34   O     O_R   0.319320 0.022190 0.450230 -0.504326
O35   O     O_2   0.361910 0.875655 0.132293 -0.194138
O36   O     O_3   0.493844 0.797171 0.056900 -0.500875
O37   O     O_2   0.930780 0.463621 0.289058 -0.339581
O38   O     O_2   0.826720 0.386982 0.333247 -0.272451
O39   O     O_3   0.778971 0.436869 0.242234 -0.562780
O40   O     O_2   0.671449 0.915421 0.218808 -0.273608
O41   O     O_2   0.511515 0.072765 0.261859 -0.312492
O42   O     O_3   0.481107 0.038765 0.172468 -0.410345
O43   O     O_2   0.664649 0.929883 0.119079 -0.163873
O44   O     O_2   0.618486 0.078251 0.058781 -0.279511
O45   O     O_3   0.499990 0.000010 0.499990 -0.271425
O46   O     O_3   0.828294 0.955997 0.086917 -0.498111
O47   O     O_2   0.441247 0.475113 0.283435 -0.210637
O48   O     O_2   0.387022 0.348265 0.241839 -0.291718
O49   O     O_3   0.307631 0.419751 0.328827 -0.555651
O50   O     O_2   0.409640 0.630857 0.755702 -0.153375
O51   O     O_2   0.525188 0.539306 0.827530 -0.288872
O52   O     O_3   0.374771 0.755472 0.833277 -0.469884
O53   O     O_2   0.099954 0.952640 0.684772 -0.257749
O54   O     O_2   0.307510 0.848549 0.694792 -0.235520
O55   O     O_3   0.181632 0.843465 0.765281 -0.351458
O56   O     O_R   0.819250 0.149410 0.965240 -0.475268
O57   O     O_R   0.006940 0.180310 0.968270 -0.493954
O58   O     O_R   0.028420 0.332670 0.963010 -0.471197
O59   O     O_R   0.810130 0.520390 0.966030 -0.482505
S1    S     S_3+6 0.155006 0.371822 0.798281 0.089269
S2    S     S_3+6 0.469754 0.647006 0.798314 0.067461
S3    S     S_3+6 0.195339 0.919646 0.720409 0.074892
S4    S     S_3+6 0.962797 0.336083 0.709457 0.002921
S5    S     S_3+6 0.857277 0.954043 0.799850 0.042400
S6    S     S_3+6 0.431649 0.734588 0.228390 0.067240
S7    S     S_3+6 0.453154 0.766316 0.109789 0.119603
S8    S     S_3+6 0.816965 0.470673 0.295238 -0.016663
S9    S     S_3+6 0.573909 0.035304 0.214103 0.042831
S10   S     S_3+6 0.689544 0.021007 0.102745 0.072115
S11   S     S_3+6 0.417840 0.378372 0.290034 0.020283

loop_
_geom_bond_atom_site_label_1
_geom_bond_atom_site_label_2
_ccdc_geom_bond_type
C81   O8    A    
C66   C68   A    
C63   C65   A    
C28   O18   A    
C23   C45   S    
C63   S11   S    
C27   C29   S    
C1    O13   A    
O49   S11   S    
C18   C26   S    
C24   C27   S    
O53   S3    D    
C82   O10   A    
C2    C12   T    
C8    H15   S    
C64   H19   S    
C53   H30   S    
C35   S8    S    
C6    C75   S    
C39   C41   A    
C20   C30   T    
C1    C21   S    
C54   H41   S    
C21   C31   T    
O30   S6    D    
C62   C63   A    
C13   S1    S    
O36   S7    S    
C83   C84   T    
C50   C59   S    
C38   H40   S    
C66   H7    S    
C36   C37   A    
C75   O57   A    
C76   C78   S    
C82   O5    A    
O48   S11   D    
C70   C74   A    
C43   H24   S    
Cr6   O2    S    
C11   C14   S    
C80   O6    A    
H22   O39   S    
C61   C62   A    
C77   C83   S    
O52   S2    S    
C58   H28   S    
C56   C78   S    
C18   C19   S    
C42   C46   A    
C9    C13   S    
Cr1   O18   S    
O39   S8    S    
C52   O34   A    
C6    C15   T    
C72   H5    S    
C49   H27   S    
C35   C36   A    
C45   C56   S    
C8    C9    S    
C7    C17   T    
C22   C25   S    
C45   C67   S    
C69   S9    S    
C51   H29   S    
C41   C46   A    
C5    H10   S    
C40   O23   A    
C69   C73   A    
C32   C38   A    
C4    C12   S    
C1    O4    A    
Cr4   O11   S    
Cr6   O11   S    
C47   C53   A    
C28   C61   S    
C23   C34   S    
C70   S10   S    
C81   O9    A    
C39   S6    S    
C26   C31   S    
C57   H3    S    
C13   C14   S    
H35   O52   S    
Cr4   O57   S    
C67   C78   S    
C34   C84   S    
C74   C82   S    
C16   O1    A    
Cr2   O14   S    
O38   S8    D    
C24   C30   S    
C54   C59   A    
Cr5   O59   S    
O27   S5    D    
C3    S3    S    
C79   O56   A    
Cr2   O12   S    
C77   O59   A    
H17   O29   S    
C75   O58   A    
O43   S10   D    
C3    C8    S    
Cr3   O16   S    
C65   C73   S    
H20   O32   S    
C52   O17   A    
C57   C60   A    
C71   H6    S    
Cr1   O4    S    
C78   H2    S    
C25   C26   S    
Cr5   O11   S    
C4    O15   A    
C10   S4    S    
C33   H38   S    
O29   S5    S    
C48   H26   S    
C51   C53   A    
C43   C44   A    
C18   H16   S    
H31   O42   S    
C5    C9    S    
C37   C38   A    
C41   S7    S    
Cr3   O45   S    
C46   C81   S    
C23   H9    S    
C42   H25   S    
H13   O22   S    
H37   O55   S    
C47   C48   A    
C55   H42   S    
O47   S11   D    
C45   H36   S    
Cr5   O58   S    
Cr5   O8    S    
C4    O14   A    
O24   S4    D    
C56   C64   S    
C50   C51   A    
C64   C76   S    
O50   S2    D    
Cr4   O6    S    
C5    C14   S    
Cr6   O10   S    
Cr3   O15   S    
C26   C29   S    
Cr1   O45   S    
C23   C64   S    
C19   H12   S    
C65   C66   A    
C62   H4    S    
O55   S3    S    
Cr3   O23   S    
C36   C44   S    
C42   C43   A    
C39   C44   A    
C19   C29   S    
Cr2   O13   S    
C3    C5    S    
O51   S2    D    
C32   C40   S    
O32   S6    S    
Cr5   O7    S    
H32   O46   S    
C29   H23   S    
C54   C55   A    
C48   C49   A    
C20   C79   S    
C60   C80   S    
O25   S4    D    
O22   S1    S    
O44   S10   D    
O54   S3    D    
C7    C16   S    
H14   O26   S    
C72   C73   A    
C14   H11   S    
C10   C13   S    
C11   C17   S    
C34   C67   S    
C71   C74   A    
O33   S7    D    
C47   C52   S    
H21   O36   S    
Cr1   O17   S    
C25   C27   S    
C80   O7    A    
C79   O3    A    
O42   S9    S    
O26   S4    S    
C40   O12   A    
O28   S5    D    
C16   O16   A    
C32   C33   A    
C18   C22   S    
C19   C24   S    
C58   C59   A    
C71   C72   A    
H33   O49   S    
C67   S2    S    
Cr2   O19   S    
O20   S1    D    
Cr6   O3    S    
C61   C68   A    
C57   C58   A    
C22   H18   S    
C33   C35   A    
O35   S7    D    
C37   H39   S    
O40   S9    D    
C22   C24   S    
Cr2   O45   S    
C9    C15   S    
C69   C70   A    
C25   H34   S    
C68   H8    S    
Cr4   O5    S    
Cr6   O9    S    
C3    C11   S    
C10   C11   S    
C76   H1    S    
Cr3   O34   S    
O37   S8    D    
Cr4   O56   S    
O31   S6    D    
C28   O19   A    
C8    C10   S    
C49   C50   A    
C77   O2    A    
O46   S10   S    
Cr1   O1    S    
C2    C56   S    
C27   S5    S    
C55   C60   A    
C34   C76   S    
O41   S9    D    
O21   S1    D    
