data_mof_unit_23777.cif
_audit_creation_date              2012-12-10T17:20:24-0500
_audit_creation_method            fapswitch 2.2
_symmetry_space_group_name_H-M    P1
_symmetry_Int_Tables_number       1
_space_group_crystal_system       triclinic
_cell_length_a                    11.705315
_cell_length_b                    10.783249
_cell_length_c                    9.615833
_cell_angle_alpha                 89.974983
_cell_angle_beta                  90.050029
_cell_angle_gamma                 92.495191
_cell_volume                      1212.57187942

loop_
_atom_site_label
_atom_site_type_symbol
_atom_type_description
_atom_site_fract_x
_atom_site_fract_y
_atom_site_fract_z
_atom_type_partial_charge
C1    C     C_R   0.496124 0.262601 0.500088 0.785967
C2    C     C_R   0.232319 0.051610 0.722549 -0.137012
C3    C     C_R   0.232523 0.922685 0.722808 -0.124762
C4    C     C_R   0.316440 0.861832 0.650035 -0.176082
C5    C     C_R   0.403592 0.929741 0.577251 0.093767
C6    C     C_R   0.403437 0.060943 0.577137 0.095737
C7    C     C_R   0.488432 0.128395 0.500199 -0.101517
C8    C     C_R   0.568109 0.067280 0.420493 -0.197160
C9    C     C_R   0.568160 0.939344 0.420404 -0.220733
C10   C     C_R   0.488616 0.870503 0.500144 -0.095999
C11   C     C_R   0.648175 0.668652 0.143575 -0.236071
C12   C     C_R   0.284161 0.499708 0.499968 0.800465
C13   C     C_R   0.716993 0.754919 0.071837 -0.268004
C14   C     C_R   0.714734 0.759368 0.928305 0.505862
C15   C     C_R   0.646748 0.670292 0.856469 -0.253093
C16   C     C_R   0.572057 0.583756 0.925435 0.151784
C17   C     C_R   0.572281 0.583428 0.074694 0.220363
C18   C     C_R   0.431114 0.420627 0.073786 -0.050169
C19   C     C_R   0.431220 0.420577 0.926014 -0.043780
C20   C     C_R   0.496579 0.737083 0.500027 0.760377
C21   C     C_R   0.715838 0.500431 0.500059 0.801823
C22   C     C_1   0.162433 0.500158 0.499978 -0.183051
C23   C     C_1   0.059939 0.500538 0.500096 0.004681
C24   C     C_1   0.940101 0.500790 0.500195 0.007704
C25   C     C_1   0.837590 0.500745 0.500185 -0.174613
C26   C     C_R   0.316043 0.120502 0.649537 -0.190574
Cu1   Cu    Cu3+1 0.499990 0.499990 0.640660 0.930151
Cu2   Cu    Cu3+1 0.500010 0.500010 0.359340 0.943782
H1    H     H_    0.632315 0.119140 0.360402 0.156513
H2    H     H_    0.374784 0.355395 0.870963 0.131143
H3    H     H_    0.309727 0.220169 0.648345 0.139776
H4    H     H_    0.166015 0.098457 0.777511 0.141718
H5    H     H_    0.166365 0.869476 0.777970 0.153104
H6    H     H_    0.632513 0.893791 0.360418 0.141658
H7    H     H_    0.374595 0.355492 0.128745 0.138403
H8    H     H_    0.658687 0.672963 0.253028 0.212514
H9    H     H_    0.772931 0.819360 0.129025 0.168240
N1    N     N_R   0.501070 0.501210 0.147910 -0.188188
N2    N     N_R   0.501110 0.501290 0.852040 -0.183252
O1    O     O_R   0.499990 0.319640 0.618810 -0.579525
O2    O     O_R   0.500000 0.319660 0.381240 -0.573667
O3    O     O_R   0.337190 0.500000 0.618790 -0.584929
O4    O     O_R   0.337200 0.500030 0.381210 -0.565060
O5    O     O_R   0.500000 0.680340 0.618760 -0.606625
O6    O     O_R   0.500010 0.680360 0.381190 -0.583547
O7    O     O_R   0.662800 0.499970 0.618790 -0.582242
O8    O     O_R   0.662810 0.500000 0.381210 -0.587618
O9    O     O_3   0.788130 0.844920 0.861710 -0.576180
C27   C     C_3   0.731406 0.906770 0.753857 -0.302628
H10   H     H_    0.642359 0.929427 0.782279 0.167072
H11   H     H_    0.731977 0.851465 0.656478 0.153089
H12   H     H_    0.778989 0.995927 0.732441 0.193944
H13   H     H_    0.657367 0.671056 0.747443 0.208488
H14   H     H_    0.310429 0.761604 0.649422 0.157953

loop_
_geom_bond_atom_site_label_1
_geom_bond_atom_site_label_2
_ccdc_geom_bond_type
C12   O3    A    
C23   C24   S    
Cu2   O8    S    
C6    C7    A    
C18   H7    S    
Cu2   O4    S    
C13   H9    S    
C20   O6    A    
Cu2   N1    S    
Cu1   O1    S    
C27   H12   S    
C2    C3    A    
C18   N1    A    
C26   H3    S    
C2    C26   A    
C13   C14   A    
C11   C13   A    
Cu1   O3    S    
C6    C26   A    
C19   N2    A    
C5    C6    A    
C8    H1    S    
C15   H13   S    
Cu1   O7    S    
C1    O2    A    
O9    C27   S    
C20   O5    A    
C21   O7    A    
C12   O4    A    
C17   N1    A    
C22   C23   T    
C9    H6    S    
C21   O8    A    
Cu2   O6    S    
C16   C17   A    
C3    H5    S    
C16   N2    A    
C5    C10   A    
C3    C4    A    
C12   C22   S    
Cu2   O2    S    
C7    C8    A    
C24   C25   T    
C2    H4    S    
C18   C19   A    
C9    C10   A    
C10   C20   S    
Cu1   Cu2   S    
C27   H10   S    
C21   C25   S    
C14   C15   A    
C4    C5    A    
C14   O9    S    
C1    O1    A    
C4    H14   S    
C1    C7    S    
C19   H2    S    
Cu1   O5    S    
C11   C17   A    
C15   C16   A    
Cu1   N2    S    
C8    C9    A    
C27   H11   S    
C11   H8    S    
