data_mof_unit_55533.cif
_audit_creation_date              2012-12-10T17:25:33-0500
_audit_creation_method            fapswitch 2.2
_symmetry_space_group_name_H-M    P1
_symmetry_Int_Tables_number       1
_space_group_crystal_system       triclinic
_cell_length_a                    10.152615
_cell_length_b                    10.873128
_cell_length_c                    22.881999
_cell_angle_alpha                 91.958848
_cell_angle_beta                  81.977975
_cell_angle_gamma                 96.015076
_cell_volume                      2486.98013039

loop_
_atom_site_label
_atom_site_type_symbol
_atom_type_description
_atom_site_fract_x
_atom_site_fract_y
_atom_site_fract_z
_atom_type_partial_charge
C1    C     C_R   0.555983 0.730938 0.489652 0.745006
C2    C     C_R   0.479017 0.405201 0.289857 0.000918
C3    C     C_R   0.490325 0.565208 0.775783 0.417962
C4    C     C_R   0.484799 0.417453 0.228707 0.409961
C5    C     C_R   0.590599 0.488499 0.785955 -0.052437
C6    C     C_R   0.551190 0.526341 0.201493 0.007489
C7    C     C_2   0.589404 0.860696 0.472720 0.208156
C8    C     C_2   0.408491 0.133641 0.514565 0.180377
C9    C     C_2   0.490185 0.935407 0.476386 0.090799
C10   C     C_2   0.507260 0.057474 0.508938 0.077958
C11   C     C_2   0.923662 0.492142 0.513260 0.500394
C12   C     C_R   0.443534 0.267471 0.507658 0.767938
C13   C     C_2   0.068102 0.470501 0.505341 0.636712
C14   C     C_R   0.500623 0.500982 0.611452 0.910041
C15   C     C_R   0.500087 0.500345 0.388921 0.909476
C16   C     C_R   0.658063 0.437411 0.110089 0.582650
C17   C     C_R   0.673560 0.630364 0.862576 0.569850
C18   C     C_R   0.559480 0.626291 0.107458 0.618085
C19   C     C_R   0.722972 0.426290 0.862352 0.629523
C20   C     C_R   0.612604 0.640544 0.047589 -0.119831
C21   C     C_R   0.708783 0.423024 0.924066 -0.100358
C22   C     C_R   0.658827 0.535042 0.016994 -0.118058
C23   C     C_R   0.602499 0.382492 0.748226 0.440250
C24   C     C_R   0.682145 0.533490 0.955204 -0.094316
C25   C     C_R   0.679644 0.430563 0.048085 -0.082696
C26   C     C_R   0.677781 0.642168 0.924009 -0.163868
C27   C     C_R   0.621810 0.754044 0.017189 0.048913
C28   C     C_R   0.713691 0.313205 0.955054 -0.028718
C29   C     C_R   0.664432 0.755181 0.955770 0.439417
C30   C     C_R   0.717148 0.322202 0.016775 0.431034
C31   C     C_3   0.601090 0.877109 0.049128 -0.282363
C32   C     C_3   0.460715 0.913944 0.045214 -0.342609
C33   C     C_3   0.435596 0.033928 0.079542 -0.763602
C34   C     C_R   0.592128 0.628448 0.236533 0.477213
C35   C     C_3   0.685972 0.186437 0.925594 -0.358769
C36   C     C_3   0.544194 0.170785 0.907435 -0.334876
C37   C     C_3   0.520629 0.055616 0.868734 -0.721491
C38   C     C_3   0.361186 0.665941 0.706716 -0.292768
C39   C     C_3   0.437490 0.788059 0.684099 -0.417627
C40   C     C_3   0.510127 0.858064 0.731352 -0.690585
C41   C     C_3   0.476657 0.276386 0.313970 -0.331014
C42   C     C_3   0.620491 0.239153 0.303917 -0.348419
C43   C     C_3   0.631507 0.112620 0.328129 -0.800751
C44   C     C_3   0.633805 0.093804 0.538847 -0.362310
C45   C     C_R   0.556803 0.381882 0.692884 0.310003
C46   C     C_3   0.645141 0.008444 0.589601 -0.356253
C47   C     C_3   0.772997 0.044754 0.616916 -0.784822
C48   C     C_3   0.360362 0.890028 0.450627 -0.331840
C49   C     C_3   0.331462 0.970222 0.400720 -0.356833
C50   C     C_3   0.185829 0.945778 0.390071 -0.756500
C51   C     C_R   0.559585 0.624839 0.298269 0.270578
C52   C     C_R   0.501463 0.485821 0.675200 -0.310725
C53   C     C_R   0.505690 0.511543 0.325122 -0.295390
C54   C     C_R   0.454104 0.571591 0.718758 0.028731
H1    H     H_    0.448614 0.024934 0.126561 0.296314
H2    H     H_    0.425973 0.058432 0.849889 0.227256
H3    H     H_    0.468908 0.164846 0.947749 0.206100
H4    H     H_    0.525878 0.251521 0.882532 0.241996
H5    H     H_    0.763131 0.172874 0.887308 0.261364
H6    H     H_    0.690336 0.109924 0.955678 0.224058
H7    H     H_    0.199623 0.705656 0.557553 0.362734
H8    H     H_    0.820831 0.375254 0.403438 0.375270
H9    H     H_    0.772392 0.862614 0.898683 0.364840
H10   H     H_    0.813725 0.179615 0.021578 0.324033
H11   H     H_    0.649119 0.211173 0.737048 0.376431
H12   H     H_    0.505352 0.111660 0.059954 0.284168
H13   H     H_    0.693843 0.792216 0.238213 0.385697
H14   H     H_    0.490235 0.272575 0.632712 0.320873
H15   H     H_    0.545106 0.722520 0.371420 0.322632
H16   H     H_    0.443520 0.860632 0.774107 0.289185
H17   H     H_    0.600637 0.813289 0.736899 0.299922
H18   H     H_    0.542016 0.954916 0.718283 0.217308
H19   H     H_    0.510295 0.769918 0.644618 0.209698
H20   H     H_    0.364718 0.847313 0.670495 0.219681
H21   H     H_    0.294451 0.628336 0.674655 0.192365
H22   H     H_    0.290851 0.684840 0.746958 0.238055
H23   H     H_    0.331788 0.055256 0.077471 0.239799
H24   H     H_    0.593122 0.109755 0.375940 0.261246
H25   H     H_    0.576043 0.039989 0.303278 0.270114
H26   H     H_    0.738108 0.094160 0.322380 0.276709
H27   H     H_    0.657645 0.237791 0.255854 0.284544
H28   H     H_    0.687140 0.308617 0.325501 0.230022
H29   H     H_    0.437102 0.273404 0.361707 0.174308
H30   H     H_    0.409857 0.208544 0.291498 0.248599
H31   H     H_    0.422108 0.586809 0.858380 0.327481
H32   H     H_    0.416934 0.348029 0.158065 0.337401
H33   H     H_    0.862033 0.035525 0.583447 0.269967
H34   H     H_    0.449085 0.926508 0.998330 0.229951
H35   H     H_    0.775890 0.141588 0.634089 0.289236
H36   H     H_    0.777105 0.982752 0.654041 0.251461
H37   H     H_    0.557204 0.016163 0.623660 0.237275
H38   H     H_    0.645491 0.910472 0.575239 0.225481
H39   H     H_    0.725163 0.101252 0.505946 0.263221
H40   H     H_    0.633704 0.185764 0.560264 0.243049
H41   H     H_    0.161284 0.846362 0.379244 0.261522
H42   H     H_    0.118180 0.972242 0.429911 0.283267
H43   H     H_    0.169187 0.001657 0.352532 0.251036
H44   H     H_    0.353387 0.070308 0.409824 0.240023
H45   H     H_    0.383619 0.839624 0.063060 0.261238
H46   H     H_    0.395479 0.946236 0.359493 0.231286
H47   H     H_    0.364876 0.796791 0.429777 0.190336
H48   H     H_    0.275121 0.879532 0.486694 0.270855
H49   H     H_    0.216683 0.151708 0.525533 0.370925
H50   H     H_    0.780880 0.843090 0.457720 0.364769
H51   H     H_    0.031516 0.298000 0.483531 0.327644
H52   H     H_    0.812739 0.611794 0.551356 0.368466
H53   H     H_    0.619649 0.875105 0.095680 0.248146
H54   H     H_    0.677111 0.950544 0.029532 0.217861
H55   H     H_    0.603534 0.051132 0.831768 0.288473
H56   H     H_    0.510777 0.971055 0.895165 0.294655
N1    N     N_R   0.589521 0.529549 0.138286 -0.335835
N2    N     N_R   0.666302 0.514892 0.836183 -0.320674
N3    N     N_2   0.842710 0.448880 0.476480 -0.028546
N4    N     N_2   0.157290 0.551120 0.523520 0.023075
O1    O     O_R   0.431060 0.692470 0.504730 -0.654917
O2    O     O_2   0.669514 0.730792 0.830279 -0.534868
O3    O     O_2   0.475078 0.705003 0.134397 -0.550749
O4    O     O_2   0.807464 0.354801 0.830148 -0.496289
O5    O     O_3   0.118367 0.659813 0.545221 -0.694936
O6    O     O_3   0.897287 0.401041 0.425013 -0.715138
O7    O     O_3   0.691888 0.867514 0.928297 -0.794418
O8    O     O_3   0.746605 0.223778 0.047458 -0.730164
O9    O     O_3   0.643068 0.276244 0.768308 -0.727124
O10   O     O_3   0.666616 0.729333 0.208768 -0.732709
O11   O     O_3   0.563276 0.276953 0.657516 -0.803051
O12   O     O_R   0.568940 0.307530 0.495270 -0.636726
O13   O     O_3   0.591013 0.730796 0.330710 -0.770064
O14   O     O_3   0.423110 0.631036 0.821117 -0.743127
O15   O     O_3   0.434674 0.318076 0.196335 -0.735463
O16   O     O_3   0.275962 0.084439 0.522025 -0.784800
O17   O     O_3   0.721063 0.909505 0.458372 -0.773134
O18   O     O_3   0.109612 0.361413 0.480332 -0.755839
O19   O     O_3   0.876872 0.558070 0.562951 -0.731058
O20   O     O_R   0.651120 0.659650 0.489640 -0.627517
O21   O     O_R   0.348880 0.340350 0.510360 -0.554198
O22   O     O_R   0.389950 0.516450 0.591390 -0.620288
O23   O     O_R   0.610050 0.483550 0.408610 -0.605296
O24   O     O_R   0.610020 0.483630 0.576300 -0.575241
O25   O     O_R   0.389980 0.516370 0.423700 -0.580678
O26   O     O_2   0.701760 0.351867 0.142033 -0.473297
Zn1   Zn    Zn3+2 0.353060 0.521920 0.510080 1.003079
Zn2   Zn    Zn3+2 0.646940 0.478080 0.489920 0.980035

loop_
_geom_bond_atom_site_label_1
_geom_bond_atom_site_label_2
_ccdc_geom_bond_type
C33   H1    S    
O23   Zn2   S    
O1    Zn1   S    
C23   C45   A    
C40   H17   S    
H7    O5    S    
C11   C13   S    
C41   C42   S    
C35   C36   S    
C42   H28   S    
C50   H42   S    
H13   O10   S    
C46   H38   S    
C38   H22   S    
C19   N2    A    
C43   H24   S    
C34   C51   A    
C40   H16   S    
C17   C26   A    
C15   C53   S    
C36   C37   S    
C19   C21   A    
C24   C26   A    
C36   H4    S    
C11   O19   S    
C38   C39   S    
C3    C54   A    
C50   H41   S    
C27   C29   A    
C2    C41   S    
C43   H25   S    
C41   H29   S    
C25   C30   A    
N3    Zn2   S    
C22   C25   A    
C35   H5    S    
C6    N1    S    
C39   H20   S    
C44   H39   S    
C49   H44   S    
C37   H2    S    
O20   Zn2   S    
H52   O19   S    
C14   C52   S    
C14   O24   A    
C19   O4    S    
C44   C46   S    
H50   O17   S    
C29   O7    S    
C9    C10   S    
C7    O17   S    
C13   N4    D    
H11   O9    S    
C47   H35   S    
C16   O26   S    
C42   H27   S    
C31   H53   S    
H9    O7    S    
C52   C54   A    
C33   H12   S    
H51   O18   S    
C15   O25   A    
C38   H21   S    
C10   C44   S    
N4    Zn1   S    
C30   O8    S    
C18   N1    A    
C28   C35   S    
C4    C6    A    
C36   H3    S    
O24   Zn2   S    
C45   O11   S    
C39   C40   S    
C3    O14   S    
C23   O9    S    
C46   H37   S    
C45   C52   A    
C43   H26   S    
C41   H30   S    
C27   C31   S    
O12   Zn2   S    
C6    C34   A    
C35   H6    S    
C51   C53   A    
C47   H33   S    
C2    C4    A    
O22   Zn1   S    
C12   O21   A    
N3    O6    S    
C31   C32   S    
C38   C54   S    
C8    C12   S    
C48   H48   S    
C18   O3    S    
C37   H56   S    
C26   C29   A    
C17   N2    A    
C48   C49   S    
C20   C27   A    
C21   C28   A    
C20   C22   A    
C8    O16   S    
C47   H36   S    
C22   C24   A    
C42   C43   S    
C1    O20   A    
C31   H54   S    
C16   C25   A    
C7    C9    D    
C46   C47   S    
C50   H43   S    
C34   O10   S    
C40   H18   S    
C1    C7    S    
C37   H55   S    
N4    O5    S    
C3    C5    A    
C2    C53   A    
H32   O15   S    
C4    O15   S    
C5    N2    S    
C5    C23   A    
C32   H45   S    
C51   O13   S    
C32   C33   S    
C28   C30   A    
C16   N1    A    
H8    O6    S    
C49   H46   S    
O25   Zn1   S    
C33   H23   S    
C14   O22   A    
H10   O8    S    
C48   H47   S    
C13   O18   S    
C18   C20   A    
C39   H19   S    
C11   N3    D    
H49   O16   S    
C44   H40   S    
O21   Zn1   S    
C12   O12   A    
H15   O13   S    
C9    C48   S    
C8    C10   D    
C49   C50   S    
C21   C24   A    
H31   O14   S    
C1    O1    A    
H14   O11   S    
C17   O2    S    
C15   O23   A    
C32   H34   S    
