data_mof_unit_7024.cif
_audit_creation_date              2012-12-11T14:56:46-0500
_audit_creation_method            fapswitch 2.2
_symmetry_space_group_name_H-M    P1
_symmetry_Int_Tables_number       1
_space_group_crystal_system       triclinic
_cell_length_a                    10.535823
_cell_length_b                    10.653806
_cell_length_c                    17.094774
_cell_angle_alpha                 80.415985
_cell_angle_beta                  89.825921
_cell_angle_gamma                 119.013717
_cell_volume                      1646.77306229

loop_
_atom_site_label
_atom_site_type_symbol
_atom_type_description
_atom_site_fract_x
_atom_site_fract_y
_atom_site_fract_z
_atom_type_partial_charge
Br1   Br    Br    0.149435 0.536141 0.687836 -0.482381
Br2   Br    Br    0.977512 0.471700 0.128273 -0.450994
Br3   Br    Br    0.568554 0.542246 0.885343 -0.469697
C1    C     C_R   0.278113 0.888284 0.132903 0.557435
C2    C     C_1   0.649566 0.341643 0.706952 -0.036432
C3    C     C_R   0.634798 0.714509 0.804422 0.142274
C4    C     C_R   0.638246 0.283508 0.084769 0.584997
C5    C     C_R   0.622507 0.698770 0.726098 -0.078069
C6    C     C_R   0.669848 0.821912 0.665150 0.012026
C7    C     C_R   0.737641 0.962341 0.682189 -0.148591
C8    C     C_R   0.746649 0.978615 0.760965 -0.156327
C9    C     C_R   0.689303 0.854125 0.822285 0.040863
C10   C     C_R   0.277658 0.997698 0.749271 -0.150891
C11   C     C_R   0.240618 0.974309 0.673501 -0.153538
C12   C     C_R   0.792834 0.402303 0.267163 -0.114645
C13   C     C_R   0.187794 0.834381 0.654684 0.032135
C14   C     C_R   0.196404 0.724577 0.709442 0.146053
C15   C     C_R   0.236857 0.750405 0.785095 -0.082228
C16   C     C_R   0.640593 0.858275 0.125303 0.548375
C17   C     C_R   0.267142 0.883227 0.806827 -0.016127
C18   C     C_R   0.686399 0.809883 0.357283 0.549131
C19   C     C_R   0.687956 0.395145 0.394581 0.534579
C20   C     C_R   0.107993 0.812188 0.359872 0.544402
C21   C     C_R   0.677460 0.800446 0.585194 0.545018
C22   C     C_R   0.677830 0.380715 0.624066 0.542862
C23   C     C_R   0.792032 0.402662 0.187003 0.145127
C24   C     C_R   0.104306 0.804406 0.584984 0.564218
C25   C     C_R   0.290641 0.904335 0.888711 0.552995
C26   C     C_R   0.636117 0.281371 0.860287 0.591477
C27   C     C_R   0.647018 0.867060 0.899353 0.565639
C28   C     C_R   0.534858 0.331172 0.197107 -0.166425
C29   C     C_R   0.537532 0.342225 0.277160 -0.045685
C30   C     C_R   0.666095 0.367279 0.314073 -0.012186
C31   C     C_R   0.407975 0.334679 0.317368 0.049094
C32   C     C_R   0.335065 0.235001 0.388669 -0.044629
C33   C     C_R   0.216957 0.234780 0.426600 -0.084553
C34   C     C_R   0.658573 0.351613 0.153571 0.029878
C35   C     C_R   0.168287 0.330601 0.392821 -0.106050
C36   C     C_R   0.238232 0.427968 0.321213 -0.089353
C37   C     C_R   0.357556 0.430276 0.283684 -0.070294
C38   C     C_1   0.668835 0.848532 0.205421 -0.030614
C39   C     C_1   0.680073 0.838987 0.274894 -0.029209
C40   C     C_1   0.226533 0.853309 0.215499 -0.032827
C41   C     C_1   0.178051 0.833718 0.283049 -0.040679
C42   C     C_1   0.642185 0.319189 0.777497 -0.015851
Cr1   Cr    Cr6+3 0.402240 0.783890 0.019450 1.090735
Cr2   Cr    Cr6+3 0.382360 0.097900 0.991800 1.076160
Cr3   Cr    Cr6+3 0.715380 0.118170 0.988700 1.082877
Cr4   Cr    Cr6+3 0.936650 0.882420 0.465510 1.013813
Cr5   Cr    Cr6+3 0.605770 0.565620 0.493360 1.044000
Cr6   Cr    Cr6+3 0.921340 0.550490 0.496380 1.056230
H1    H     H_    0.433323 0.299192 0.170044 0.154026
H2    H     H_    0.163314 0.161093 0.482464 0.136577
H3    H     H_    0.076611 0.329644 0.422256 0.119291
H4    H     H_    0.200743 0.502455 0.295074 0.137657
H5    H     H_    0.411976 0.507991 0.228805 0.142139
H6    H     H_    0.243028 0.063874 0.631550 0.144426
H7    H     H_    0.237788 0.663593 0.827826 0.186228
H8    H     H_    0.896809 0.436765 0.291698 0.164789
H9    H     H_    0.579329 0.590167 0.712826 0.166024
H10   H     H_    0.780945 0.058093 0.634878 0.141101
H11   H     H_    0.788772 0.087417 0.773737 0.164546
H12   H     H_    0.308957 0.103556 0.763744 0.149968
H13   H     H_    0.371061 0.159547 0.415385 0.102117
O1    O     O_R   0.521780 0.757110 0.108900 -0.520914
O2    O     O_R   0.805020 0.410040 0.421340 -0.535817
O3    O     O_R   0.049240 0.685450 0.403290 -0.503316
O4    O     O_R   0.275160 0.783810 0.101120 -0.442932
O5    O     O_R   0.077520 0.903010 0.551800 -0.553046
O6    O     O_R   0.802980 0.872780 0.546830 -0.503483
O7    O     O_R   0.578090 0.681300 0.569920 -0.499098
O8    O     O_R   0.608530 0.436370 0.586530 -0.507134
O9    O     O_R   0.798770 0.401880 0.597100 -0.481801
O10   O     O_R   0.043450 0.677890 0.566230 -0.445944
O11   O     O_3   0.821250 0.666180 0.485090 -0.258532
O12   O     O_R   0.513330 0.228330 0.898660 -0.489106
O13   O     O_R   0.237900 0.972600 0.090980 -0.483089
O14   O     O_R   0.511190 0.220540 0.061620 -0.517332
O15   O     O_R   0.736920 0.257720 0.063840 -0.455137
O16   O     O_R   0.710450 0.984050 0.081720 -0.483591
O17   O     O_R   0.524090 0.765520 0.933110 -0.475822
O18   O     O_R   0.277300 0.791600 0.938160 -0.471684
O19   O     O_R   0.240210 0.981010 0.915190 -0.478698
O20   O     O_R   0.739230 0.266130 0.888050 -0.488311
O21   O     O_R   0.712580 0.991850 0.918770 -0.514660
O22   O     O_3   0.499990 0.999980 0.999980 -0.333031
O23   O     O_R   0.083770 0.911170 0.376030 -0.508911
O24   O     O_R   0.808770 0.880340 0.383890 -0.490923
O25   O     O_R   0.584340 0.689460 0.394160 -0.506776
O26   O     O_R   0.614320 0.443940 0.423590 -0.493921

loop_
_geom_bond_atom_site_label_1
_geom_bond_atom_site_label_2
_ccdc_geom_bond_type
C38   C39   T    
Cr4   O23   S    
C32   C33   A    
Cr6   O10   S    
C28   H1    S    
Cr5   O7    S    
C8    H11   S    
C21   O6    A    
C26   O12   A    
C18   O25   A    
C31   C37   A    
Cr3   O15   S    
Cr6   O11   S    
Cr2   O12   S    
C3    C9    A    
C35   C36   A    
C31   C32   A    
C20   O3    A    
C19   C30   S    
Cr5   O8    S    
C19   O2    A    
C33   H2    S    
Cr1   O18   S    
C15   H7    S    
C36   H4    S    
C5    C6    A    
C37   H5    S    
C35   H3    S    
Cr4   O11   S    
C32   H13   S    
Cr2   O19   S    
C24   O10   A    
C6    C7    A    
C15   C17   A    
C24   O5    A    
Br3   C3    S    
C13   C24   S    
C18   O24   A    
Cr4   O5    S    
C10   C11   A    
C25   O19   A    
Cr4   O24   S    
Cr5   O26   S    
C4    C34   S    
C25   O18   A    
Cr2   O22   S    
C26   O20   A    
C36   C37   A    
C1    O4    A    
C13   C14   A    
Cr3   O22   S    
C3    C5    A    
C17   C25   S    
C2    C42   T    
C6    C21   S    
C20   C41   S    
C28   C34   A    
C26   C42   S    
Cr6   O2    S    
C29   C31   S    
C40   C41   T    
Cr1   O4    S    
Cr1   O17   S    
Cr5   O25   S    
C28   C29   A    
C10   H12   S    
C14   C15   A    
C19   O26   A    
Br2   C23   S    
C22   O8    A    
Cr6   O3    S    
C27   O21   A    
Cr1   O1    S    
C4    O14   A    
C2    C22   S    
Cr4   O6    S    
C11   C13   A    
C7    H10   S    
Cr2   O13   S    
C4    O15   A    
C11   H6    S    
C10   C17   A    
C9    C27   S    
C12   H8    S    
Cr6   O9    S    
C12   C23   A    
C8    C9    A    
C23   C34   A    
C1    C40   S    
Br1   C14   S    
C29   C30   A    
Cr3   O16   S    
C27   O17   A    
C33   C35   A    
C1    O13   A    
Cr5   O11   S    
C5    H9    S    
C16   O1    A    
C22   O9    A    
C16   O16   A    
C7    C8    A    
C18   C39   S    
Cr3   O20   S    
Cr3   O21   S    
C20   O23   A    
Cr2   O14   S    
C12   C30   A    
C16   C38   S    
C21   O7    A    
Cr1   O22   S    
