data_mof_unit_35484.cif
_audit_creation_date              2012-12-11T17:41:43-0500
_audit_creation_method            fapswitch 2.2
_symmetry_space_group_name_H-M    P1
_symmetry_Int_Tables_number       1
_space_group_crystal_system       triclinic
_cell_length_a                    15.538737
_cell_length_b                    15.066386
_cell_length_c                    14.992644
_cell_angle_alpha                 109.83714
_cell_angle_beta                  121.647702
_cell_angle_gamma                 59.328525
_cell_volume                      2557.64944565

loop_
_atom_site_label
_atom_site_type_symbol
_atom_type_description
_atom_site_fract_x
_atom_site_fract_y
_atom_site_fract_z
_atom_type_partial_charge
C1    C     C_R   0.750411 0.996432 0.791617 -0.115266
C2    C     C_R   0.158797 0.231618 0.002442 -0.097670
C3    C     C_R   0.685575 0.681371 0.861102 -0.122005
C4    C     C_R   0.263966 0.156225 0.011637 -0.155767
C5    C     C_R   0.690664 0.758865 0.946209 0.094693
C6    C     C_R   0.280452 0.052244 0.974844 0.087633
C7    C     C_R   0.793759 0.762766 0.018753 -0.173204
C8    C     C_R   0.190103 0.025467 0.925288 -0.144981
C9    C     C_R   0.889476 0.691715 0.004543 -0.033668
C10   C     C_R   0.085002 0.101207 0.914525 -0.097745
C11   C     C_R   0.883467 0.615293 0.919292 -0.121064
C12   C     C_R   0.195456 0.063138 0.227425 -0.138443
C13   C     C_R   0.069272 0.204154 0.953761 -0.091173
C14   C     C_R   0.583252 0.852298 0.052070 -0.210539
C15   C     C_R   0.393073 0.954562 0.882649 -0.235551
C16   C     C_R   0.239962 0.288832 0.487846 -0.066908
C17   C     C_R   0.798705 0.725534 0.557815 -0.048184
C18   C     C_R   0.486943 0.926052 0.064965 0.059788
C19   C     C_R   0.493611 0.898292 0.875586 0.040425
C20   C     C_R   0.388467 0.973000 0.976162 0.034775
C21   C     C_R   0.587831 0.837202 0.957186 0.034891
C22   C     C_2   0.142952 0.394612 0.607181 -0.171077
C23   C     C_R   0.206903 0.297843 0.561841 0.146198
C24   C     C_2   0.973820 0.650741 0.534157 -0.183552
C25   C     C_2   0.123660 0.485500 0.589285 -0.052409
C26   C     C_2   0.031355 0.578704 0.600976 -0.093158
C27   C     C_2   0.829643 0.130521 0.902350 -0.187142
C28   C     C_2   0.014665 0.046884 0.157706 -0.199652
C29   C     C_R   0.266850 0.816900 0.622894 -0.112732
C30   C     C_R   0.587291 0.165835 0.199593 -0.089256
C31   C     C_R   0.354507 0.736906 0.600837 -0.095014
C32   C     C_R   0.540567 0.260467 0.251439 -0.107485
C33   C     C_R   0.333609 0.674789 0.504417 -0.003265
C34   C     C_R   0.860666 0.725474 0.517178 0.142628
C35   C     C_R   0.608541 0.300795 0.345273 0.012743
C36   C     C_R   0.221955 0.698310 0.426991 0.594773
C37   C     C_R   0.725638 0.243481 0.388013 0.505898
C38   C     C_R   0.135157 0.781374 0.449715 -0.278249
C39   C     C_R   0.770919 0.148780 0.334151 -0.245092
C40   C     C_R   0.596139 0.220364 0.503407 -0.113943
C41   C     C_R   0.403544 0.773392 0.438390 -0.104364
C42   C     C_R   0.157479 0.839350 0.547567 -0.162683
C43   C     C_R   0.702267 0.110218 0.240746 -0.179169
C44   C     C_R   0.458505 0.488999 0.514897 0.573802
C45   C     C_R   0.506179 0.307581 0.461603 0.162705
C46   C     C_R   0.541185 0.494567 0.387818 0.567141
C47   C     C_R   0.510604 0.399116 0.461664 -0.204415
C48   C     C_R   0.480983 0.585199 0.435297 -0.180775
C49   C     C_R   0.553377 0.399570 0.398867 -0.117897
C50   C     C_R   0.428164 0.582838 0.487309 -0.120537
C51   C     C_2   0.855479 0.107076 0.994288 -0.080478
C52   C     C_2   0.952879 0.116650 0.087583 -0.103728
C53   C     C_R   0.407632 0.982227 0.711687 -0.131909
C54   C     C_R   0.589950 0.950525 0.266040 -0.102806
C55   C     C_R   0.410780 0.295395 0.426204 -0.036733
C56   C     C_R   0.491823 0.679178 0.452216 0.210571
C57   C     C_R   0.588356 0.694586 0.521750 -0.099768
C58   C     C_R   0.591266 0.911552 0.789401 -0.143717
C59   C     C_R   0.405197 0.017572 0.195207 -0.127089
C60   C     C_R   0.240163 0.198437 0.580609 -0.098662
C61   C     C_R   0.800765 0.815072 0.467316 -0.138368
C62   C     C_R   0.751650 0.088652 0.702768 -0.103364
C63   C     C_R   0.195325 0.971761 0.316453 -0.101967
C64   C     C_R   0.777527 0.075306 0.802752 0.137261
C65   C     C_R   0.131692 0.025314 0.228618 0.159354
C66   C     C_R   0.498845 0.926944 0.795224 0.055941
C67   C     C_R   0.494376 0.959382 0.171280 0.057750
C68   C     C_R   0.781606 0.609941 0.847764 -0.108446
H1    H     H_    0.760197 0.964790 0.852549 0.093490
H2    H     H_    0.332311 0.178479 0.047395 0.111922
H3    H     H_    0.799445 0.822370 0.084438 0.117460
H4    H     H_    0.200932 0.946222 0.893536 0.129597
H5    H     H_    0.968191 0.696460 0.059033 0.187523
H6    H     H_    0.016041 0.079517 0.874292 0.117605
H7    H     H_    0.656454 0.809509 0.117028 0.140382
H8    H     H_    0.318206 0.998208 0.819699 0.131969
H9    H     H_    0.000952 0.579712 0.652096 0.131744
H10   H     H_    0.162081 0.489131 0.548695 0.186201
H11   H     H_    0.005759 0.648388 0.483515 0.161389
H12   H     H_    0.166713 0.120420 0.178808 0.099514
H13   H     H_    0.102301 0.391385 0.646213 0.162598
H14   H     H_    0.089836 0.902270 0.564770 0.156249
H15   H     H_    0.738304 0.036752 0.200472 0.131896
H16   H     H_    0.224665 0.349770 0.452226 0.114922
H17   H     H_    0.824798 0.674652 0.611745 0.086167
H18   H     H_    0.283488 0.861277 0.698715 0.124981
H19   H     H_    0.534374 0.135332 0.127531 0.119739
H20   H     H_    0.438797 0.722355 0.659385 0.147090
H21   H     H_    0.450984 0.302421 0.218760 0.131126
H22   H     H_    0.049587 0.801546 0.391509 0.167300
H23   H     H_    0.982485 0.996496 0.155673 0.138717
H24   H     H_    0.860042 0.104029 0.365221 0.168207
H25   H     H_    0.682109 0.200513 0.527242 0.111240
H26   H     H_    0.316837 0.789051 0.391761 0.131694
H27   H     H_    0.322088 0.995868 0.680947 0.095832
H28   H     H_    0.675337 0.910639 0.277740 0.096033
H29   H     H_    0.326339 0.345772 0.379742 0.135570
H30   H     H_    0.672363 0.636154 0.554109 0.150552
H31   H     H_    0.676935 0.863909 0.835020 0.111970
H32   H     H_    0.319855 0.032035 0.145658 0.129185
H33   H     H_    0.226700 0.177452 0.632992 0.120206
H34   H     H_    0.860771 0.179873 0.900921 0.127283
H35   H     H_    0.831774 0.845323 0.439807 0.099308
H36   H     H_    0.764207 0.143359 0.684725 0.119587
H37   H     H_    0.164527 0.946551 0.349128 0.101654
H38   H     H_    0.983938 0.167285 0.088442 0.133164
H39   H     H_    0.822084 0.060433 0.996882 0.125314
H40   H     H_    0.252869 0.479727 0.223162 0.366834
H41   H     H_    0.745392 0.357509 0.617554 0.344746
H42   H     H_    0.451869 0.572081 0.770219 0.384918
H43   H     H_    0.683246 0.365978 0.232611 0.370056
H44   H     H_    0.957688 0.560395 0.908541 0.130046
H45   H     H_    0.987633 0.262820 0.945447 0.116686
H46   H     H_    0.776910 0.550789 0.781694 0.156010
H47   H     H_    0.146399 0.311478 0.031824 0.124034
H48   H     H_    0.607344 0.676548 0.805136 0.147949
N1    N     N_R   0.705410 0.966550 0.689210 -0.051803
N2    N     N_R   0.556610 0.796750 0.548620 -0.061314
N3    N     N_R   0.556610 0.951620 0.703500 -0.038345
N4    N     N_R   0.443390 0.048380 0.296500 -0.051668
N5    N     N_R   0.294590 0.131500 0.522480 -0.052441
N6    N     N_R   0.705410 0.868500 0.477520 -0.042279
N7    N     N_R   0.705410 0.023370 0.632390 -0.050000
N8    N     N_R   0.294590 0.976630 0.367610 -0.044100
N9    N     N_R   0.294590 0.033450 0.310790 -0.044922
N10   N     N_R   0.294590 0.188320 0.465660 -0.055890
N11   N     N_R   0.705410 0.811680 0.534340 -0.047736
N12   N     N_R   0.556610 0.157790 0.497330 -0.042417
N13   N     N_R   0.443390 0.842210 0.502670 -0.062011
N14   N     N_R   0.443390 0.997080 0.657540 -0.037454
N15   N     N_R   0.556610 0.002920 0.342460 -0.044403
N16   N     N_R   0.443390 0.203250 0.451380 -0.051849
Ni1   Ni    Ni4+2 0.629830 0.882720 0.617850 0.222226
Ni2   Ni    Ni4+2 0.370170 0.117280 0.382150 0.226884
Ni3   Ni    Ni4+2 0.629830 0.013030 0.487540 0.232792
Ni4   Ni    Ni4+2 0.370170 0.986970 0.512460 0.228517
O1    O     O_2   0.070599 0.640670 0.253706 -0.326987
O2    O     O_2   0.520806 0.602820 0.261392 -0.248870
O3    O     O_2   0.708290 0.501650 0.384424 -0.270790
O4    O     O_3   0.603258 0.404636 0.216009 -0.516593
O5    O     O_2   0.190327 0.682646 0.230805 -0.323516
O6    O     O_3   0.273707 0.506149 0.298472 -0.581810
O7    O     O_2   0.898715 0.194180 0.575435 -0.343695
O8    O     O_2   0.886088 0.310139 0.484678 -0.231115
O9    O     O_3   0.757010 0.386472 0.576497 -0.546954
O10   O     O_2   0.309086 0.533527 0.581253 -0.338660
O11   O     O_2   0.482274 0.379491 0.647168 -0.284942
O12   O     O_3   0.487599 0.558124 0.725378 -0.565463
S1    S     S_3+6 0.186423 0.632156 0.298766 -0.082746
S2    S     S_3+6 0.819773 0.283341 0.508375 -0.049379
S3    S     S_3+6 0.432343 0.486620 0.617187 -0.058269
S4    S     S_3+6 0.594801 0.502880 0.312050 0.002435

loop_
_geom_bond_atom_site_label_1
_geom_bond_atom_site_label_2
_ccdc_geom_bond_type
N9    Ni2   S    
C46   S4    S    
C63   C65   A    
C59   N4    A    
C29   C42   A    
C53   H27   S    
N4    N15   A    
C43   H15   S    
C14   C18   A    
O11   S3    D    
C3    C68   A    
C42   H14   S    
O12   S3    S    
C40   H25   S    
N1    Ni1   S    
C33   C36   A    
C4    H2    S    
C63   N8    A    
O5    S1    D    
C47   C49   A    
C15   C19   A    
C54   N15   A    
C46   C49   A    
N3    Ni1   S    
C17   H17   S    
C14   C21   A    
C35   C37   A    
C24   C26   D    
C38   C42   A    
N15   Ni3   S    
C3    H48   S    
C7    H3    S    
C36   S1    S    
C40   N12   A    
O3    S4    D    
C16   H16   S    
N3    N14   A    
C56   C57   A    
C19   C66   S    
C48   C56   S    
N6    N11   A    
C2    C13   A    
O8    S2    D    
C33   C50   S    
C59   C67   A    
C58   C66   A    
O7    S2    D    
C41   H26   S    
C22   C25   D    
C35   C49   S    
C62   C64   A    
C31   C33   A    
C63   H37   S    
C37   S2    S    
C54   H28   S    
O9    S2    S    
C44   C47   A    
C28   C52   D    
C48   C50   A    
C15   H8    S    
C52   H38   S    
C59   H32   S    
O1    S1    D    
C23   C60   A    
C9    H5    S    
H42   O12   S    
N12   N16   A    
H40   O6    S    
C62   N7    A    
C27   C51   D    
H43   O4    S    
C62   H36   S    
C45   C47   S    
C40   C45   A    
C37   C39   A    
C46   C48   A    
C8    H4    S    
C26   H9    S    
N8    Ni4   S    
C51   C52   S    
C44   S3    S    
C22   H13   S    
C4    C6    A    
N12   Ni3   S    
C5    C7    A    
C17   N11   A    
C39   C43   A    
C12   N9    A    
O2    S4    D    
C18   C67   S    
N14   Ni4   S    
C34   C61   A    
C24   C34   S    
C25   H10   S    
N7    Ni3   S    
C15   C20   A    
C2    C4    A    
C32   C35   A    
C41   C56   A    
C41   N13   A    
N13   Ni4   S    
C2    H47   S    
C24   H11   S    
C32   H21   S    
C55   H29   S    
C1    N1    A    
C53   C66   A    
C9    C11   A    
C45   C55   A    
C29   H18   S    
N2    Ni1   S    
N16   Ni2   S    
C16   C23   A    
C30   C43   A    
C17   C34   A    
C60   H33   S    
C1    C64   A    
C39   H24   S    
C11   C68   A    
O6    S1    S    
C44   C50   A    
C7    C9    A    
O4    S4    S    
N4    Ni2   S    
C31   H20   S    
C61   H35   S    
C11   H44   S    
C8    C10   A    
H41   O9    S    
C58   H31   S    
N11   Ni1   S    
C3    C5    A    
C10   C13   A    
C6    C8    A    
C54   C67   A    
C6    C20   S    
C12   C65   A    
C38   H22   S    
C27   H34   S    
C14   H7    S    
C36   C38   A    
C28   C65   S    
C25   C26   S    
N5    N10   A    
C29   C31   A    
N2    N13   A    
C30   C32   A    
C10   H6    S    
C57   H30   S    
C12   H12   S    
C58   N3    A    
C28   H23   S    
C18   C20   A    
N5    Ni4   S    
N1    N7    A    
C60   N5    A    
C1    H1    S    
N6    Ni3   S    
C27   C64   S    
O10   S3    D    
C5    C21   S    
N10   Ni2   S    
C51   H39   S    
C55   N16   A    
C22   C23   S    
C61   N6    A    
C53   N14   A    
C30   H19   S    
C16   N10   A    
N8    N9    A    
C13   H45   S    
C68   H46   S    
C57   N2    A    
C19   C21   A    
