data_mof_unit_47450.cif
_audit_creation_date              2012-12-11T16:21:28-0500
_audit_creation_method            fapswitch 2.2
_symmetry_space_group_name_H-M    P1
_symmetry_Int_Tables_number       1
_space_group_crystal_system       triclinic
_cell_length_a                    7.22213
_cell_length_b                    37.046846
_cell_length_c                    41.08459
_cell_angle_alpha                 90.002901
_cell_angle_beta                  90.129471
_cell_angle_gamma                 89.897323
_cell_volume                      10992.4295845

loop_
_atom_site_label
_atom_site_type_symbol
_atom_type_description
_atom_site_fract_x
_atom_site_fract_y
_atom_site_fract_z
_atom_type_partial_charge
O1    O     O_R   0.564240 0.782760 0.216890 -0.536246
O2    O     O_R   0.435760 0.217240 0.783110 -0.536637
O3    O     O_R   0.435760 0.217240 0.716890 -0.536529
O4    O     O_R   0.564240 0.782760 0.283110 -0.536853
O5    O     O_R   0.064240 0.717240 0.283110 -0.536373
O6    O     O_R   0.935760 0.282760 0.716890 -0.536955
O7    O     O_R   0.935760 0.282760 0.783110 -0.536298
O8    O     O_R   0.064240 0.717240 0.216890 -0.536705
O9    O     O_R   0.234510 0.787070 0.282870 -0.539877
O10   O     O_R   0.765490 0.212930 0.717130 -0.540322
O11   O     O_R   0.765490 0.212930 0.782870 -0.539895
O12   O     O_R   0.234510 0.787070 0.217130 -0.540339
O13   O     O_R   0.734510 0.712930 0.217130 -0.540029
O14   O     O_R   0.265490 0.287070 0.782870 -0.540145
O15   O     O_R   0.265490 0.287070 0.717130 -0.539668
O16   O     O_R   0.734510 0.712930 0.282870 -0.540345
C1    C     C_R   0.403108 0.795849 0.293621 0.698149
C2    C     C_R   0.597111 0.204199 0.706339 0.697070
C3    C     C_R   0.597239 0.204143 0.793600 0.697133
C4    C     C_R   0.402594 0.795828 0.206360 0.697952
C5    C     C_R   0.903043 0.704151 0.206379 0.697600
C6    C     C_R   0.097180 0.295794 0.793665 0.697989
C7    C     C_R   0.096716 0.295845 0.706384 0.698192
C8    C     C_R   0.903063 0.704208 0.293660 0.697488
O17   O     O_3   0.397750 0.727090 0.250000 -0.375606
O18   O     O_3   0.602250 0.272910 0.750000 -0.375406
O19   O     O_3   0.897750 0.772910 0.250000 -0.375279
O20   O     O_3   0.102250 0.227090 0.750000 -0.375872
V1    V     V_3+5 0.122890 0.754250 0.250000 1.405840
V2    V     V_3+5 0.877110 0.245750 0.750000 1.404623
V3    V     V_3+5 0.622890 0.745750 0.250000 1.405228
V4    V     V_3+5 0.377110 0.254250 0.750000 1.405082
C9    C     C_R   0.905369 0.612403 0.429412 0.576356
C10   C     C_R   0.116474 0.393696 0.573239 0.573087
C11   C     C_R   0.097094 0.387659 0.929445 0.576657
C12   C     C_R   0.881548 0.606167 0.073235 0.572941
C13   C     C_R   0.452948 0.886483 0.070252 0.573523
C14   C     C_R   0.569981 0.109281 0.927969 0.573587
C15   C     C_R   0.595605 0.112313 0.570604 0.576557
C16   C     C_R   0.382805 0.893758 0.426788 0.572931
O21   O     O_2   0.888285 0.648065 0.435396 -0.519248
O22   O     O_2   0.199588 0.361635 0.567702 -0.523608
O23   O     O_2   0.115516 0.352021 0.935439 -0.518887
O24   O     O_2   0.797543 0.638146 0.067669 -0.523739
O25   O     O_2   0.483929 0.850998 0.065172 -0.521063
O26   O     O_2   0.602863 0.144273 0.934977 -0.520173
O27   O     O_2   0.612848 0.147959 0.564614 -0.519134
O28   O     O_2   0.299746 0.861754 0.432342 -0.523751
N1    N     N_R   0.924962 0.600493 0.398094 -0.559068
N2    N     N_R   0.052183 0.401730 0.603682 -0.557696
N3    N     N_R   0.076404 0.399530 0.898119 -0.559079
N4    N     N_R   0.946498 0.598204 0.103702 -0.557590
N5    N     N_R   0.418790 0.898751 0.101085 -0.559929
N6    N     N_R   0.559751 0.098389 0.896220 -0.560854
N7    N     N_R   0.576025 0.100430 0.601927 -0.558972
N8    N     N_R   0.446837 0.901748 0.396328 -0.557675
C17   C     C_R   0.939340 0.564426 0.391304 0.578869
C18   C     C_R   0.969552 0.434281 0.609982 0.590284
C19   C     C_R   0.060552 0.435581 0.891333 0.579120
C20   C     C_R   0.030022 0.565728 0.110027 0.590175
C21   C     C_R   0.382956 0.934529 0.106750 0.592335
C22   C     C_R   0.528149 0.063015 0.888458 0.587214
C23   C     C_R   0.561411 0.064374 0.608714 0.578611
C24   C     C_R   0.529388 0.934246 0.390014 0.590383
C25   C     C_R   0.751323 0.638791 0.359800 -0.106679
C26   C     C_R   0.903515 0.360323 0.642640 -0.094430
C27   C     C_R   0.249734 0.360885 0.860160 -0.106022
C28   C     C_R   0.095395 0.639717 0.142660 -0.094723
C29   C     C_R   0.249593 0.865451 0.143615 -0.094641
C30   C     C_R   0.409652 0.135787 0.854230 -0.105898
C31   C     C_R   0.749426 0.138968 0.639987 -0.106762
C32   C     C_R   0.595700 0.860262 0.357372 -0.094342
C33   C     C_R   0.745711 0.663868 0.334389 -0.185243
C34   C     C_R   0.913831 0.334726 0.667588 -0.189226
C35   C     C_R   0.255090 0.335810 0.834737 -0.184829
C36   C     C_R   0.085328 0.665320 0.167599 -0.189148
C37   C     C_R   0.245529 0.840490 0.169148 -0.189593
C38   C     C_R   0.418088 0.161498 0.829350 -0.187186
C39   C     C_R   0.754855 0.164057 0.665395 -0.185728
C40   C     C_R   0.585568 0.834669 0.332424 -0.188770
C41   C     C_R   0.081054 0.664069 0.332496 -0.191912
C42   C     C_R   0.248624 0.338359 0.666473 -0.191360
C43   C     C_R   0.919854 0.336249 0.832184 -0.192104
C44   C     C_R   0.750564 0.661557 0.166446 -0.191629
C45   C     C_R   0.576555 0.831608 0.163965 -0.190577
C46   C     C_R   0.750740 0.165219 0.836348 -0.192274
C47   C     C_R   0.419625 0.163827 0.667737 -0.192857
C48   C     C_R   0.250752 0.838423 0.333547 -0.191081
C49   C     C_R   0.086136 0.638831 0.357923 -0.087086
C50   C     C_R   0.237857 0.364004 0.641446 -0.092971
C51   C     C_R   0.915033 0.361493 0.857606 -0.086723
C52   C     C_R   0.761081 0.635897 0.141423 -0.092996
C53   C     C_R   0.580042 0.856509 0.138283 -0.090544
C54   C     C_R   0.741641 0.139640 0.861437 -0.091404
C55   C     C_R   0.414733 0.138572 0.642324 -0.087349
C56   C     C_R   0.261334 0.864069 0.358579 -0.092699
C57   C     C_R   0.921217 0.626182 0.371754 0.385395
C58   C     C_R   0.065138 0.375147 0.629343 0.374251
C59   C     C_R   0.080005 0.373826 0.871780 0.384487
C60   C     C_R   0.933679 0.624811 0.129345 0.374179
C61   C     C_R   0.416468 0.873516 0.127885 0.376354
C62   C     C_R   0.570987 0.124795 0.870502 0.383298
C63   C     C_R   0.579669 0.126131 0.628264 0.385041
C64   C     C_R   0.433986 0.875154 0.370677 0.374134
C65   C     C_R   0.919996 0.550467 0.448946 -0.105265
C66   C     C_R   0.001262 0.451403 0.553048 -0.111969
C67   C     C_R   0.080655 0.449582 0.948979 -0.105339
C68   C     C_R   0.997972 0.548568 0.053076 -0.111954
C69   C     C_R   0.421516 0.947573 0.049074 -0.110585
C70   C     C_R   0.504469 0.047905 0.945899 -0.109198
C71   C     C_R   0.580527 0.050386 0.551069 -0.105354
C72   C     C_R   0.498203 0.951385 0.446963 -0.111947
C73   C     C_R   0.904842 0.587684 0.455416 0.017556
C74   C     C_R   0.094299 0.418459 0.547547 0.016899
C75   C     C_R   0.097200 0.412384 0.955451 0.017402
C76   C     C_R   0.904023 0.581422 0.047546 0.016831
C77   C     C_R   0.455479 0.910616 0.043788 0.015412
C78   C     C_R   0.544700 0.084249 0.953344 0.019229
C79   C     C_R   0.595841 0.087590 0.544599 0.017457
C80   C     C_R   0.405233 0.918503 0.452482 0.016904
C81   C     C_R   0.891467 0.599412 0.487652 -0.168704
C82   C     C_R   0.165321 0.411062 0.516623 -0.183919
C83   C     C_R   0.111407 0.400679 0.987694 -0.168191
C84   C     C_R   0.832463 0.588755 0.016593 -0.183869
C85   C     C_R   0.492993 0.898538 0.012282 -0.166004
C86   C     C_R   0.557996 0.094873 0.985916 -0.185057
C87   C     C_R   0.609007 0.099304 0.512359 -0.168407
C88   C     C_R   0.334564 0.911145 0.483428 -0.183894
C89   C     C_R   0.924439 0.538444 0.416489 -0.209232
C90   C     C_R   0.936550 0.459458 0.584584 -0.213583
C91   C     C_R   0.075183 0.461588 0.916521 -0.209187
C92   C     C_R   0.063245 0.540571 0.084640 -0.213617
C93   C     C_R   0.376981 0.959536 0.080676 -0.215277
C94   C     C_R   0.489419 0.037345 0.913106 -0.208434
C95   C     C_R   0.576164 0.038375 0.583527 -0.208931
C96   C     C_R   0.562565 0.959404 0.415407 -0.213805
C97   C     C_R   0.910502 0.676992 0.320383 -0.052138
C98   C     C_R   0.086548 0.323324 0.679904 -0.052760
C99   C     C_R   0.090205 0.323007 0.820397 -0.052346
C100  C     C_R   0.912766 0.676662 0.179897 -0.052748
C101  C     C_R   0.408867 0.823081 0.179661 -0.052677
C102  C     C_R   0.588800 0.176606 0.820012 -0.051589
C103  C     C_R   0.590013 0.176973 0.679622 -0.052077
C104  C     C_R   0.412943 0.823329 0.320107 -0.052743
H1    H     H_    0.210728 0.673434 0.322400 0.133212
H2    H     H_    0.384100 0.330346 0.675234 0.133050
H3    H     H_    0.790107 0.327143 0.821822 0.133429
H4    H     H_    0.615210 0.669523 0.175192 0.132906
H5    H     H_    0.705032 0.818825 0.171272 0.134147
H6    H     H_    0.884589 0.176230 0.829950 0.132844
H7    H     H_    0.289916 0.173023 0.678012 0.133156
H8    H     H_    0.115350 0.830457 0.324785 0.132984
H9    H     H_    0.882803 0.627898 0.493418 0.170942
H10   H     H_    0.244673 0.386750 0.512129 0.168069
H11   H     H_    0.121071 0.372204 0.993463 0.171029
H12   H     H_    0.752478 0.612994 0.012074 0.167878
H13   H     H_    0.522852 0.870347 0.007583 0.171783
H14   H     H_    0.593815 0.122339 0.992371 0.173078
H15   H     H_    0.617734 0.127782 0.506592 0.170992
H16   H     H_    0.255304 0.886883 0.487938 0.167905
C105  C     C_R   0.899950 0.510995 0.533159 -0.146537
C106  C     C_R   0.976355 0.488921 0.468228 -0.125814
C107  C     C_R   0.100750 0.489088 0.033207 -0.146635
C108  C     C_R   0.022724 0.511071 0.968248 -0.125700
C109  C     C_R   0.456787 0.985183 0.963931 -0.140689
C110  C     C_R   0.420818 0.009947 0.029153 -0.149940
C111  C     C_R   0.599823 0.010894 0.466844 -0.146635
C112  C     C_R   0.523882 0.988880 0.531794 -0.125783
C113  C     C_R   0.028748 0.466416 0.494909 0.109920
C114  C     C_R   0.905494 0.537141 0.507534 0.104842
C115  C     C_R   0.970143 0.533531 0.994917 0.109894
C116  C     C_R   0.095642 0.462936 0.007575 0.104668
C117  C     C_R   0.472861 0.034410 0.004110 0.109919
C118  C     C_R   0.460585 0.959836 0.990416 0.105401
C119  C     C_R   0.471293 0.966407 0.505120 0.109909
C120  C     C_R   0.594569 0.037043 0.492475 0.104737
C121  C     C_R   0.975432 0.476289 0.526997 0.005053
C122  C     C_R   0.931182 0.525340 0.474954 0.002826
C123  C     C_R   0.024161 0.523712 0.027026 0.005134
C124  C     C_R   0.069093 0.474702 0.974986 0.002806
C125  C     C_R   0.477189 0.022403 0.971323 0.003242
C126  C     C_R   0.433041 0.972496 0.022768 0.011307
C127  C     C_R   0.524319 0.976246 0.473017 0.005133
C128  C     C_R   0.569087 0.025265 0.525061 0.002777
C129  C     C_R   0.822678 0.517769 0.564588 0.309406
C130  C     C_R   0.957472 0.476296 0.435466 0.337472
C131  C     C_R   0.178615 0.482394 0.064667 0.309413
C132  C     C_R   0.040682 0.523706 0.935488 0.337421
C133  C     C_R   0.426718 0.975333 0.930637 0.337275
C134  C     C_R   0.351541 0.021232 0.060056 0.301749
C135  C     C_R   0.676805 0.017616 0.435393 0.309444
C136  C     C_R   0.542939 0.976247 0.564555 0.337538
C137  C     C_R   0.840336 0.492193 0.589762 0.383174
C138  C     C_R   0.910651 0.500850 0.410294 0.368246
C139  C     C_R   0.160333 0.507926 0.089854 0.383246
C140  C     C_R   0.087725 0.499196 0.910325 0.368309
C141  C     C_R   0.430930 0.001843 0.905857 0.365832
C142  C     C_R   0.325137 0.995967 0.085125 0.387415
C143  C     C_R   0.658701 0.992075 0.410206 0.383340
C144  C     C_R   0.589893 0.000771 0.589722 0.368410
O29   O     O_2   0.923032 0.442344 0.640899 -0.514556
O30   O     O_2   0.970148 0.553782 0.360387 -0.515749
O31   O     O_2   0.077315 0.557724 0.140956 -0.514655
O32   O     O_2   0.028599 0.446187 0.860417 -0.515700
O33   O     O_2   0.537017 0.052708 0.857002 -0.510467
O34   O     O_2   0.358729 0.945957 0.137623 -0.506381
O35   O     O_2   0.575731 0.942272 0.359089 -0.514136
O36   O     O_2   0.530543 0.053758 0.639630 -0.516568
C145  C     C_R   0.890900 0.574692 0.513146 -0.190323
C146  C     C_R   0.135802 0.434842 0.490935 -0.168488
C147  C     C_R   0.111467 0.425401 0.013189 -0.190151
C148  C     C_R   0.862242 0.565006 0.990910 -0.168361
C149  C     C_R   0.494651 0.922466 0.986194 -0.175429
C150  C     C_R   0.524648 0.070332 0.010813 -0.173990
C151  C     C_R   0.609224 0.074583 0.486863 -0.190182
C152  C     C_R   0.364313 0.934900 0.509116 -0.168421
H17   H     H_    0.769172 0.368616 0.633527 0.113027
H18   H     H_    0.623145 0.629141 0.370277 0.108720
H19   H     H_    0.229644 0.631478 0.133571 0.113088
H20   H     H_    0.377979 0.370284 0.870897 0.109400
H21   H     H_    0.277060 0.124460 0.861006 0.102524
H22   H     H_    0.122229 0.878318 0.135818 0.110342
H23   H     H_    0.729990 0.868504 0.366478 0.113066
H24   H     H_    0.877634 0.129484 0.629335 0.109104
H25   H     H_    0.218281 0.629226 0.366967 0.110540
H26   H     H_    0.363903 0.375347 0.631572 0.115239
H27   H     H_    0.783013 0.371347 0.866383 0.110890
H28   H     H_    0.634949 0.624495 0.131537 0.115259
H29   H     H_    0.710090 0.862565 0.126421 0.116323
H30   H     H_    0.867307 0.131285 0.873758 0.112097
H31   H     H_    0.282695 0.128796 0.633465 0.110681
H32   H     H_    0.135206 0.875462 0.368457 0.115241
H33   H     H_    0.785885 0.323901 0.677163 0.135042
H34   H     H_    0.611671 0.673077 0.325902 0.133467
H35   H     H_    0.213385 0.676196 0.177183 0.135080
H36   H     H_    0.388958 0.326338 0.826510 0.133439
H37   H     H_    0.290574 0.169387 0.817375 0.134461
H38   H     H_    0.113716 0.834806 0.180540 0.135090
H39   H     H_    0.713612 0.823800 0.322848 0.135085
H40   H     H_    0.888753 0.173448 0.673702 0.133311
O37   O     O_3   0.769825 0.500866 0.620101 -0.525097
C153  C     C_3   0.588126 0.486903 0.623345 0.173463
H41   H     H_    0.593169 0.461121 0.637099 0.154371
H42   H     H_    0.518168 0.481000 0.599688 0.052264
C154  C     C_3   0.471613 0.513878 0.642664 -0.342343
H43   H     H_    0.528597 0.516317 0.667722 0.212677
H44   H     H_    0.478493 0.540842 0.630919 0.215705
C155  C     C_3   0.269832 0.502127 0.644504 -0.738063
H45   H     H_    0.208935 0.501325 0.619694 0.229866
H46   H     H_    0.190041 0.521731 0.659367 0.250510
H47   H     H_    0.259367 0.475028 0.655908 0.250380
O38   O     O_3   0.862918 0.487371 0.379753 -0.551400
C156  C     C_3   0.685855 0.500354 0.369418 0.156997
H48   H     H_    0.691657 0.504237 0.342627 0.171742
H49   H     H_    0.645369 0.526900 0.379885 0.106026
C157  C     C_3   0.531135 0.473425 0.376917 -0.453070
H50   H     H_    0.558159 0.447653 0.363926 0.207832
H51   H     H_    0.525878 0.468423 0.403559 0.199431
C158  C     C_3   0.342674 0.487814 0.366096 -0.683137
H52   H     H_    0.307806 0.512866 0.379641 0.235021
H53   H     H_    0.234895 0.467260 0.371179 0.268605
H54   H     H_    0.342839 0.493592 0.339569 0.233396
O39   O     O_3   0.231040 0.499285 0.120242 -0.525110
C159  C     C_3   0.412607 0.513315 0.123620 0.173884
H55   H     H_    0.407372 0.539043 0.137450 0.154394
H56   H     H_    0.482288 0.519343 0.100021 0.052205
C160  C     C_3   0.529582 0.486322 0.142924 -0.342372
H57   H     H_    0.472904 0.483793 0.167951 0.212706
H58   H     H_    0.522795 0.459390 0.131112 0.216121
C161  C     C_3   0.731284 0.498131 0.144882 -0.737641
H59   H     H_    0.791940 0.498996 0.120104 0.230155
H60   H     H_    0.811372 0.478523 0.159754 0.250536
H61   H     H_    0.741644 0.525211 0.156336 0.250316
O40   O     O_3   0.134492 0.512722 0.879793 -0.551416
C162  C     C_3   0.311676 0.499915 0.869480 0.156939
H62   H     H_    0.305439 0.496047 0.842685 0.171621
H63   H     H_    0.353030 0.473400 0.879934 0.106221
C163  C     C_3   0.465902 0.526978 0.877027 -0.453016
H64   H     H_    0.438042 0.552732 0.864041 0.207448
H65   H     H_    0.471522 0.531973 0.903671 0.199594
C164  C     C_3   0.654506 0.512760 0.866241 -0.683553
H66   H     H_    0.690200 0.487725 0.879773 0.235063
H67   H     H_    0.761922 0.533400 0.871366 0.268479
H68   H     H_    0.653995 0.507005 0.839709 0.233168
O41   O     O_3   0.375925 0.992501 0.874624 -0.535370
C165  C     C_3   0.198245 0.007646 0.868502 0.120891
H69   H     H_    0.204143 0.037571 0.867054 0.137217
H70   H     H_    0.098125 0.000604 0.888076 0.081903
C166  C     C_3   0.124369 0.993478 0.836064 -0.318678
H71   H     H_    0.217241 0.002411 0.816098 0.223471
H72   H     H_    0.122629 0.963493 0.836377 0.193292
C167  C     C_3   0.928552 0.007302 0.829466 -0.748074
H73   H     H_    0.832531 0.997843 0.848755 0.255910
H74   H     H_    0.879268 0.996881 0.805643 0.235819
H75   H     H_    0.926931 0.037281 0.828712 0.242261
O42   O     O_3   0.244034 0.007653 0.113760 -0.523653
C168  C     C_3   0.054117 0.997981 0.113412 0.152596
H76   H     H_    0.037435 0.969898 0.122445 0.143704
H77   H     H_    0.991129 0.999424 0.088591 0.058607
C169  C     C_3   0.946989 0.023440 0.135775 -0.325352
H78   H     H_    0.997895 0.020255 0.161167 0.217429
H79   H     H_    0.970891 0.051814 0.128065 0.207088
C170  C     C_3   0.739593 0.015643 0.134657 -0.741271
H80   H     H_    0.685378 0.020028 0.109647 0.228902
H81   H     H_    0.665733 0.034115 0.151508 0.250354
H82   H     H_    0.711915 0.987354 0.142145 0.250039
O43   O     O_3   0.728625 0.000730 0.379833 -0.524938
C171  C     C_3   0.910428 0.986720 0.376491 0.173647
H83   H     H_    0.905468 0.960979 0.362678 0.154655
H84   H     H_    0.980735 0.980724 0.400105 0.052034
C172  C     C_3   0.026416 0.013712 0.357187 -0.341848
H85   H     H_    0.969141 0.016220 0.332151 0.213630
H86   H     H_    0.019323 0.040652 0.368984 0.215928
C173  C     C_3   0.228322 0.001920 0.355259 -0.736175
H87   H     H_    0.289524 0.001070 0.380046 0.229628
H88   H     H_    0.307686 0.021530 0.340392 0.251011
H89   H     H_    0.238999 0.974837 0.343815 0.250624
O44   O     O_3   0.637736 0.987259 0.620257 -0.551633
C174  C     C_3   0.814801 0.000127 0.630586 0.155992
H90   H     H_    0.809013 0.004027 0.657376 0.170474
H91   H     H_    0.855276 0.026640 0.620109 0.106403
C175  C     C_3   0.969552 0.973094 0.623092 -0.452324
H92   H     H_    0.942542 0.947342 0.636083 0.206929
H93   H     H_    0.974826 0.968085 0.596451 0.199709
C176  C     C_3   0.158000 0.987361 0.633917 -0.685579
H94   H     H_    0.192826 0.012399 0.620385 0.235536
H95   H     H_    0.265832 0.966745 0.628823 0.268490
H96   H     H_    0.157829 0.993126 0.660447 0.231951
O45   O     O_3   0.734040 0.549755 0.572272 -0.562657
C177  C     C_3   0.555271 0.550491 0.558254 0.066848
H97   H     H_    0.464656 0.530006 0.569713 0.119947
H98   H     H_    0.558307 0.545297 0.531577 0.126944
C178  C     C_3   0.472036 0.587819 0.564092 -0.280479
H99   H     H_    0.470044 0.593616 0.590634 0.204382
H100  H     H_    0.558658 0.608577 0.551933 0.199095
C179  C     C_3   0.275686 0.590114 0.550867 -0.822849
H101  H     H_    0.275559 0.584992 0.524225 0.242946
H102  H     H_    0.218365 0.617477 0.555406 0.237214
H103  H     H_    0.186646 0.569914 0.563225 0.240671
O46   O     O_3   0.002588 0.440932 0.427605 -0.577333
C180  C     C_3   0.845285 0.418920 0.422569 0.097496
H104  H     H_    0.897675 0.391422 0.416915 0.147927
H105  H     H_    0.768603 0.427249 0.400698 0.154095
C181  C     C_3   0.717718 0.415796 0.452399 -0.370231
H106  H     H_    0.798115 0.405607 0.473547 0.224815
H107  H     H_    0.657995 0.442546 0.458703 0.184433
C182  C     C_3   0.558952 0.389714 0.445692 -0.810469
H108  H     H_    0.469214 0.400262 0.425845 0.237060
H109  H     H_    0.474515 0.386533 0.468003 0.233036
H110  H     H_    0.613475 0.362763 0.438689 0.238676
O47   O     O_3   0.268476 0.450521 0.072366 -0.562579
C183  C     C_3   0.446990 0.450009 0.058377 0.066373
H111  H     H_    0.537249 0.470566 0.069891 0.119871
H112  H     H_    0.443301 0.455258 0.031709 0.127057
C184  C     C_3   0.531417 0.412761 0.064160 -0.280302
H113  H     H_    0.534405 0.406931 0.090695 0.204532
H114  H     H_    0.444981 0.391927 0.051994 0.199308
C185  C     C_3   0.727396 0.410682 0.050894 -0.821744
H115  H     H_    0.726536 0.415838 0.024258 0.242724
H116  H     H_    0.785568 0.383369 0.055391 0.237364
H117  H     H_    0.816329 0.430951 0.063254 0.240675
O48   O     O_3   0.994620 0.559031 0.927623 -0.577493
C186  C     C_3   0.151327 0.581174 0.922607 0.096992
H118  H     H_    0.098218 0.608644 0.917009 0.147575
H119  H     H_    0.227504 0.572947 0.900709 0.154153
C187  C     C_3   0.279744 0.584336 0.952424 -0.369729
H120  H     H_    0.199800 0.594432 0.973600 0.224697
H121  H     H_    0.340147 0.557618 0.958683 0.184298
C188  C     C_3   0.437848 0.610533 0.945726 -0.811119
H122  H     H_    0.527015 0.600098 0.925821 0.236785
H123  H     H_    0.523086 0.613697 0.968010 0.233151
H124  H     H_    0.382633 0.637471 0.938809 0.238518
O49   O     O_3   0.397105 0.939605 0.922088 -0.571857
C189  C     C_3   0.208242 0.931708 0.915930 0.114416
H125  H     H_    0.195584 0.901837 0.915359 0.143400
H126  H     H_    0.168239 0.940608 0.891244 0.149102
C190  C     C_3   0.072221 0.945790 0.941834 -0.401811
H127  H     H_    0.104610 0.933356 0.965791 0.217582
H128  H     H_    0.081311 0.975593 0.944259 0.182720
C191  C     C_3   0.874121 0.936864 0.932482 -0.779233
H129  H     H_    0.839389 0.948314 0.908220 0.239861
H130  H     H_    0.782263 0.949313 0.950741 0.240617
H131  H     H_    0.852372 0.907196 0.932244 0.235683
O50   O     O_3   0.309405 0.056927 0.066861 -0.561013
C192  C     C_3   0.141585 0.066920 0.051499 0.086611
H132  H     H_    0.022530 0.055240 0.064870 0.123614
H133  H     H_    0.134651 0.057876 0.025652 0.118212
C193  C     C_3   0.125289 0.108046 0.052274 -0.277728
H134  H     H_    0.130206 0.117539 0.077931 0.206399
H135  H     H_    0.243894 0.120130 0.039000 0.202013
C194  C     C_3   0.945453 0.120920 0.036629 -0.825616
H136  H     H_    0.936949 0.111452 0.011018 0.241032
H137  H     H_    0.940597 0.150874 0.036798 0.244321
H138  H     H_    0.825212 0.110592 0.050550 0.226479
O51   O     O_3   0.765586 0.049523 0.427701 -0.562552
C195  C     C_3   0.944418 0.050099 0.441699 0.066489
H139  H     H_    0.034959 0.029569 0.430193 0.119881
H140  H     H_    0.941508 0.044855 0.468368 0.127000
C196  C     C_3   0.027684 0.087374 0.435913 -0.280266
H141  H     H_    0.029784 0.093206 0.409378 0.204642
H142  H     H_    0.941021 0.108179 0.448085 0.199229
C197  C     C_3   0.223973 0.089515 0.449168 -0.822023
H143  H     H_    0.223990 0.084353 0.475803 0.242757
H144  H     H_    0.281282 0.116849 0.444672 0.237363
H145  H     H_    0.313103 0.069277 0.436797 0.240693
O52   O     O_3   0.497984 0.940909 0.572417 -0.577447
C198  C     C_3   0.655388 0.918811 0.577438 0.096761
H146  H     H_    0.603128 0.891331 0.583055 0.147491
H147  H     H_    0.731961 0.927074 0.599327 0.153967
C199  C     C_3   0.783066 0.915663 0.547617 -0.369490
H148  H     H_    0.702788 0.905540 0.526448 0.224701
H149  H     H_    0.842658 0.942392 0.541347 0.184320
C200  C     C_3   0.941973 0.889500 0.554315 -0.811329
H150  H     H_    0.031483 0.899968 0.574202 0.236788
H151  H     H_    0.026620 0.886332 0.532021 0.233157
H152  H     H_    0.887588 0.862558 0.561257 0.238471
H153  H     H_    0.889990 0.586061 0.537235 0.187982
H154  H     H_    0.204656 0.428605 0.468399 0.186173
H155  H     H_    0.112955 0.414036 0.037280 0.188073
H156  H     H_    0.792884 0.571182 0.968352 0.186138
H157  H     H_    0.534779 0.910811 0.963339 0.188144
H158  H     H_    0.545982 0.079740 0.035358 0.172789
H159  H     H_    0.609890 0.085950 0.462774 0.188071
H160  H     H_    0.295649 0.928701 0.531668 0.186150

loop_
_geom_bond_atom_site_label_1
_geom_bond_atom_site_label_2
_ccdc_geom_bond_type
C69   C126  A    
C112  C119  A    
C175  H93   S    
C26   C58   A    
C194  H138  S    
C186  H119  S    
C10   O22   S    
C20   C92   A    
C21   C93   A    
O15   V4    S    
C170  H81   S    
C178  H99   S    
C164  H68   S    
C163  C164  S    
C19   C91   A    
C114  C122  A    
C15   O27   S    
C27   H20   S    
C195  H140  S    
C175  C176  S    
C157  C158  S    
C185  H117  S    
C66   C90   A    
O40   C162  S    
C198  C199  S    
C113  C121  A    
C190  C191  S    
C146  H154  S    
C85   C149  A    
C55   C63   A    
C17   O30   S    
C153  H42   S    
C11   C75   A    
C66   C121  A    
C197  H144  S    
C171  C172  S    
C21   O34   S    
C188  H124  S    
C86   H14   S    
C200  H151  S    
C154  H43   S    
C70   C78   A    
N6    C62   S    
C10   C74   A    
C153  C154  S    
C75   C83   A    
C177  H97   S    
C69   C93   A    
O46   C180  S    
C53   C61   A    
C72   C80   A    
C108  C132  A    
C173  H87   S    
C6    C99   S    
O16   V3    S    
O10   V2    S    
C170  H80   S    
C183  H111  S    
O12   C4    A    
C30   C62   A    
O13   C5    A    
C190  H128  S    
C107  C116  A    
C33   H34   S    
C177  H98   S    
O42   C168  S    
O6    V2    S    
C23   O36   S    
C56   C64   A    
C11   N3    A    
C37   H38   S    
C138  O38   S    
C12   O24   S    
C45   C101  A    
C43   C51   A    
C169  H78   S    
C119  C127  A    
C178  C179  S    
C133  C141  A    
C16   O28   S    
O1    C4    A    
C165  C166  S    
O2    C3    A    
C50   H26   S    
C179  H101  S    
C158  H53   S    
C29   C61   A    
O7    C6    A    
C111  C135  A    
C112  C136  A    
C118  C149  A    
C119  C152  A    
C167  H74   S    
C42   C98   A    
C165  H70   S    
C87   C151  A    
C106  C113  A    
C33   C97   A    
O10   C2    A    
C136  C144  A    
C37   C101  A    
N1    C57   S    
O14   V4    S    
C54   C62   A    
C154  C155  S    
C49   C57   A    
C9    N1    A    
C151  H159  S    
O38   C156  S    
C192  H133  S    
O17   V3    S    
C174  H91   S    
O18   V4    S    
C142  O42   S    
O12   V1    S    
O19   V1    S    
C29   C37   A    
O47   C183  S    
C110  C126  A    
C90   C137  A    
C118  C126  A    
C31   C39   A    
C1    C104  S    
O8    V1    S    
C65   C73   A    
C2    C103  S    
C26   H17   S    
C46   H6    S    
C156  H48   S    
C160  C161  S    
O48   C186  S    
C196  H141  S    
C26   C34   A    
C183  C184  S    
O1    V3    S    
C30   H21   S    
N1    C17   A    
O2    V4    S    
O37   C153  S    
C176  H95   S    
C189  H125  S    
N4    C20   A    
C45   C53   A    
C19   O32   S    
C39   C103  A    
C70   C125  A    
C193  H134  S    
C40   C104  A    
N7    C23   A    
C82   C146  A    
C11   O23   S    
C12   N4    A    
C169  C170  S    
C13   N5    A    
C168  H77   S    
C115  C123  A    
C176  H94   S    
C39   H40   S    
C72   C96   A    
C179  H103  S    
C144  O44   S    
C171  H84   S    
C180  H105  S    
C24   O35   S    
N2    C58   S    
C162  C163  S    
C136  O52   S    
C52   C60   A    
C147  H155  S    
C109  C118  A    
C135  O51   S    
N4    C60   S    
C68   C123  A    
C47   C55   A    
C189  C190  S    
C28   C60   A    
C166  H71   S    
C120  C151  A    
C13   C77   A    
C35   H36   S    
C185  H116  S    
C187  C188  S    
C199  H148  S    
C88   C152  A    
C191  H131  S    
C159  H56   S    
C184  H114  S    
C172  H86   S    
C107  C123  A    
C186  C187  S    
C70   C94   A    
C27   C35   A    
C133  O49   S    
C12   C76   A    
C140  O40   S    
C54   H30   S    
C197  H143  S    
C194  H137  S    
C31   C63   A    
C106  C122  A    
C31   H24   S    
C161  H59   S    
C137  O37   S    
C4    C101  S    
C130  C138  A    
C156  C157  S    
C160  H57   S    
C8    C97   S    
C164  H67   S    
C9    C73   A    
O14   C6    A    
C32   C40   A    
C35   C99   A    
C182  H110  S    
C115  C148  A    
C193  C194  S    
C15   C79   A    
C113  C146  A    
C198  H147  S    
C105  C121  A    
C14   O26   S    
C73   C81   A    
C181  H106  S    
C163  H64   S    
C191  H129  S    
C44   C52   A    
C51   C59   A    
C77   C85   A    
C188  H123  S    
C132  O48   S    
C79   C87   A    
C94   C141  A    
C48   C56   A    
C200  H150  S    
C187  H121  S    
C7    C98   S    
C162  H62   S    
C116  C147  A    
C43   C99   A    
C89   C138  A    
C69   C77   A    
O39   C159  S    
C83   H11   S    
C41   C97   A    
C34   C98   A    
O11   C3    A    
C81   H9    S    
C40   H39   S    
C55   H31   S    
C38   C102  A    
C85   H13   S    
C173  H88   S    
C166  C167  S    
O45   C177  S    
C187  H120  S    
C132  C140  A    
C105  C129  A    
C86   C150  A    
C15   N7    A    
O11   V2    S    
N5    C61   S    
C16   N8    A    
C177  C178  S    
C183  H112  S    
C92   C139  A    
C109  C133  A    
C186  H118  S    
C72   C127  A    
C108  C124  A    
C27   C59   A    
C41   C49   A    
C116  C124  A    
C173  H89   S    
C178  H100  S    
C175  H92   S    
C117  C125  A    
O7    V2    S    
C161  H61   S    
C84   C148  A    
C42   H2    S    
C169  H79   S    
C170  H82   S    
C44   H4    S    
O43   C171  S    
N2    C18   A    
C28   H19   S    
C195  H139  S    
N8    C64   S    
C179  H102  S    
C95   C144  A    
C120  C128  A    
C32   C64   A    
C32   H23   S    
O41   C165  S    
C14   N6    A    
C181  C182  S    
C149  H157  S    
C153  H41   S    
C34   H33   S    
O4    C1    A    
C16   C80   A    
C82   H10   S    
C200  H152  S    
C154  H44   S    
C28   C36   A    
C182  H108  S    
C155  H45   S    
C134  C142  A    
C191  H130  S    
C192  H132  S    
C110  C117  A    
C76   C84   A    
C51   H27   S    
O13   V3    S    
C49   H25   S    
O51   C195  S    
C80   C88   A    
N6    C22   A    
C42   C50   A    
C9    O21   S    
C68   C76   A    
C117  C150  A    
C160  H58   S    
C71   C95   A    
C25   H18   S    
C18   C90   A    
O3    V4    S    
C189  H126  S    
O4    V3    S    
C174  H90   S    
C14   C78   A    
C52   H28   S    
C193  H135  S    
O52   C198  S    
C5    C100  S    
C196  C197  S    
C172  H85   S    
C93   C142  A    
C67   C124  A    
C30   C38   A    
C168  H76   S    
C91   C140  A    
C195  C196  S    
C65   C122  A    
C158  H54   S    
O50   C192  S    
C194  H136  S    
C196  H142  S    
C180  H104  S    
C134  O50   S    
O5    C8    A    
C66   C74   A    
C17   C89   A    
C167  H73   S    
C162  H63   S    
C135  C143  A    
C159  C160  S    
C165  H69   S    
N7    C63   S    
C25   C33   A    
O3    C2    A    
C107  C131  A    
C29   H22   S    
C143  O43   S    
C96   C143  A    
C46   C54   A    
C111  C127  A    
C184  H113  S    
C18   O29   S    
C112  C128  A    
C83   C147  A    
C198  H146  S    
C81   C145  A    
C22   O33   S    
C199  H149  S    
C155  H47   S    
O9    V1    S    
C192  C193  S    
O15   C7    A    
C174  C175  S    
O16   C8    A    
C47   H7    S    
C48   H8    S    
N5    C21   A    
O5    V1    S    
C36   C100  A    
N3    C59   S    
C3    C102  S    
C10   N2    A    
C68   C92   A    
C155  H46   S    
C46   C102  A    
C199  C200  S    
C67   C91   A    
C156  H49   S    
C159  H55   S    
C65   C89   A    
C164  H66   S    
C145  H153  S    
C157  H51   S    
C110  C134  A    
C23   C95   A    
C176  H96   S    
C139  O39   S    
O44   C174  S    
C148  H156  S    
C182  H109  S    
C197  H145  S    
C20   O31   S    
C106  C130  A    
C157  H50   S    
N8    C24   A    
O8    C5    A    
C67   C75   A    
C190  H127  S    
C131  O47   S    
C43   H3    S    
C105  C114  A    
C71   C79   A    
O9    C1    A    
C181  H107  S    
C41   H1    S    
C84   H12   S    
C168  C169  S    
C163  H65   S    
N3    C19   A    
C158  H52   S    
C87   H15   S    
C171  H83   S    
C88   H16   S    
C188  H122  S    
C180  C181  S    
C53   H29   S    
C131  C139  A    
C167  H75   S    
C129  C137  A    
C141  O41   S    
C130  O46   S    
C38   H37   S    
C150  H158  S    
C109  C125  A    
C22   C94   A    
O20   V2    S    
C25   C57   A    
O49   C189  S    
C114  C145  A    
C129  O45   S    
O6    C7    A    
C152  H160  S    
C71   C128  A    
C166  H72   S    
C50   C58   A    
C36   H35   S    
C161  H60   S    
C56   H32   S    
C185  H115  S    
C45   H5    S    
C74   C82   A    
C184  C185  S    
C44   C100  A    
C172  C173  S    
C108  C115  A    
C24   C96   A    
C78   C86   A    
C47   C103  A    
C13   O25   S    
C48   C104  A    
C111  C120  A    
