data_mof_unit_10443.cif
_audit_creation_date              2012-10-26T21:12:27-0400
_audit_creation_method            fapswitch 2.2
_symmetry_space_group_name_H-M    P1
_symmetry_Int_Tables_number       1
_space_group_crystal_system       triclinic
_cell_length_a                    23.50737
_cell_length_b                    10.885942
_cell_length_c                    9.605333
_cell_angle_alpha                 88.016284
_cell_angle_beta                  89.176507
_cell_angle_gamma                 93.61726
_cell_volume                      2451.2986116

loop_
_atom_site_label
_atom_site_type_symbol
_atom_type_description
_atom_site_fract_x
_atom_site_fract_y
_atom_site_fract_z
_atom_type_partial_charge
C1    C     C_R   0.501514 0.261973 0.503185 0.571892
C2    C     C_R   0.123184 0.613694 0.524027 0.404736
C3    C     C_R   0.238462 0.481253 0.382068 -0.048467
C4    C     C_R   0.391026 0.500023 0.500877 0.568267
C5    C     C_R   0.297732 0.480194 0.380385 -0.127976
C6    C     C_R   0.328450 0.501260 0.502674 0.007652
C7    C     C_R   0.298834 0.524152 0.626304 -0.139128
C8    C     C_R   0.239538 0.525299 0.627683 -0.053833
C9    C     C_R   0.209153 0.503702 0.505645 0.236876
C10   C     C_R   0.761781 0.519134 0.363544 0.093809
C11   C     C_R   0.701941 0.514424 0.368444 -0.146929
C12   C     C_R   0.963447 0.288306 0.466074 -0.114430
C13   C     C_R   0.671811 0.505347 0.496199 -0.022980
C14   C     C_R   0.702026 0.501525 0.620847 -0.144156
C15   C     C_R   0.761263 0.505185 0.617892 -0.077269
C16   C     C_R   0.494651 0.736455 0.497433 0.534686
C17   C     C_R   0.791443 0.513333 0.490845 0.216467
C18   C     C_R   0.485703 0.097656 0.768332 -0.039455
C19   C     C_R   0.457256 0.029849 0.876965 -0.064684
C20   C     C_R   0.430967 0.914999 0.852569 -0.107799
C21   C     C_R   0.438884 0.861943 0.724680 -0.081771
C22   C     C_R   0.470717 0.926769 0.616237 0.007223
C23   C     C_R   0.022726 0.286876 0.468570 -0.116962
C24   C     C_R   0.486610 0.052692 0.631580 0.024627
C25   C     C_R   0.501514 0.126607 0.509453 -0.031082
C26   C     C_R   0.507911 0.070169 0.382041 -0.152965
C27   C     C_R   0.500365 0.943594 0.371177 0.031127
C28   C     C_R   0.609036 0.501421 0.498971 0.535518
C29   C     C_R   0.485974 0.869553 0.492284 -0.021169
C30   C     C_R   0.580004 0.655533 0.135956 -0.059186
C31   C     C_R   0.620720 0.728915 0.060283 -0.102882
C32   C     C_R   0.620747 0.729952 0.916694 -0.139792
C33   C     C_R   0.580389 0.656809 0.848035 -0.083695
C34   C     C_R   0.056512 0.396026 0.487153 0.030375
C35   C     C_R   0.540174 0.575153 0.921057 0.127488
C36   C     C_R   0.540001 0.575061 0.070575 0.136905
C37   C     C_R   0.460528 0.432685 0.079959 0.005817
C38   C     C_R   0.459117 0.434034 0.932653 0.132291
C39   C     C_R   0.884144 0.619569 0.513775 0.434754
C40   C     C_R   0.877234 0.402766 0.479032 0.435799
C41   C     C_R   0.936729 0.398918 0.482045 0.037521
C42   C     C_R   0.970179 0.508847 0.501289 -0.023001
C43   C     C_R   0.943806 0.620270 0.517699 0.038097
C44   C     C_2   0.503847 0.895449 0.229052 0.567674
C45   C     C_R   0.030149 0.507359 0.503958 -0.026770
C46   C     C_2   0.407996 0.369751 0.874117 0.564601
C47   C     C_2   0.791456 0.530728 0.224913 0.608245
C48   C     C_R   0.063620 0.617253 0.523053 0.030622
C49   C     C_R   0.036871 0.727776 0.539748 -0.115382
C50   C     C_R   0.977580 0.729263 0.537118 -0.114920
C51   C     C_R   0.116199 0.396942 0.489179 0.403974
Cu1   Cu    Cu3+1 0.500000 0.499990 0.640660 0.970919
Cu2   Cu    Cu3+1 0.500000 0.500010 0.359340 0.970568
H1    H     H_    0.938679 0.202577 0.451278 0.175011
H2    H     H_    0.428463 0.378011 0.141048 0.150028
H3    H     H_    0.041953 0.200068 0.455613 0.171154
H4    H     H_    0.651083 0.788892 0.113583 0.154892
H5    H     H_    0.651271 0.790506 0.857742 0.140027
H6    H     H_    0.581827 0.670865 0.738045 0.185274
H7    H     H_    0.061637 0.813499 0.554596 0.174594
H8    H     H_    0.215226 0.464916 0.287251 0.141480
H9    H     H_    0.217136 0.542817 0.723554 0.141000
H10   H     H_    0.469737 0.781590 0.087394 0.327425
H11   H     H_    0.580124 0.669072 0.244978 0.181536
H12   H     H_    0.678609 0.518747 0.272195 0.174330
H13   H     H_    0.322712 0.334498 0.889228 0.344603
H14   H     H_    0.958345 0.816067 0.550022 0.170398
H15   H     H_    0.319414 0.462328 0.283599 0.155375
H16   H     H_    0.321453 0.542193 0.721557 0.157524
H17   H     H_    0.784410 0.532043 0.015424 0.343564
H18   H     H_    0.679950 0.495038 0.720840 0.150579
H19   H     H_    0.784033 0.500774 0.714991 0.135092
H20   H     H_    0.517827 0.125600 0.287770 0.166088
H21   H     H_    0.507386 0.183191 0.795745 0.160842
H22   H     H_    0.454633 0.067766 0.979436 0.140550
H23   H     H_    0.405693 0.865424 0.933744 0.140974
H24   H     H_    0.418560 0.771409 0.710024 0.143513
N1    N     N_R   0.852367 0.512078 0.493675 -0.379552
N2    N     N_R   0.148159 0.504744 0.506892 -0.400392
N3    N     N_R   0.500540 0.501210 0.147910 -0.260750
N4    N     N_R   0.500560 0.501290 0.852040 -0.272721
O1    O     O_R   0.500000 0.319640 0.618810 -0.467747
O2    O     O_R   0.582120 0.500020 0.618760 -0.525828
O3    O     O_R   0.582120 0.500050 0.381190 -0.526778
O4    O     O_2   0.858028 0.725257 0.529123 -0.478928
O5    O     O_2   0.542681 0.933324 0.149641 -0.546898
O6    O     O_R   0.460871 0.812725 0.182921 -0.671665
O7    O     O_2   0.411780 0.300402 0.778166 -0.491702
O8    O     O_R   0.354631 0.384054 0.935676 -0.740605
O9    O     O_2   0.843249 0.548876 0.215977 -0.483766
O10   O     O_R   0.759728 0.522140 0.103039 -0.714233
O11   O     O_2   0.844411 0.298431 0.461308 -0.474337
O12   O     O_2   0.142142 0.290959 0.474258 -0.481426
O13   O     O_2   0.155935 0.718359 0.540469 -0.481053
O14   O     O_R   0.500000 0.319660 0.381240 -0.509149
O15   O     O_R   0.417880 0.499950 0.618810 -0.475158
O16   O     O_R   0.417880 0.499980 0.381240 -0.495531
O17   O     O_R   0.500000 0.680340 0.618760 -0.542758
O18   O     O_R   0.500000 0.680360 0.381190 -0.476719

loop_
_geom_bond_atom_site_label_1
_geom_bond_atom_site_label_2
_ccdc_geom_bond_type
C41   C42   A    
C22   C29   A    
C30   H11   S    
Cu2   O14   S    
C14   H18   S    
H17   O10   S    
C32   H5    S    
C35   N4    A    
C23   H3    S    
C46   O8    S    
Cu2   O18   S    
C15   H19   S    
C12   C23   A    
C26   C27   A    
C37   C38   A    
C49   H7    S    
Cu2   O3    S    
C18   C24   A    
C21   C22   A    
C30   C31   A    
C28   O3    A    
C10   C17   A    
C26   H20   S    
C27   C29   A    
C20   H23   S    
C18   C19   A    
C9    N2    S    
C2    N2    A    
C4    O15   A    
C27   C44   S    
C19   C20   A    
C8    C9    A    
C13   C28   S    
C44   O6    S    
C50   H14   S    
C33   H6    S    
C13   C14   A    
C28   O2    A    
C1    C25   S    
C5    H15   S    
C44   O5    D    
H13   O8    S    
C46   O7    D    
C3    H8    S    
C37   N3    A    
C39   N1    A    
C2    O13   S    
Cu2   N3    S    
C24   C25   A    
C4    C6    S    
C36   N3    A    
C39   C43   A    
Cu2   O16   S    
C25   C26   A    
C42   C45   A    
Cu1   O2    S    
C12   C41   A    
C3    C9    A    
C31   C32   A    
C1    O14   A    
C23   C34   A    
C34   C51   A    
C43   C50   A    
C34   C45   A    
C40   O11   S    
Cu1   O1    S    
C51   O12   S    
C40   C41   A    
C38   N4    A    
C47   O9    D    
C40   N1    A    
C42   C43   A    
C39   O4    S    
Cu1   Cu2   S    
C45   C48   A    
C15   C17   A    
C48   C49   A    
H10   O6    S    
C47   O10   S    
C3    C5    A    
C7    H16   S    
C16   O18   A    
C6    C7    A    
C30   C36   A    
C2    C48   A    
C32   C33   A    
C31   H4    S    
C19   H22   S    
C1    O1    A    
C11   C13   A    
C16   O17   A    
C5    C6    A    
Cu1   O17   S    
C17   N1    S    
C33   C35   A    
Cu1   O15   S    
C22   C24   A    
Cu1   N4    S    
C51   N2    A    
C38   C46   S    
C7    C8    A    
C10   C11   A    
C37   H2    S    
C20   C21   A    
C16   C29   S    
C18   H21   S    
C49   C50   A    
C21   H24   S    
C10   C47   S    
C14   C15   A    
C35   C36   A    
C4    O16   A    
C12   H1    S    
C11   H12   S    
C8    H9    S    
