data_mof_unit_51535.cif
_audit_creation_date              2012-12-10T17:19:04-0500
_audit_creation_method            fapswitch 2.2
_symmetry_space_group_name_H-M    P1
_symmetry_Int_Tables_number       1
_space_group_crystal_system       triclinic
_cell_length_a                    18.299534
_cell_length_b                    18.428204
_cell_length_c                    34.46554
_cell_angle_alpha                 90.409586
_cell_angle_beta                  88.949351
_cell_angle_gamma                 89.817886
_cell_volume                      11620.4148209

loop_
_atom_site_label
_atom_site_type_symbol
_atom_type_description
_atom_site_fract_x
_atom_site_fract_y
_atom_site_fract_z
_atom_type_partial_charge
C1    C     C_R   0.625211 0.954654 0.518864 0.329534
C2    C     C_R   0.862742 0.508526 0.981174 0.337928
C3    C     C_R   0.496982 0.928981 0.957923 -0.003976
C4    C     C_R   0.930191 0.504973 0.041854 -0.009308
C5    C     C_R   0.060685 0.470794 0.958152 -0.005011
C6    C     C_R   0.490283 0.928288 0.040461 -0.002243
C7    C     C_R   0.487300 0.062913 0.958986 -0.009145
C8    C     C_R   0.000363 0.498074 0.644129 0.835757
C9    C     C_R   0.999182 0.499320 0.355599 0.809423
C10   C     C_R   0.499149 0.000158 0.644326 0.849810
C11   C     C_R   0.499454 0.999999 0.355629 0.791674
C12   C     C_R   0.500364 0.998084 0.144127 0.836327
C13   C     C_R   0.491488 0.128398 0.020608 0.331219
C14   C     C_R   0.499182 0.999333 0.855598 0.810023
C15   C     C_R   0.998905 0.500160 0.144341 0.848569
C16   C     C_R   0.999440 0.500000 0.855632 0.791902
C17   C     C_R   0.858861 0.639233 0.751818 0.905028
C18   C     C_R   0.140985 0.361259 0.248322 0.969459
C19   C     C_R   0.356614 0.863146 0.748576 0.919540
C20   C     C_R   0.641328 0.139653 0.250283 0.983512
C21   C     C_R   0.138641 0.358358 0.747882 0.960719
C22   C     C_R   0.859114 0.639060 0.249908 0.962105
C23   C     C_R   0.637884 0.142004 0.752053 0.952739
C24   C     C_R   0.493738 0.862409 0.978432 0.335105
C25   C     C_R   0.359630 0.860871 0.250264 0.964906
C26   C     C_R   0.856613 0.363147 0.248572 0.919728
C27   C     C_R   0.141322 0.639661 0.750277 0.983552
C28   C     C_R   0.358875 0.139264 0.251796 0.904499
C29   C     C_R   0.641021 0.861276 0.748288 0.964145
C30   C     C_R   0.138223 0.641738 0.251850 0.952125
C31   C     C_R   0.859715 0.360757 0.750201 0.962869
C32   C     C_R   0.638629 0.858352 0.247879 0.961433
C33   C     C_R   0.359104 0.139049 0.749900 0.961098
C34   C     C_R   0.195191 0.699060 0.675922 0.379989
C35   C     C_R   0.863200 0.508224 0.021901 0.350768
C36   C     C_R   0.729031 0.359368 0.307155 0.383715
C37   C     C_R   0.232158 0.126341 0.700258 0.333389
C38   C     C_R   0.756698 0.867901 0.304941 0.352894
C39   C     C_R   0.864693 0.243485 0.692229 0.346998
C40   C     C_R   0.157805 0.743828 0.318473 0.395909
C41   C     C_R   0.718181 0.811582 0.674176 0.391062
C42   C     C_R   0.293710 0.208859 0.323840 0.384388
C43   C     C_R   0.151066 0.257359 0.311935 0.356886
C44   C     C_R   0.833263 0.715143 0.680358 0.333569
C45   C     C_R   0.232294 0.872755 0.301986 0.347784
C46   C     C_R   0.123169 0.447876 0.978593 0.356484
C47   C     C_R   0.755746 0.137621 0.692684 0.353894
C48   C     C_R   0.864488 0.759529 0.306232 0.346893
C49   C     C_R   0.162770 0.256811 0.681954 0.332824
C50   C     C_R   0.698820 0.213189 0.320638 0.385758
C51   C     C_R   0.306093 0.799564 0.672941 0.364543
C52   C     C_R   0.695287 0.198945 0.175937 0.380199
C53   C     C_R   0.229109 0.859298 0.807204 0.383485
C54   C     C_R   0.732197 0.626285 0.200244 0.333646
C55   C     C_R   0.256768 0.367921 0.804946 0.353166
C56   C     C_R   0.364657 0.744030 0.192215 0.328604
C57   C     C_R   0.491843 0.862053 0.019185 0.340230
C58   C     C_R   0.658024 0.243864 0.818622 0.394009
C59   C     C_R   0.218748 0.312603 0.174309 0.394646
C60   C     C_R   0.793856 0.709042 0.823871 0.384141
C61   C     C_R   0.651204 0.757560 0.811999 0.358061
C62   C     C_R   0.333460 0.215591 0.180344 0.334278
C63   C     C_R   0.732701 0.372682 0.802128 0.347268
C64   C     C_R   0.258048 0.636053 0.193543 0.294890
C65   C     C_R   0.364616 0.259589 0.806183 0.346972
C66   C     C_R   0.662519 0.756644 0.182015 0.332455
C67   C     C_R   0.198913 0.713101 0.820630 0.385738
C68   C     C_R   0.488421 0.129107 0.980173 0.346456
C69   C     C_R   0.806228 0.299386 0.172948 0.364837
C70   C     C_R   0.235179 0.707434 0.641310 0.048809
C71   C     C_R   0.706992 0.336850 0.344468 -0.050913
C72   C     C_R   0.185118 0.129413 0.668781 0.064910
C73   C     C_R   0.807639 0.866743 0.334676 0.013091
C74   C     C_R   0.858878 0.195376 0.660882 0.006288
C75   C     C_R   0.150726 0.803791 0.343503 0.007109
C76   C     C_R   0.747503 0.777732 0.640728 0.034831
C77   C     C_R   0.241964 0.206325 0.354251 -0.014681
C78   C     C_R   0.169303 0.226535 0.347565 0.003398
C79   C     C_R   0.276289 0.779429 0.709931 -0.065820
C80   C     C_R   0.804572 0.727867 0.643744 0.006778
C81   C     C_R   0.185228 0.869066 0.334307 0.004057
C82   C     C_R   0.804244 0.142731 0.661017 0.008364
C83   C     C_R   0.861279 0.812827 0.335310 0.013407
C84   C     C_R   0.153324 0.194975 0.658552 -0.013999
C85   C     C_R   0.697064 0.262787 0.351703 0.079159
C86   C     C_R   0.294342 0.755351 0.640221 0.013088
C87   C     C_R   0.735332 0.207223 0.141337 0.048862
C88   C     C_R   0.207129 0.836720 0.844516 -0.050926
C89   C     C_R   0.685022 0.629281 0.168822 0.065157
C90   C     C_R   0.713383 0.237762 0.282276 -0.109104
C91   C     C_R   0.307829 0.366836 0.834627 0.012514
C92   C     C_R   0.358380 0.696556 0.160677 0.053583
C93   C     C_R   0.651198 0.303761 0.843710 0.007265
C94   C     C_R   0.248219 0.279129 0.140793 0.034693
C95   C     C_R   0.742163 0.706615 0.854309 -0.014425
C96   C     C_R   0.669497 0.726833 0.847644 0.002341
C97   C     C_R   0.305015 0.228927 0.143729 0.007573
C98   C     C_R   0.685796 0.368989 0.834518 0.003421
C99   C     C_R   0.304547 0.643207 0.160724 0.017523
C100  C     C_R   0.361511 0.312957 0.835226 0.013370
C101  C     C_R   0.202449 0.252392 0.717449 -0.069051
C102  C     C_R   0.653036 0.694776 0.158643 -0.012914
C103  C     C_R   0.197209 0.762646 0.851720 0.079138
C104  C     C_R   0.794521 0.255106 0.140249 0.013215
C105  C     C_R   0.495894 0.989671 0.520487 -0.099372
C106  C     C_R   0.495241 0.987617 0.479326 -0.100760
C107  C     C_R   0.992909 0.495077 0.519978 -0.099579
C108  C     C_R   0.992206 0.495575 0.478980 -0.105456
C109  C     C_R   0.995791 0.489849 0.020515 -0.101675
C110  C     C_R   0.995213 0.487791 0.979350 -0.099921
C111  C     C_R   0.493013 0.995123 0.019970 -0.099456
C112  C     C_R   0.362859 0.008844 0.481198 0.338484
C113  C     C_R   0.807635 0.753906 0.277900 -0.090446
C114  C     C_R   0.492301 0.995610 0.978973 -0.105413
C115  C     C_R   0.752389 0.193442 0.722088 -0.087839
C116  C     C_R   0.245381 0.809809 0.277777 -0.101340
C117  C     C_R   0.791750 0.732482 0.714479 -0.067076
C118  C     C_R   0.204942 0.262702 0.281481 -0.095094
C119  C     C_R   0.271340 0.225142 0.285439 -0.081699
C120  C     C_R   0.733876 0.783622 0.711997 -0.106136
C121  C     C_R   0.199939 0.748249 0.282937 -0.106293
C122  C     C_R   0.807644 0.247977 0.721575 -0.086688
C123  C     C_R   0.753208 0.809579 0.276970 -0.092477
C124  C     C_R   0.991201 0.628348 0.520628 0.331773
C125  C     C_R   0.245917 0.190018 0.723396 -0.107116
C126  C     C_R   0.744494 0.306627 0.277823 -0.073375
C127  C     C_R   0.223388 0.723518 0.711449 -0.088193
C128  C     C_R   0.776363 0.279338 0.209938 -0.065593
C129  C     C_R   0.213415 0.737734 0.782274 -0.109346
C130  C     C_R   0.702353 0.752309 0.217465 -0.068622
C131  C     C_R   0.307698 0.253936 0.777890 -0.090563
C132  C     C_R   0.253386 0.692924 0.222348 -0.060589
C133  C     C_R   0.745527 0.309783 0.777841 -0.098975
C134  C     C_R   0.291898 0.232770 0.214476 -0.067360
C135  C     C_R   0.993691 0.362376 0.478431 0.335209
C136  C     C_R   0.705023 0.762797 0.781511 -0.093721
C137  C     C_R   0.771422 0.725228 0.785466 -0.083233
C138  C     C_R   0.234133 0.284069 0.212049 -0.102427
C139  C     C_R   0.699958 0.248323 0.783022 -0.104080
C140  C     C_R   0.307854 0.748119 0.221617 -0.085604
C141  C     C_R   0.253259 0.309604 0.776975 -0.092427
C142  C     C_R   0.745903 0.689974 0.223389 -0.106984
C143  C     C_R   0.244522 0.806603 0.777840 -0.073517
C144  C     C_R   0.723456 0.223439 0.211462 -0.088177
C145  C     C_R   0.290293 0.818291 0.744621 -0.025495
C146  C     C_R   0.363378 0.008561 0.521925 0.350244
C147  C     C_R   0.695884 0.198662 0.248162 -0.066583
C148  C     C_R   0.199609 0.306734 0.747239 -0.058886
C149  C     C_R   0.802459 0.694349 0.251159 -0.055604
C150  C     C_R   0.697911 0.194923 0.752536 -0.064545
C151  C     C_R   0.303120 0.805653 0.249586 -0.058613
C152  C     C_R   0.809229 0.702217 0.750921 -0.037322
C153  C     C_R   0.194120 0.302243 0.246993 -0.055299
C154  C     C_R   0.309231 0.202259 0.250895 -0.037174
C155  C     C_R   0.694085 0.802154 0.746972 -0.056649
C156  C     C_R   0.198402 0.694595 0.252557 -0.061099
C157  C     C_R   0.622941 0.946953 0.478507 0.356536
C158  C     C_R   0.803166 0.305530 0.749580 -0.057068
C159  C     C_R   0.699568 0.806702 0.247233 -0.058932
C160  C     C_R   0.302468 0.194358 0.751165 -0.055129
C161  C     C_R   0.790306 0.318272 0.244614 -0.025597
C162  C     C_R   0.195871 0.698681 0.748151 -0.066729
C163  C     C_R   0.433705 0.014795 0.582563 0.086104
C164  C     C_R   0.561476 0.976700 0.417263 0.071007
C165  C     C_R   0.985190 0.430525 0.581638 0.090811
C166  C     C_R   0.980416 0.561596 0.418363 0.088915
C167  C     C_R   0.565010 0.992392 0.580636 0.107823
C168  C     C_R   0.991777 0.362005 0.519186 0.340854
C169  C     C_R   0.432564 0.011501 0.418534 0.081441
C170  C     C_R   0.010255 0.559687 0.580567 0.021089
C171  C     C_R   0.006325 0.431752 0.417072 0.059330
C172  C     C_R   0.933395 0.514634 0.082575 0.083936
C173  C     C_R   0.061501 0.476933 0.917292 0.070722
C174  C     C_R   0.485163 0.930582 0.081625 0.091362
C175  C     C_R   0.480469 0.061620 0.918360 0.088964
C176  C     C_R   0.064745 0.492808 0.080714 0.124750
C177  C     C_R   0.932504 0.511408 0.918533 0.081274
C178  C     C_R   0.510365 0.059713 0.080566 0.020680
C179  C     C_R   0.988171 0.629073 0.480193 0.346672
C180  C     C_R   0.506320 0.931767 0.917067 0.058986
C181  C     C_R   0.499247 0.001215 0.601804 -0.147284
C182  C     C_R   0.498303 0.998391 0.398075 -0.127220
C183  C     C_R   0.000056 0.495583 0.601399 -0.144700
C184  C     C_R   0.996516 0.497720 0.397802 -0.129280
C185  C     C_R   0.998943 0.501226 0.101838 -0.146768
C186  C     C_R   0.998275 0.498411 0.898085 -0.127457
C187  C     C_R   0.500068 0.995617 0.101395 -0.144494
C188  C     C_R   0.496520 0.997736 0.897798 -0.129346
C189  C     C_R   0.562832 0.979391 0.540144 -0.043177
C190  C     C_R   0.125336 0.455656 0.018951 0.331424
C191  C     C_R   0.429462 0.003393 0.459451 -0.002473
C192  C     C_R   0.997268 0.561707 0.540588 -0.004593
C193  C     C_R   0.996942 0.428954 0.457926 -0.003734
C194  C     C_R   0.430393 0.005090 0.541849 -0.008788
C195  C     C_R   0.560609 0.970358 0.458107 -0.004501
C196  C     C_R   0.990238 0.428236 0.540470 -0.001862
C197  C     C_R   0.987171 0.562883 0.458995 -0.009048
C198  C     C_R   0.062744 0.479915 0.040206 -0.045024
C199  C     C_R   0.929392 0.503304 0.959451 -0.002418
C200  C     C_R   0.497436 0.061752 0.040579 -0.004830
Cl1   Cl    Cl    0.100657 0.690020 0.672061 -0.557306
Cl2   Cl    Cl    0.927927 0.698253 0.682346 -0.556336
Cl3   Cl    Cl    0.265805 0.961192 0.292060 -0.647973
Cl4   Cl    Cl    0.708929 0.053949 0.695040 -0.582651
Cl5   Cl    Cl    0.945395 0.706059 0.306936 -0.637291
Cl6   Cl    Cl    0.137692 0.339437 0.660159 -0.619058
Cl7   Cl    Cl    0.695598 0.120269 0.331957 -0.560296
Cl8   Cl    Cl    0.333500 0.889350 0.663069 -0.574977
Cl9   Cl    Cl    0.600741 0.190083 0.172051 -0.555483
Cl10  Cl    Cl    0.214992 0.951507 0.795229 -0.493936
Cl11  Cl    Cl    0.765107 0.538235 0.210538 -0.512542
Cl12  Cl    Cl    0.714943 0.451558 0.295128 -0.492183
Cl13  Cl    Cl    0.205109 0.449301 0.803495 -0.593847
Cl14  Cl    Cl    0.449304 0.790859 0.193516 -0.663017
Cl15  Cl    Cl    0.624794 0.162362 0.838728 -0.556443
Cl16  Cl    Cl    0.169755 0.392871 0.165245 -0.543963
Cl17  Cl    Cl    0.885397 0.719442 0.838450 -0.534231
Cl18  Cl    Cl    0.557268 0.776466 0.805108 -0.641173
Cl19  Cl    Cl    0.428017 0.198135 0.182360 -0.554069
Cl20  Cl    Cl    0.766307 0.461097 0.792232 -0.647579
Cl21  Cl    Cl    0.220157 0.548845 0.200763 -0.599507
Cl22  Cl    Cl    0.445487 0.206060 0.806880 -0.637599
Cl23  Cl    Cl    0.264816 0.038244 0.710645 -0.513082
Cl24  Cl    Cl    0.637227 0.839215 0.160232 -0.619374
Cl25  Cl    Cl    0.195728 0.620167 0.831907 -0.559966
Cl26  Cl    Cl    0.833605 0.389152 0.163026 -0.574337
Cl27  Cl    Cl    0.706384 0.925987 0.541742 -0.491521
Cl28  Cl    Cl    0.275891 0.009673 0.458996 -0.522961
Cl29  Cl    Cl    0.978982 0.712750 0.545332 -0.443384
Cl30  Cl    Cl    0.984750 0.277203 0.454468 -0.495572
Cl31  Cl    Cl    0.277555 0.004446 0.546883 -0.467267
Cl32  Cl    Cl    0.697677 0.901033 0.455397 -0.514568
Cl33  Cl    Cl    0.999468 0.276263 0.542106 -0.525359
Cl34  Cl    Cl    0.705196 0.949378 0.303423 -0.594032
Cl35  Cl    Cl    0.994686 0.715244 0.457431 -0.483028
Cl36  Cl    Cl    0.206747 0.427751 0.041864 -0.493711
Cl37  Cl    Cl    0.775803 0.509073 0.958938 -0.522584
Cl38  Cl    Cl    0.479498 0.212851 0.045291 -0.440709
Cl39  Cl    Cl    0.484794 0.777223 0.954483 -0.493964
Cl40  Cl    Cl    0.777365 0.503807 0.046829 -0.465022
Cl41  Cl    Cl    0.198374 0.402606 0.955544 -0.512901
Cl42  Cl    Cl    0.499647 0.776334 0.042116 -0.523267
Cl43  Cl    Cl    0.495065 0.215246 0.957386 -0.482093
Cl44  Cl    Cl    0.949274 0.290425 0.693513 -0.663496
Cl45  Cl    Cl    0.124807 0.662305 0.338653 -0.554748
Cl46  Cl    Cl    0.669062 0.891601 0.664896 -0.529328
Cl47  Cl    Cl    0.385210 0.219338 0.338471 -0.532906
Cl48  Cl    Cl    0.057145 0.276314 0.305027 -0.642061
H1    H     H_    0.134201 0.763009 0.900591 0.221768
H2    H     H_    0.619862 0.445523 0.859678 0.204695
H3    H     H_    0.262129 0.554433 0.131094 0.271296
H4    H     H_    0.288543 0.623308 0.103789 0.183677
H5    H     H_    0.629496 0.748651 0.901827 0.224468
H6    H     H_    0.610775 0.664187 0.884811 0.230098
H7    H     H_    0.374247 0.156606 0.115938 0.234900
H8    H     H_    0.296601 0.171269 0.093946 0.176550
H9    H     H_    0.200184 0.255493 0.089792 0.195541
H10   H     H_    0.268740 0.316985 0.086796 0.288284
H11   H     H_    0.734280 0.639695 0.900689 0.237487
H12   H     H_    0.224963 0.753449 0.907977 0.225825
H13   H     H_    0.754138 0.727379 0.911733 0.218059
H14   H     H_    0.382893 0.711506 0.103640 0.233046
H15   H     H_    0.436597 0.649888 0.126080 0.242935
H16   H     H_    0.567979 0.336383 0.879725 0.208333
H17   H     H_    0.643588 0.306380 0.902560 0.230250
H18   H     H_    0.689714 0.574855 0.117511 0.257524
H19   H     H_    0.615928 0.555375 0.145992 0.239277
H20   H     H_    0.355752 0.452669 0.861339 0.217093
H21   H     H_    0.302331 0.400719 0.890840 0.248711
H22   H     H_    0.751777 0.139563 0.095445 0.190676
H23   H     H_    0.878983 0.299582 0.108357 0.243519
H24   H     H_    0.699794 0.213645 0.086114 0.263750
H25   H     H_    0.243115 0.919000 0.878251 0.225488
H26   H     H_    0.152818 0.922816 0.868067 0.251240
H27   H     H_    0.633977 0.263229 0.400546 0.222094
H28   H     H_    0.724726 0.253687 0.407979 0.225652
H29   H     H_    0.378735 0.799923 0.608314 0.243717
H30   H     H_    0.355470 0.716971 0.595246 0.177342
H31   H     H_    0.888774 0.807649 0.392092 0.241341
H32   H     H_    0.943064 0.862255 0.364425 0.187803
H33   H     H_    0.059761 0.218742 0.630664 0.273028
H34   H     H_    0.855702 0.216616 0.095320 0.177080
H35   H     H_    0.137480 0.232674 0.604101 0.269114
H36   H     H_    0.191404 0.920565 0.386558 0.230241
H37   H     H_    0.119015 0.945546 0.359304 0.204299
H38   H     H_    0.792305 0.118359 0.603866 0.195078
H39   H     H_    0.848827 0.061422 0.627961 0.234656
H40   H     H_    0.129205 0.248235 0.401741 0.224672
H41   H     H_    0.110541 0.163796 0.384668 0.229648
H42   H     H_    0.874053 0.655576 0.616115 0.235132
H43   H     H_    0.796187 0.669503 0.594194 0.176861
H44   H     H_    0.699106 0.753091 0.589964 0.194994
H45   H     H_    0.389280 0.307981 0.891979 0.241215
H46   H     H_    0.767402 0.814772 0.586507 0.287398
H47   H     H_    0.234023 0.139298 0.400581 0.237568
H48   H     H_    0.253834 0.226962 0.411693 0.218373
H49   H     H_    0.883932 0.207669 0.603656 0.231923
H50   H     H_    0.939213 0.149087 0.627407 0.214449
H51   H     H_    0.067406 0.836373 0.379458 0.207920
H52   H     H_    0.142981 0.806466 0.402346 0.230159
H53   H     H_    0.189916 0.074948 0.617485 0.257777
H54   H     H_    0.115964 0.055649 0.645879 0.234539
H55   H     H_    0.855520 0.952545 0.361439 0.216754
H56   H     H_    0.443470 0.362464 0.864178 0.188198
H57   H     H_    0.802016 0.900591 0.390895 0.248584
H58   H     H_    0.251601 0.639863 0.595377 0.190925
H59   H     H_    0.199560 0.713933 0.586104 0.263372
H60   H     H_    0.742918 0.419188 0.378182 0.225435
H61   H     H_    0.652639 0.422982 0.367953 0.251719
H62   H     H_    0.391186 0.097868 0.614832 0.196878
H63   H     H_    0.358228 0.015180 0.626826 0.264803
H64   H     H_    0.620726 0.923200 0.375588 0.244562
H65   H     H_    0.639505 0.013432 0.379807 0.267636
H66   H     H_    0.003983 0.355067 0.622707 0.267911
H67   H     H_    0.559184 0.718240 0.130950 0.272621
H68   H     H_    0.915113 0.380751 0.619102 0.216729
H69   H     H_    0.905794 0.609872 0.383910 0.219326
H70   H     H_    0.993074 0.639423 0.377435 0.284519
H71   H     H_    0.627536 0.022855 0.627718 0.241552
H72   H     H_    0.657798 0.050319 0.584985 0.203760
H73   H     H_    0.382931 0.083641 0.383330 0.245574
H74   H     H_    0.356953 0.995935 0.376787 0.213860
H75   H     H_    0.004035 0.636321 0.621905 0.272141
H76   H     H_    0.089865 0.604842 0.610752 0.251657
H77   H     H_    0.076613 0.378709 0.380407 0.214489
H78   H     H_    0.636676 0.732454 0.104230 0.269043
H79   H     H_    0.986931 0.357926 0.374497 0.231915
H80   H     H_    0.890693 0.597642 0.114817 0.196559
H81   H     H_    0.857890 0.514918 0.126821 0.265382
H82   H     H_    0.120721 0.423265 0.875671 0.244188
H83   H     H_    0.139432 0.513538 0.879745 0.267915
H84   H     H_    0.503773 0.855072 0.122683 0.268293
H85   H     H_    0.414949 0.880904 0.119052 0.215396
H86   H     H_    0.405763 0.109872 0.883950 0.219095
H87   H     H_    0.493019 0.139438 0.877417 0.284628
H88   H     H_    0.127242 0.523181 0.127983 0.219188
H89   H     H_    0.692351 0.420316 0.886799 0.230782
H90   H     H_    0.156611 0.551819 0.085229 0.186083
H91   H     H_    0.882755 0.583436 0.883306 0.245394
H92   H     H_    0.856939 0.495678 0.876779 0.214180
H93   H     H_    0.504123 0.136338 0.121903 0.272001
H94   H     H_    0.589949 0.104794 0.110796 0.251563
H95   H     H_    0.576534 0.878690 0.880380 0.214530
H96   H     H_    0.486832 0.857949 0.874504 0.232005
N1    N     N_3   0.181950 0.737543 0.890298 -0.365756
N2    N     N_3   0.764761 0.684904 0.892160 -0.385080
N3    N     N_3   0.410637 0.700290 0.129158 -0.376858
N4    N     N_3   0.609237 0.297142 0.879151 -0.329543
N5    N     N_3   0.672179 0.565177 0.146044 -0.318518
N6    N     N_3   0.306781 0.423805 0.863327 -0.340378
N7    N     N_3   0.710293 0.173346 0.106499 -0.407045
N8    N     N_3   0.195609 0.888158 0.875453 -0.438213
N9    N     N_3   0.681743 0.237748 0.390287 -0.365875
N10   N     N_3   0.333271 0.766871 0.604083 -0.386303
N11   N     N_3   0.915150 0.812911 0.365112 -0.360997
N12   N     N_3   0.833512 0.266541 0.104121 -0.386179
N13   N     N_3   0.111520 0.197819 0.623737 -0.409876
N14   N     N_3   0.174585 0.932238 0.358463 -0.373179
N15   N     N_3   0.799904 0.090741 0.629868 -0.362367
N16   N     N_3   0.113966 0.218589 0.377250 -0.347340
N17   N     N_3   0.837275 0.696628 0.609105 -0.353080
N18   N     N_3   0.722250 0.798462 0.603256 -0.319262
N19   N     N_3   0.264505 0.184535 0.392098 -0.384946
N20   N     N_3   0.911438 0.198635 0.629493 -0.382319
N21   N     N_3   0.108690 0.797163 0.378919 -0.329871
N22   N     N_3   0.172235 0.065324 0.646000 -0.319967
N23   N     N_3   0.415524 0.313141 0.864957 -0.360964
N24   N     N_3   0.806538 0.923691 0.363389 -0.340963
N25   N     N_3   0.210112 0.673604 0.606464 -0.406989
N26   N     N_3   0.695418 0.388339 0.375376 -0.437884
N27   N     N_3   0.373848 0.048029 0.603685 -0.376211
N28   N     N_3   0.627827 0.966130 0.395115 -0.353464
N29   N     N_3   0.962887 0.368091 0.603356 -0.373486
N30   N     N_3   0.953895 0.623789 0.398029 -0.358079
N31   N     N_3   0.633907 0.005898 0.598985 -0.309803
N32   N     N_3   0.369995 0.035334 0.397506 -0.376730
N33   N     N_3   0.040033 0.621316 0.599512 -0.338851
N34   N     N_3   0.610975 0.697511 0.123914 -0.407717
N35   N     N_3   0.027111 0.368488 0.394952 -0.368644
N36   N     N_3   0.873451 0.547766 0.103672 -0.375906
N37   N     N_3   0.127820 0.466307 0.895128 -0.353038
N38   N     N_3   0.462722 0.868175 0.103322 -0.376092
N39   N     N_3   0.453891 0.123806 0.898039 -0.358237
N40   N     N_3   0.133468 0.506880 0.099100 -0.335235
N41   N     N_3   0.869901 0.535116 0.897492 -0.376815
N42   N     N_3   0.540155 0.121312 0.099529 -0.338582
N43   N     N_3   0.527045 0.868492 0.894943 -0.368578
N44   N     N_3   0.675404 0.432110 0.858741 -0.372907
N45   N     N_3   0.302760 0.593455 0.128214 -0.385524
N46   N     N_3   0.614206 0.718963 0.877359 -0.347276
N47   N     N_3   0.337748 0.197965 0.109027 -0.351718
N48   N     N_3   0.223385 0.300554 0.103353 -0.319724
O1    O     O_3   1.000000 0.500000 0.750000 -0.513488
O2    O     O_R   0.060740 0.500000 0.337440 -0.588304
O3    O     O_R   0.500000 0.939260 0.662560 -0.556795
O4    O     O_R   0.500000 0.060740 0.337440 -0.592998
O5    O     O_R   0.560740 0.000000 0.162560 -0.580648
O6    O     O_R   0.439260 0.000000 0.837440 -0.644764
O7    O     O_R   1.000000 0.560740 0.162560 -0.661430
O8    O     O_R   1.000000 0.439260 0.837440 -0.632068
O9    O     O_R   0.439260 0.000000 0.162560 -0.632500
O10   O     O_R   0.560740 0.000000 0.837440 -0.588388
O11   O     O_R   1.000000 0.439260 0.162560 -0.556857
O12   O     O_3   1.000000 0.500000 0.250000 -0.513500
O13   O     O_R   1.000000 0.560740 0.837440 -0.592845
O14   O     O_R   0.853850 0.585450 0.727070 -0.610284
O15   O     O_R   0.146150 0.414550 0.272930 -0.609603
O16   O     O_R   0.414550 0.853850 0.727070 -0.608132
O17   O     O_R   0.585450 0.146150 0.272930 -0.585095
O18   O     O_R   0.146150 0.414550 0.727070 -0.559545
O19   O     O_R   0.853850 0.585450 0.272930 -0.559231
O20   O     O_R   0.585450 0.146150 0.727070 -0.615340
O21   O     O_R   0.414550 0.853850 0.272930 -0.608611
O22   O     O_R   0.853850 0.414550 0.272930 -0.597990
O23   O     O_3   0.500000 0.000000 0.750000 -0.512924
O24   O     O_R   0.146150 0.585450 0.727070 -0.612636
O25   O     O_R   0.414550 0.146150 0.272930 -0.568341
O26   O     O_R   0.585450 0.853850 0.727070 -0.587754
O27   O     O_R   0.146150 0.585450 0.272930 -0.545358
O28   O     O_R   0.853850 0.414550 0.727070 -0.594718
O29   O     O_R   0.585450 0.853850 0.272930 -0.610763
O30   O     O_R   0.414550 0.146150 0.727070 -0.624872
O31   O     O_R   0.353850 0.085450 0.227070 -0.610428
O32   O     O_R   0.646150 0.914550 0.772930 -0.614542
O33   O     O_R   0.914550 0.353850 0.227070 -0.607968
O34   O     O_3   0.500000 0.000000 0.250000 -0.513614
O35   O     O_R   0.085450 0.646150 0.772930 -0.585398
O36   O     O_R   0.646150 0.914550 0.227070 -0.559717
O37   O     O_R   0.353850 0.085450 0.772930 -0.559458
O38   O     O_R   0.085450 0.646150 0.227070 -0.624517
O39   O     O_R   0.914550 0.353850 0.772930 -0.609529
O40   O     O_R   0.353850 0.914550 0.772930 -0.597910
O41   O     O_R   0.646150 0.085450 0.227070 -0.613008
O42   O     O_R   0.914550 0.646150 0.772930 -0.568585
O43   O     O_R   0.085450 0.353850 0.227070 -0.589284
O44   O     O_R   0.646150 0.085450 0.772930 -0.553979
O45   O     O_R   0.060740 0.500000 0.662560 -0.580480
O46   O     O_R   0.353850 0.914550 0.227070 -0.595524
O47   O     O_R   0.085450 0.353850 0.772930 -0.611204
O48   O     O_R   0.914550 0.646150 0.227070 -0.624391
O49   O     O_R   0.939260 0.500000 0.337440 -0.644752
O50   O     O_R   0.500000 0.060740 0.662560 -0.656642
O51   O     O_R   0.500000 0.939260 0.337440 -0.632164
O52   O     O_R   0.939260 0.500000 0.662560 -0.632611
Zn1   Zn    Zn3+2 1.000000 0.586740 0.782740 1.141557
Zn2   Zn    Zn3+2 0.500000 0.913260 0.717260 1.122809
Zn3   Zn    Zn3+2 0.913260 0.500000 0.282740 1.108302
Zn4   Zn    Zn3+2 0.086740 0.500000 0.717260 1.140980
Zn5   Zn    Zn3+2 0.500000 0.913260 0.282740 1.084085
Zn6   Zn    Zn3+2 0.500000 0.086740 0.717260 1.078314
Zn7   Zn    Zn3+2 0.086740 0.500000 0.282740 1.129503
Zn8   Zn    Zn3+2 0.913260 0.500000 0.717260 1.080649
Zn9   Zn    Zn3+2 1.000000 0.413260 0.217260 1.120623
Zn10  Zn    Zn3+2 0.413260 0.000000 0.782740 1.108262
Zn11  Zn    Zn3+2 0.586740 0.000000 0.217260 1.140862
Zn12  Zn    Zn3+2 1.000000 0.413260 0.782740 1.083178
Zn13  Zn    Zn3+2 0.000000 0.586740 0.217260 1.070688
Zn14  Zn    Zn3+2 0.586740 0.000000 0.782740 1.125150
Zn15  Zn    Zn3+2 0.413260 0.000000 0.217260 1.080165
Zn16  Zn    Zn3+2 0.500000 0.086740 0.282740 1.141700

loop_
_geom_bond_atom_site_label_1
_geom_bond_atom_site_label_2
_ccdc_geom_bond_type
C12   O9    A    
H31   N11   S    
C101  C148  A    
C112  Cl28  S    
C13   C200  A    
H84   N38   S    
C164  C195  A    
H47   N19   S    
C15   C185  S    
C190  C198  A    
C52   C144  A    
H72   N31   S    
C15   O7    A    
C63   C133  A    
H2    N44   S    
H49   N20   S    
C63   C98   A    
O44   Zn14  S    
C32   O29   A    
C27   C162  S    
C56   C140  A    
O12   Zn9   S    
C10   O3    A    
C97   N47   S    
C34   Cl1   S    
H14   N3    S    
C165  N29   S    
O35   Zn1   S    
C118  C153  A    
C133  C158  A    
C39   C74   A    
C31   O28   A    
O18   Zn4   S    
C65   C131  A    
C175  C188  A    
C29   O26   A    
C50   C90   A    
C34   C127  A    
C107  C192  A    
C135  C168  A    
C91   C100  A    
C146  C194  A    
C37   C125  A    
C38   C123  A    
C36   C71   A    
C29   C155  S    
O17   Zn16  S    
H52   N21   S    
C30   C156  S    
H74   N32   S    
O6    Zn10  S    
C67   C129  A    
C103  N1    S    
C65   Cl22  S    
C89   N5    S    
C86   N10   S    
C45   C81   A    
C116  C121  A    
C165  C183  A    
C105  C189  A    
C166  C184  A    
C98   N44   S    
H53   N22   S    
H89   N44   S    
C6    C174  A    
C94   C97   A    
C77   C78   A    
C180  N43   S    
C120  C155  A    
C177  C186  A    
C130  C159  A    
H83   N37   S    
H39   N15   S    
C17   O42   A    
H46   N18   S    
C88   N8    S    
C57   Cl42  S    
H93   N42   S    
O1    Zn12  S    
O27   Zn7   S    
C45   Cl3   S    
H81   N36   S    
C122  C158  A    
C128  C144  A    
O14   Zn8   S    
C72   C84   A    
C36   Cl12  S    
C11   O51   A    
C179  Cl35  S    
C133  C139  A    
C9    O49   A    
O21   Zn5   S    
O11   Zn9   S    
C176  N40   S    
H61   N26   S    
H55   N24   S    
C136  C155  A    
C79   C127  A    
C139  C150  A    
C28   O31   A    
C157  C195  A    
H42   N17   S    
C36   C126  A    
C26   O33   A    
C94   N48   S    
C75   C81   A    
C33   O37   A    
C5    C46   A    
C26   C161  S    
C59   C138  A    
H58   N25   S    
C62   Cl19  S    
C106  C195  A    
C9    C184  S    
C83   N11   S    
O22   Zn3   S    
C112  C191  A    
C84   N13   S    
H33   N13   S    
C123  C159  A    
C30   O27   A    
H3    N45   S    
C47   Cl4   S    
C41   C120  A    
C42   C119  A    
C169  C182  A    
C75   N21   S    
C43   C118  A    
C164  N28   S    
C60   C95   A    
C77   N19   S    
H56   N23   S    
C49   Cl6   S    
C42   Cl47  S    
H77   N35   S    
C178  N42   S    
C46   Cl41  S    
C27   O24   A    
C23   O20   A    
C73   C83   A    
H85   N38   S    
C18   O15   A    
C71   N26   S    
H34   N12   S    
C168  Cl33  S    
C41   C76   A    
O23   Zn6   S    
C4    C109  A    
C121  C156  A    
C41   Cl46  S    
C163  C181  A    
H32   N11   S    
H26   N8    S    
C6    C111  A    
C171  C193  A    
C69   Cl26  S    
C40   Cl45  S    
C61   C96   A    
C67   C103  A    
C23   O44   A    
H59   N25   S    
C39   C122  A    
C73   N24   S    
C49   C84   A    
C18   O43   A    
C169  N32   S    
C25   O21   A    
C174  C187  A    
C5    C110  A    
C27   O35   A    
H92   N41   S    
C108  C197  A    
O16   Zn2   S    
C64   C99   A    
H28   N9    S    
C69   C128  A    
C53   Cl10  S    
C135  Cl30  S    
C101  C125  A    
C107  C108  A    
H40   N16   S    
O34   Zn16  S    
C131  C141  A    
C33   C160  S    
C7    C68   A    
O51   Zn5   S    
C15   O11   A    
C3    C24   A    
C144  C147  A    
C107  C196  A    
O12   Zn13  S    
H65   N28   S    
C146  Cl31  S    
C105  C194  A    
C167  C189  A    
C20   C147  S    
C74   N20   S    
C2    C199  A    
C21   C148  S    
C37   Cl23  S    
O9    Zn15  S    
O42   Zn1   S    
C163  C194  A    
C12   C187  S    
H35   N13   S    
H10   N48   S    
C3    C180  A    
C90   C147  A    
C111  C200  A    
C62   C97   A    
C33   O30   A    
O8    Zn12  S    
C172  C185  A    
H64   N28   S    
C31   O39   A    
O19   Zn3   S    
H48   N19   S    
C8    C183  S    
C16   O8    A    
C127  C162  A    
H54   N22   S    
C169  C191  A    
H9    N48   S    
H22   N7    S    
O26   Zn2   S    
C99   N45   S    
H12   N1    S    
C14   O10   A    
C19   O40   A    
H24   N7    S    
C4    C172  A    
O37   Zn10  S    
C5    C173  A    
C172  N36   S    
C76   C80   A    
C176  C198  A    
C136  C137  A    
C3    C114  A    
O29   Zn5   S    
C55   Cl13  S    
O34   Zn5   S    
C82   N15   S    
C2    Cl37  S    
C16   O13   A    
C48   C83   A    
H21   N6    S    
C25   C151  S    
C45   C116  A    
C132  C156  A    
H73   N32   S    
O32   Zn14  S    
H37   N14   S    
C81   N14   S    
C130  C142  A    
C72   N22   S    
C4    C35   A    
C171  N35   S    
O52   Zn8   S    
C42   C77   A    
C177  C199  A    
H50   N20   S    
C80   N17   S    
C116  C151  A    
C92   C99   A    
C13   C68   A    
C1    C189  A    
C2    C35   A    
C11   O4    A    
C175  N39   S    
H30   N10   S    
C9    O2    A    
C6    C57   A    
C176  C185  A    
O2    Zn7   S    
C43   C78   A    
C47   C115  A    
C167  N31   S    
C7    C114  A    
H79   N35   S    
C58   C93   A    
H91   N41   S    
C49   C101  A    
C170  C183  A    
C67   Cl25  S    
C68   Cl43  S    
C166  N30   S    
O36   Zn11  S    
H8    N47   S    
H95   N43   S    
C21   O47   A    
C124  C179  A    
C55   C91   A    
C180  C188  A    
C50   C85   A    
C177  N41   S    
O23   Zn10  S    
C64   C132  A    
C170  N33   S    
C48   Cl5   S    
C137  C152  A    
H16   N4    S    
C59   C94   A    
C126  C161  A    
C34   C70   A    
C124  Cl29  S    
C32   C159  S    
C58   Cl15  S    
H19   N5    S    
O12   Zn3   S    
C22   C149  S    
C142  C149  A    
O23   Zn2   S    
C109  C198  A    
C11   C182  S    
H1    N1    S    
C74   C82   A    
C93   N4    S    
H86   N39   S    
C51   C86   A    
O34   Zn11  S    
C26   O22   A    
C125  C160  A    
C85   N9    S    
H44   N18   S    
O46   Zn15  S    
C171  C184  A    
C44   C80   A    
C61   Cl18  S    
C100  N23   S    
C117  C120  A    
C59   Cl16  S    
H88   N40   S    
O38   Zn13  S    
C173  N37   S    
C8    O45   A    
C14   C188  S    
C113  C123  A    
C21   O18   A    
H68   N29   S    
H25   N8    S    
C140  C151  A    
H90   N40   S    
C24   Cl39  S    
C178  C187  A    
C138  C153  A    
O7    Zn13  S    
C23   C150  S    
C119  C154  A    
C52   Cl9   S    
C17   C152  S    
C190  Cl36  S    
C165  C196  A    
C124  C192  A    
H6    N46   S    
O33   Zn9   S    
C24   C57   A    
C44   Cl2   S    
C178  C200  A    
O48   Zn13  S    
H69   N30   S    
O50   Zn6   S    
C35   Cl40  S    
C65   C100  A    
O40   Zn10  S    
H76   N33   S    
C38   Cl34  S    
C13   Cl38  S    
C129  C143  A    
C132  C140  A    
O43   Zn9   S    
C105  C106  A    
O13   Zn1   S    
H18   N5    S    
C40   C75   A    
C32   O36   A    
C166  C197  A    
O10   Zn14  S    
C102  N34   S    
C109  C110  A    
C134  C154  A    
H4    N45   S    
C128  C161  A    
C112  C146  A    
C28   O25   A    
C111  C114  A    
C70   N25   S    
C31   C158  S    
C164  C182  A    
C78   N16   S    
C87   C104  A    
O41   Zn11  S    
C37   C72   A    
C10   C181  S    
O5    Zn11  S    
H96   N43   S    
C174  N38   S    
C61   C136  A    
C48   C113  A    
C58   C139  A    
C63   Cl20  S    
C89   C102  A    
H41   N16   S    
C66   C102  A    
O25   Zn16  S    
C95   C96   A    
H23   N12   S    
O3    Zn2   S    
H27   N9    S    
C79   C145  A    
C40   C121  A    
C19   C145  S    
H11   N2    S    
O4    Zn16  S    
O45   Zn4   S    
H82   N37   S    
C170  C192  A    
H71   N31   S    
C25   O46   A    
C47   C82   A    
O15   Zn7   S    
C118  C119  A    
C76   N18   S    
C141  C148  A    
C71   C85   A    
O39   Zn12  S    
C7    C175  A    
H38   N15   S    
C129  C162  A    
C20   O41   A    
O31   Zn15  S    
C117  C152  A    
C60   C137  A    
C50   Cl7   S    
C1    Cl27  S    
H67   N34   S    
O1    Zn8   S    
C115  C122  A    
H87   N39   S    
C28   C154  S    
H20   N6    S    
C106  C191  A    
C46   C190  A    
H75   N33   S    
H17   N4    S    
C10   O50   A    
O49   Zn3   S    
C51   C79   A    
C90   C126  A    
C173  C186  A    
H45   N23   S    
C113  C149  A    
O24   Zn4   S    
C54   C89   A    
C66   Cl24  S    
C51   Cl8   S    
H94   N42   S    
O23   Zn14  S    
C179  C197  A    
C30   O38   A    
H66   N29   S    
C53   C143  A    
O20   Zn6   S    
C14   O6    A    
C163  N27   S    
H43   N17   S    
H36   N14   S    
C135  C193  A    
O1    Zn4   S    
H78   N34   S    
O12   Zn7   S    
C17   O14   A    
C19   O16   A    
C43   Cl48  S    
H15   N3    S    
H62   N27   S    
H13   N2    S    
C8    O52   A    
O34   Zn15  S    
C18   C153  S    
H57   N24   S    
C29   O32   A    
C54   Cl11  S    
C104  N12   S    
O1    Zn1   S    
C70   C86   A    
C88   C103  A    
C12   O5    A    
C39   Cl44  S    
C69   C104  A    
C143  C145  A    
C22   O48   A    
C54   C142  A    
C110  C199  A    
C56   Cl14  S    
C55   C141  A    
C52   C87   A    
O30   Zn6   S    
C87   N7    S    
H5    N46   S    
C134  C138  A    
C92   N3    S    
O28   Zn8   S    
H60   N26   S    
O47   Zn12  S    
C62   C134  A    
C1    C157  A    
C16   C186  S    
C60   Cl17  S    
H29   N10   S    
C167  C181  A    
H63   N27   S    
C44   C117  A    
C115  C150  A    
H7    N47   S    
C64   Cl21  S    
C53   C88   A    
C22   O19   A    
C131  C160  A    
H70   N30   S    
C20   O17   A    
C56   C92   A    
C95   N2    S    
C168  C196  A    
C96   N46   S    
H51   N21   S    
C66   C130  A    
C108  C193  A    
C93   C98   A    
H80   N36   S    
C157  Cl32  S    
C91   N6    S    
C38   C73   A    
