data_mof_unit_58798.cif
_audit_creation_date              2012-12-10T19:12:17-0500
_audit_creation_method            fapswitch 2.2
_symmetry_space_group_name_H-M    P1
_symmetry_Int_Tables_number       1
_space_group_crystal_system       triclinic
_cell_length_a                    7.775174
_cell_length_b                    9.093839
_cell_length_c                    17.090457
_cell_angle_alpha                 89.630488
_cell_angle_beta                  93.399896
_cell_angle_gamma                 89.998833
_cell_volume                      1206.24889094

loop_
_atom_site_label
_atom_site_type_symbol
_atom_type_description
_atom_site_fract_x
_atom_site_fract_y
_atom_site_fract_z
_atom_type_partial_charge
C1    C     C_R   0.499983 0.219985 0.500007 0.832743
C2    C     C_R   0.500017 0.780015 0.499993 0.832752
C3    C     C_R   0.520226 0.501286 0.651446 0.895669
C4    C     C_R   0.479774 0.498715 0.348554 0.895670
C5    C     C_R   0.529794 0.510581 0.737420 -0.328167
C6    C     C_R   0.470213 0.489433 0.262579 -0.328258
C7    C     C_R   0.381945 0.544102 0.777623 0.511470
C8    C     C_R   0.618080 0.455978 0.222376 0.511733
C9    C     C_R   0.392028 0.555648 0.859144 0.277178
C10   C     C_R   0.608014 0.444453 0.140854 0.277137
C11   C     C_R   0.549950 0.525161 0.901776 0.032885
C12   C     C_R   0.450078 0.474890 0.098220 0.032770
C13   C     C_R   0.697749 0.497413 0.861414 0.571327
C14   C     C_R   0.302261 0.502566 0.138583 0.571392
C15   C     C_R   0.687985 0.490074 0.779929 -0.369104
C16   C     C_R   0.312015 0.509889 0.220068 -0.369158
C17   C     C_1   0.499997 0.065363 0.500001 -0.154464
C18   C     C_1   0.500003 0.934637 0.499998 -0.154463
Cu1   Cu    Cu3+1 0.669080 0.500010 0.500000 1.058179
Cu2   Cu    Cu3+1 0.330920 0.499990 0.500000 1.058178
H1    H     H_    0.803967 0.466265 0.750228 0.253464
H2    H     H_    0.196017 0.533643 0.249769 0.253504
N1    N     N_1   0.076820 0.499970 0.500010 -0.019904
N2    N     N_1   0.923180 0.500030 0.499990 -0.019903
N3    N     N_2   0.565577 0.523335 0.984700 -0.113933
N4    N     N_2   0.434450 0.476734 0.015296 -0.113941
O1    O     O_R   0.642760 0.288400 0.500000 -0.577662
O2    O     O_R   0.357240 0.711600 0.500000 -0.577656
O3    O     O_R   0.357190 0.288380 0.500000 -0.582155
O4    O     O_R   0.642810 0.711620 0.500000 -0.582148
O5    O     O_R   0.658410 0.498660 0.613920 -0.592328
O6    O     O_R   0.341590 0.501340 0.386080 -0.592318
O7    O     O_R   0.372840 0.498650 0.613930 -0.522124
O8    O     O_R   0.627160 0.501350 0.386070 -0.522122
F1    F     F_    0.772333 0.430335 0.261679 -0.619016
F2    F     F_    0.227700 0.569783 0.738320 -0.619094
O9    O     O_3   0.754718 0.406869 0.103568 -0.456659
C19   C     C_3   0.755076 0.253026 0.092776 0.137802
H3    H     H_    0.648987 0.220070 0.049809 0.125952
H4    H     H_    0.740936 0.193033 0.149170 0.133724
C20   C     C_3   0.925539 0.206937 0.061059 -0.621074
H5    H     H_    0.033622 0.235272 0.103695 0.260761
H6    H     H_    0.925898 0.086306 0.051401 0.157246
H7    H     H_    0.944407 0.263725 0.004542 0.303167
O10   O     O_3   0.245363 0.593298 0.896444 -0.456670
C21   C     C_3   0.244917 0.747186 0.907069 0.137564
H8    H     H_    0.258464 0.806945 0.850561 0.134225
H9    H     H_    0.351328 0.780424 0.949808 0.125623
C22   C     C_3   0.074736 0.793262 0.939065 -0.621317
H10   H     H_    0.056550 0.736804 0.995738 0.302876
H11   H     H_    0.074258 0.913957 0.948516 0.157285
H12   H     H_    0.966306 0.764532 0.896694 0.261059
F3    F     F_    0.851176 0.473436 0.901483 -0.594869
F4    F     F_    0.148823 0.526483 0.098513 -0.594830

loop_
_geom_bond_atom_site_label_1
_geom_bond_atom_site_label_2
_ccdc_geom_bond_type
C19   H4    S    
N1    N2    T    
C20   H5    S    
C9    O10   S    
O9    C19   S    
C2    C18   S    
C4    O8    A    
Cu1   O1    S    
C7    F2    S    
C20   H6    S    
C1    C17   S    
Cu1   Cu2   S    
Cu2   N1    S    
C2    O4    A    
C22   H12   S    
Cu1   O5    S    
C1    O3    A    
Cu1   N2    S    
O10   C21   S    
C3    O5    A    
C11   C13   A    
C21   C22   S    
C4    O6    A    
C10   C12   A    
C10   O9    S    
Cu2   O7    S    
C8    C10   A    
C14   F4    S    
C12   C14   A    
C17   C18   T    
C13   F3    S    
Cu2   O3    S    
C9    C11   A    
C13   C15   A    
C19   H3    S    
C20   H7    S    
C14   C16   A    
C5    C15   A    
C4    C6    S    
C2    O2    A    
C11   N3    S    
C6    C16   A    
C21   H9    S    
C7    C9    A    
C15   H1    S    
C19   C20   S    
C1    O1    A    
C22   H10   S    
Cu2   O6    S    
C12   N4    S    
C5    C7    A    
C3    O7    A    
C21   H8    S    
C6    C8    A    
Cu2   O2    S    
C3    C5    S    
N3    N4    D    
Cu1   O4    S    
Cu1   O8    S    
C16   H2    S    
C22   H11   S    
C8    F1    S    
