data_mof_unit_64704.cif
_audit_creation_date              2012-12-10T18:09:11-0500
_audit_creation_method            fapswitch 2.2
_symmetry_space_group_name_H-M    P1
_symmetry_Int_Tables_number       1
_space_group_crystal_system       triclinic
_cell_length_a                    21.68327
_cell_length_b                    21.683301
_cell_length_c                    18.21778
_cell_angle_alpha                 89.998562
_cell_angle_beta                  89.99893
_cell_angle_gamma                 90.015433
_cell_volume                      8565.35985183

loop_
_atom_site_label
_atom_site_type_symbol
_atom_type_description
_atom_site_fract_x
_atom_site_fract_y
_atom_site_fract_z
_atom_type_partial_charge
C1    C     C_R   0.999993 0.380221 0.500004 1.018106
C2    C     C_R   0.500000 0.000001 0.359037 0.973474
C3    C     C_3   0.850057 0.215704 0.408724 -0.351591
C4    C     C_3   0.800534 0.173480 0.376405 -0.862631
C5    C     C_3   0.811202 0.915232 0.398012 -0.335791
C6    C     C_3   0.784172 0.850111 0.408599 -0.351487
C7    C     C_3   0.826357 0.800594 0.376233 -0.862582
C8    C     C_3   0.584825 0.688802 0.101921 -0.335848
C9    C     C_3   0.649945 0.715785 0.091194 -0.351591
C10   C     C_3   0.699473 0.673636 0.123598 -0.862636
C11   C     C_3   0.688683 0.415204 0.101991 -0.335768
C12   C     C_3   0.715697 0.350055 0.091664 -0.351100
C13   C     C_R   0.999999 0.500000 0.640963 0.973392
C14   C     C_3   0.673275 0.300589 0.123768 -0.862677
C15   C     C_3   0.415132 0.311186 0.101855 -0.335908
C16   C     C_3   0.350010 0.284260 0.090946 -0.351706
C17   C     C_3   0.300464 0.326395 0.123334 -0.862394
C18   C     C_3   0.311256 0.584708 0.102075 -0.335780
C19   C     C_3   0.284208 0.649830 0.091691 -0.351389
C20   C     C_3   0.326479 0.699328 0.123997 -0.862599
C21   C     C_3   0.584919 0.311340 0.898158 -0.335859
C22   C     C_3   0.650073 0.284394 0.908664 -0.351173
C23   C     C_3   0.699553 0.326836 0.876627 -0.862496
C24   C     C_R   0.500000 0.999999 0.640963 0.973509
C25   C     C_3   0.688824 0.584722 0.897966 -0.335765
C26   C     C_3   0.715859 0.649839 0.908556 -0.351544
C27   C     C_3   0.673708 0.699356 0.876133 -0.862820
C28   C     C_3   0.415120 0.688728 0.898133 -0.335869
C29   C     C_3   0.349990 0.715654 0.908880 -0.351612
C30   C     C_3   0.300463 0.673409 0.876609 -0.862487
C31   C     C_3   0.311178 0.415340 0.897878 -0.335726
C32   C     C_3   0.284098 0.350222 0.908315 -0.351460
C33   C     C_3   0.326252 0.300726 0.875852 -0.862869
C34   C     C_R   0.500000 1.000000 0.859037 0.973233
C35   C     C_R   1.000000 0.500001 0.859037 0.973620
C36   C     C_R   0.499999 0.000001 0.140963 0.973384
C37   C     C_R   1.000000 0.499999 0.140963 0.973466
C38   C     C_1   0.000001 0.499998 0.282452 -0.079059
C39   C     C_1   0.499999 0.000002 0.282452 -0.079049
C40   C     C_1   0.999999 0.500001 0.717548 -0.079008
C41   C     C_R   0.380221 0.999992 0.499999 1.018158
C42   C     C_1   0.500001 0.999998 0.717548 -0.079094
C43   C     C_1   0.500001 0.999999 0.782451 -0.079160
C44   C     C_1   0.999999 0.500002 0.782451 -0.078957
C45   C     C_1   0.499999 0.000002 0.217548 -0.079108
C46   C     C_1   0.000001 0.499998 0.217548 -0.079016
C47   C     C_R   0.028520 0.283459 0.557784 0.305551
C48   C     C_R   0.283446 0.971472 0.557791 0.305537
C49   C     C_R   0.971490 0.716537 0.557790 0.305532
C50   C     C_R   0.716549 0.028508 0.557801 0.305537
C51   C     C_R   0.028553 0.716556 0.442227 0.305557
C52   C     C_R   0.000007 0.619780 0.500002 1.018112
C53   C     C_R   0.283465 0.028483 0.442192 0.305514
C54   C     C_R   0.971452 0.283449 0.442227 0.305526
C55   C     C_R   0.716538 0.971518 0.442191 0.305514
C56   C     C_R   0.528525 0.783462 0.057774 0.305510
C57   C     C_R   0.783435 0.471420 0.057775 0.305741
C58   C     C_R   0.471452 0.216535 0.057745 0.305496
C59   C     C_R   0.216550 0.528467 0.057832 0.305539
C60   C     C_R   0.528686 0.216572 0.942296 0.305805
C61   C     C_R   0.783471 0.528437 0.942180 0.305483
C62   C     C_R   0.471401 0.783442 0.942256 0.305559
C63   C     C_R   0.619779 0.000007 0.499996 1.018170
C64   C     C_R   0.216529 0.471603 0.942138 0.305462
C65   C     C_R   0.036605 0.219839 0.552578 0.008471
C66   C     C_R   0.219820 0.963393 0.552597 0.008467
C67   C     C_R   0.963404 0.780157 0.552586 0.008472
C68   C     C_R   0.780176 0.036589 0.552611 0.008492
C69   C     C_R   0.036625 0.780183 0.447421 0.008453
C70   C     C_R   0.219846 0.036577 0.447394 0.008462
C71   C     C_R   0.963383 0.219821 0.447419 0.008457
C72   C     C_R   0.780157 0.963421 0.447397 0.008478
C73   C     C_R   0.536606 0.719841 0.052574 0.008474
C74   C     C_R   0.499992 0.880220 0.999995 1.018053
C75   C     C_R   0.719807 0.463339 0.052567 0.008267
C76   C     C_R   0.463392 0.280157 0.052555 0.008562
C77   C     C_R   0.280175 0.536566 0.052633 0.008485
C78   C     C_R   0.536738 0.280203 0.947509 0.008216
C79   C     C_R   0.719853 0.536533 0.947369 0.008594
C80   C     C_R   0.463342 0.719813 0.947458 0.008425
C81   C     C_R   0.280146 0.463486 0.947334 0.008551
C82   C     C_R   0.999996 0.187462 0.499997 -0.217385
C83   C     C_R   0.187464 0.999990 0.499998 -0.217472
C84   C     C_R   0.000010 0.812538 0.500002 -0.217407
C85   C     C_R   0.880220 0.499989 0.000019 1.018168
C86   C     C_R   0.812536 0.000004 0.500004 -0.217477
C87   C     C_R   0.499987 0.687460 0.000007 -0.217292
C88   C     C_R   0.687463 0.499958 0.999979 -0.217578
C89   C     C_R   0.500046 0.312544 0.000024 -0.217310
C90   C     C_R   0.312532 0.500014 0.999991 -0.217618
C91   C     C_R   0.879226 0.000000 0.500001 0.891659
C92   C     C_R   0.999998 0.120773 0.499999 0.891688
C93   C     C_R   0.120773 0.999998 0.499999 0.891669
C94   C     C_R   0.000002 0.879227 0.500000 0.891674
C95   C     C_R   0.379225 0.499997 0.999999 0.891645
C96   C     C_R   0.500011 0.119781 0.999981 1.017991
C97   C     C_R   0.500003 0.620772 0.000001 0.891704
C98   C     C_R   0.620773 0.499999 0.999996 0.891609
C99   C     C_R   0.500000 0.379229 0.000004 0.891671
C100  C     C_R   0.999981 0.314560 0.500009 -0.243906
C101  C     C_R   0.314561 0.999977 0.499991 -0.243905
C102  C     C_R   0.000023 0.685441 0.500009 -0.243910
C103  C     C_R   0.685439 0.000019 0.499991 -0.243898
C104  C     C_R   0.499971 0.814558 0.000008 -0.243935
C105  C     C_R   0.814558 0.499953 0.999997 -0.243936
C106  C     C_R   0.500047 0.185446 0.000003 -0.244029
C107  C     C_R   0.119778 0.500008 0.000004 1.018270
C108  C     C_R   0.185436 0.500028 0.999991 -0.243828
C109  C     C_3   0.084804 0.188788 0.601946 -0.335844
C110  C     C_3   0.149930 0.215790 0.591310 -0.351514
C111  C     C_3   0.199445 0.173583 0.623641 -0.862600
C112  C     C_3   0.188739 0.915219 0.601998 -0.335770
C113  C     C_3   0.215724 0.850090 0.591442 -0.351439
C114  C     C_3   0.173462 0.800581 0.623735 -0.862669
C115  C     C_3   0.915198 0.811200 0.601950 -0.335797
C116  C     C_3   0.850075 0.784195 0.591297 -0.351513
C117  C     C_3   0.800558 0.826385 0.623642 -0.862715
C118  C     C_R   0.000000 0.500000 0.359037 0.973422
C119  C     C_3   0.811253 0.084758 0.602018 -0.335777
C120  C     C_3   0.784257 0.149885 0.591485 -0.351442
C121  C     C_3   0.826512 0.199393 0.623788 -0.862724
C122  C     C_3   0.084812 0.811266 0.398040 -0.335803
C123  C     C_3   0.149942 0.784301 0.408649 -0.351495
C124  C     C_3   0.199455 0.826560 0.376360 -0.862700
C125  C     C_3   0.188805 0.084768 0.398007 -0.335775
C126  C     C_3   0.215828 0.149891 0.408608 -0.351474
C127  C     C_3   0.173645 0.199401 0.376233 -0.862620
C128  C     C_3   0.915183 0.188749 0.398051 -0.335808
Cl1   Cl    Cl    0.051632 0.324577 0.637465 -0.631686
Cl2   Cl    Cl    0.824533 0.448351 0.137476 -0.631758
Cl3   Cl    Cl    0.448216 0.175401 0.137370 -0.631466
Cl4   Cl    Cl    0.175445 0.551424 0.137576 -0.631809
Cl5   Cl    Cl    0.551909 0.175474 0.862658 -0.631619
Cl6   Cl    Cl    0.824602 0.551476 0.862475 -0.631690
Cl7   Cl    Cl    0.448214 0.824548 0.862604 -0.631553
Cl8   Cl    Cl    0.175407 0.448672 0.862387 -0.631807
Cl9   Cl    Cl    0.324554 0.948404 0.637488 -0.631677
Cl10  Cl    Cl    0.948383 0.675416 0.637472 -0.631642
Cl11  Cl    Cl    0.675437 0.051551 0.637507 -0.631686
Cl12  Cl    Cl    0.051663 0.675448 0.362546 -0.631710
Cl13  Cl    Cl    0.324585 0.051546 0.362491 -0.631624
Cl14  Cl    Cl    0.948333 0.324562 0.362552 -0.631645
Cl15  Cl    Cl    0.675422 0.948462 0.362486 -0.631669
Cl16  Cl    Cl    0.551662 0.824584 0.137442 -0.631590
H1    H     H_    0.191635 0.167244 0.683429 0.278776
H2    H     H_    0.194443 0.754394 0.615473 0.261223
H3    H     H_    0.301185 0.627617 0.903974 0.260692
H4    H     H_    0.254275 0.694359 0.884987 0.261172
H5    H     H_    0.340936 0.722617 0.968111 0.228610
H6    H     H_    0.345615 0.761093 0.881691 0.287343
H7    H     H_    0.429117 0.693414 0.839722 0.234850
H8    H     H_    0.410530 0.639033 0.909554 0.222263
H9    H     H_    0.332552 0.308616 0.816081 0.278797
H10   H     H_    0.372050 0.301315 0.903209 0.260601
H11   H     H_    0.305216 0.254543 0.884054 0.261232
H12   H     H_    0.277068 0.340994 0.967500 0.228589
H13   H     H_    0.222791 0.840950 0.532245 0.228630
H14   H     H_    0.238668 0.346000 0.881065 0.287432
H15   H     H_    0.306598 0.429507 0.839514 0.234798
H16   H     H_    0.360845 0.410627 0.909384 0.222243
H17   H     H_    0.261125 0.845780 0.618743 0.287381
H18   H     H_    0.193365 0.929314 0.660382 0.234780
H19   H     H_    0.139058 0.910569 0.590525 0.222273
H20   H     H_    0.808355 0.832687 0.683428 0.278822
H21   H     H_    0.801225 0.872175 0.596272 0.260648
H22   H     H_    0.754373 0.805379 0.615339 0.261191
H23   H     H_    0.840963 0.777216 0.532078 0.228592
H24   H     H_    0.845750 0.738751 0.618496 0.287359
H25   H     H_    0.198787 0.127803 0.596230 0.260608
H26   H     H_    0.929246 0.806552 0.660347 0.234828
H27   H     H_    0.910566 0.860886 0.590507 0.222233
H28   H     H_    0.832865 0.191584 0.683565 0.278814
H29   H     H_    0.872278 0.198729 0.596360 0.260634
H30   H     H_    0.805530 0.245581 0.615524 0.261228
H31   H     H_    0.777184 0.159033 0.532290 0.228635
H32   H     H_    0.738857 0.154182 0.618793 0.287391
H33   H     H_    0.806640 0.070649 0.660397 0.234779
H34   H     H_    0.860929 0.089420 0.590529 0.222273
H35   H     H_    0.191671 0.832897 0.316577 0.278801
H36   H     H_    0.245633 0.194601 0.615361 0.261169
H37   H     H_    0.198769 0.872332 0.403772 0.260672
H38   H     H_    0.245644 0.805590 0.384659 0.261202
H39   H     H_    0.159059 0.777263 0.467855 0.228637
H40   H     H_    0.154272 0.738890 0.381380 0.287357
H41   H     H_    0.070744 0.806623 0.339649 0.234786
H42   H     H_    0.089444 0.860951 0.409497 0.222275
H43   H     H_    0.167336 0.191578 0.316450 0.278817
H44   H     H_    0.127854 0.198757 0.403608 0.260618
H45   H     H_    0.194662 0.245585 0.384503 0.261199
H46   H     H_    0.222816 0.159031 0.467820 0.228575
H47   H     H_    0.159045 0.222787 0.532094 0.228604
H48   H     H_    0.261271 0.154192 0.381398 0.287380
H49   H     H_    0.193437 0.070692 0.339618 0.234833
H50   H     H_    0.139123 0.089419 0.409465 0.222232
H51   H     H_    0.808264 0.167257 0.316596 0.278826
H52   H     H_    0.801266 0.127661 0.403704 0.260702
H53   H     H_    0.754343 0.194415 0.384822 0.261166
H54   H     H_    0.840963 0.222681 0.467942 0.228624
H55   H     H_    0.845718 0.261143 0.381528 0.287357
H56   H     H_    0.929225 0.193422 0.339654 0.234844
H57   H     H_    0.910566 0.139058 0.409478 0.222255
H58   H     H_    0.154253 0.261223 0.618532 0.287357
H59   H     H_    0.832673 0.808416 0.316446 0.278798
H60   H     H_    0.872146 0.801238 0.403618 0.260606
H61   H     H_    0.805335 0.754408 0.384510 0.261174
H62   H     H_    0.777171 0.840966 0.467808 0.228594
H63   H     H_    0.738737 0.845818 0.381374 0.287384
H64   H     H_    0.806585 0.929316 0.339623 0.234820
H65   H     H_    0.860879 0.910573 0.409485 0.222229
H66   H     H_    0.691735 0.667475 0.183416 0.278834
H67   H     H_    0.698755 0.627784 0.096378 0.260665
H68   H     H_    0.745659 0.694595 0.115157 0.261149
H69   H     H_    0.070748 0.193426 0.660340 0.234810
H70   H     H_    0.659034 0.722684 0.031959 0.228569
H71   H     H_    0.654279 0.761267 0.118295 0.287359
H72   H     H_    0.570810 0.693479 0.160325 0.234894
H73   H     H_    0.589438 0.639111 0.090511 0.222212
H74   H     H_    0.666489 0.308560 0.183464 0.278685
H75   H     H_    0.627689 0.301135 0.095882 0.260531
H76   H     H_    0.694370 0.254398 0.115889 0.261298
H77   H     H_    0.723015 0.340842 0.032516 0.228710
H78   H     H_    0.760974 0.345757 0.119270 0.287384
H79   H     H_    0.693202 0.429391 0.160356 0.234589
H80   H     H_    0.089439 0.139106 0.590493 0.222254
H81   H     H_    0.639024 0.410518 0.090397 0.222326
H82   H     H_    0.308134 0.332489 0.183177 0.278845
H83   H     H_    0.301235 0.372276 0.096176 0.260676
H84   H     H_    0.254277 0.305462 0.114787 0.261107
H85   H     H_    0.341004 0.277463 0.031677 0.228527
H86   H     H_    0.345609 0.238735 0.117937 0.287309
H87   H     H_    0.429055 0.306433 0.160280 0.234951
H88   H     H_    0.410573 0.360894 0.090525 0.222225
H89   H     H_    0.332952 0.691429 0.183752 0.278739
H90   H     H_    0.372201 0.698750 0.096441 0.260584
H91   H     H_    0.167100 0.808387 0.683511 0.278815
H92   H     H_    0.305430 0.745510 0.115892 0.261241
H93   H     H_    0.277050 0.659045 0.032522 0.228647
H94   H     H_    0.238846 0.654071 0.119098 0.287413
H95   H     H_    0.306708 0.570527 0.160434 0.234722
H96   H     H_    0.360915 0.589421 0.090520 0.222286
H97   H     H_    0.691652 0.333599 0.816911 0.278692
H98   H     H_    0.698943 0.372432 0.904493 0.260540
H99   H     H_    0.745747 0.305772 0.884599 0.261268
H100  H     H_    0.659195 0.277133 0.967842 0.228700
H101  H     H_    0.654452 0.239097 0.881120 0.287337
H102  H     H_    0.127699 0.801248 0.596298 0.260640
H103  H     H_    0.570828 0.306762 0.839767 0.234619
H104  H     H_    0.589536 0.361014 0.909698 0.222315
H105  H     H_    0.667467 0.691545 0.816344 0.278832
H106  H     H_    0.627890 0.698707 0.903434 0.260642
H107  H     H_    0.694711 0.745537 0.884447 0.261204
H108  H     H_    0.722825 0.658988 0.967766 0.228594
H109  H     H_    0.761313 0.654120 0.881375 0.287408
H110  H     H_    0.693458 0.570635 0.839582 0.234837
H111  H     H_    0.639144 0.589389 0.909417 0.222238
H112  H     H_    0.308197 0.667122 0.816810 0.278831
O1    O     O_R   0.948270 0.408400 0.500040 -0.603818
O2    O     O_R   0.908400 0.551730 0.000040 -0.603865
O3    O     O_R   0.551730 0.091600 0.000040 -0.603733
O4    O     O_R   0.091600 0.448270 0.000040 -0.603912
O5    O     O_R   0.448270 0.091600 0.999960 -0.603752
O6    O     O_R   0.908400 0.448270 0.999960 -0.603809
O7    O     O_R   0.551730 0.908400 0.999960 -0.603809
O8    O     O_R   0.091600 0.551730 0.999960 -0.603886
O9    O     O_R   0.948270 0.500020 0.392700 -0.605270
O10   O     O_R   0.500020 0.051730 0.392700 -0.605287
O11   O     O_R   0.051730 0.499980 0.392700 -0.605233
O12   O     O_R   0.408400 0.051730 0.500040 -0.603844
O13   O     O_R   0.499980 0.948270 0.392700 -0.605269
O14   O     O_R   0.948270 0.499980 0.607300 -0.605259
O15   O     O_R   0.500020 0.948270 0.607300 -0.605267
O16   O     O_R   0.051730 0.500020 0.607300 -0.605224
O17   O     O_R   0.499980 0.051730 0.607300 -0.605309
O18   O     O_R   0.448270 0.000020 0.892700 -0.605272
O19   O     O_R   0.000020 0.551730 0.892700 -0.605234
O20   O     O_R   0.551730 0.999980 0.892700 -0.605225
O21   O     O_R   0.999980 0.448270 0.892700 -0.605306
O22   O     O_R   0.448270 0.999980 0.107300 -0.605195
O23   O     O_R   0.051730 0.591600 0.500040 -0.603812
O24   O     O_R   0.000020 0.448270 0.107300 -0.605255
O25   O     O_R   0.551730 0.000020 0.107300 -0.605249
O26   O     O_R   0.999980 0.551730 0.107300 -0.605335
O27   O     O_R   0.908270 0.000020 0.560600 -0.632652
O28   O     O_R   0.000020 0.091730 0.560600 -0.632665
O29   O     O_R   0.091730 0.999980 0.560600 -0.632653
O30   O     O_R   0.999980 0.908270 0.560600 -0.632663
O31   O     O_R   0.908270 0.999980 0.439400 -0.632663
O32   O     O_R   0.000020 0.908270 0.439400 -0.632650
O33   O     O_R   0.091730 0.000020 0.439400 -0.632666
O34   O     O_R   0.591600 0.948270 0.500040 -0.603834
O35   O     O_R   0.999980 0.091730 0.439400 -0.632645
O36   O     O_R   0.408270 0.500020 0.060600 -0.632650
O37   O     O_R   0.500020 0.591730 0.060600 -0.632653
O38   O     O_R   0.591730 0.499980 0.060600 -0.632656
O39   O     O_R   0.499980 0.408270 0.060600 -0.632652
O40   O     O_R   0.408270 0.499980 0.939400 -0.632677
O41   O     O_R   0.500020 0.408270 0.939400 -0.632645
O42   O     O_R   0.591730 0.500020 0.939400 -0.632664
O43   O     O_R   0.499980 0.591730 0.939400 -0.632636
O44   O     O_R   0.948270 0.591600 0.499960 -0.603818
O45   O     O_R   0.408400 0.948270 0.499960 -0.603837
O46   O     O_R   0.051730 0.408400 0.499960 -0.603804
O47   O     O_R   0.591600 0.051730 0.499960 -0.603862
O48   O     O_R   0.448270 0.908400 0.000040 -0.603765
Zn1   Zn    Zn3+2 0.930920 0.500000 0.500000 1.059404
Zn2   Zn    Zn3+2 0.000000 0.000000 0.419070 0.938155
Zn3   Zn    Zn3+2 0.500000 0.500000 0.080930 0.938145
Zn4   Zn    Zn3+2 0.500000 0.500000 0.919070 0.938138
Zn5   Zn    Zn3+2 0.500000 0.069080 0.500000 1.059297
Zn6   Zn    Zn3+2 0.069080 0.500000 0.500000 1.059468
Zn7   Zn    Zn3+2 0.500000 0.930920 0.500000 1.059358
Zn8   Zn    Zn3+2 0.430920 0.000000 0.000000 1.059493
Zn9   Zn    Zn3+2 1.000000 0.569080 0.000000 1.059301
Zn10  Zn    Zn3+2 0.569080 0.000000 0.000000 1.059498
Zn11  Zn    Zn3+2 0.000000 0.430920 0.000000 1.059337
Zn12  Zn    Zn3+2 0.000000 1.000000 0.580930 0.938147

loop_
_geom_bond_atom_site_label_1
_geom_bond_atom_site_label_2
_ccdc_geom_bond_type
C126  C127  S    
C15   H88   S    
C91   O31   A    
C19   C20   S    
C90   C95   S    
C21   H103  S    
O19   Zn9   S    
C89   C99   S    
O27   Zn12  S    
C68   C119  S    
C5    C6    S    
O37   Zn3   S    
C17   H84   S    
O14   Zn1   S    
C83   C93   S    
C4    H52   S    
O10   Zn5   S    
C27   H107  S    
C110  C111  S    
C7    H59   S    
C121  H29   S    
C20   H92   S    
O30   Zn12  S    
C127  H43   S    
C61   C105  A    
O7    Zn10  S    
C71   C82   A    
C74   O7    A    
O34   Zn7   S    
C35   O19   A    
C21   C22   S    
C14   H76   S    
C78   C89   A    
C19   H94   S    
C11   H79   S    
C49   C102  A    
O40   Zn4   S    
C124  H38   S    
C120  H31   S    
C125  H49   S    
C117  H22   S    
C126  H48   S    
O32   Zn2   S    
C81   C90   A    
C10   H68   S    
C71   C128  S    
C23   H99   S    
O17   Zn5   S    
O23   Zn6   S    
O48   Zn8   S    
C2    O13   A    
C56   C73   A    
C8    H72   S    
C6    C7    S    
C110  H58   S    
C95   O40   A    
C27   H105  S    
C65   C82   A    
C96   O3    A    
C48   C101  A    
O4    Zn11  S    
C37   O24   A    
C113  H17   S    
C118  O11   A    
O3    Zn10  S    
C22   C23   S    
C14   H74   S    
C119  H33   S    
C113  H13   S    
C87   C97   S    
O44   Zn1   S    
C64   Cl8   S    
C58   C76   A    
C123  C124  S    
C9    H71   S    
C51   C102  A    
C60   C78   A    
C47   Cl1   S    
C62   C80   A    
C36   O25   A    
O21   Zn11  S    
C5    C72   S    
C33   H9    S    
C122  H42   S    
C115  C116  S    
C2    O10   A    
C16   H85   S    
C126  H46   S    
C8    H73   S    
C32   H12   S    
C10   H66   S    
C13   C40   S    
C123  H39   S    
C107  C108  S    
C91   O27   A    
C23   H97   S    
C9    C10   S    
O18   Zn8   S    
C76   C89   A    
C39   C45   T    
C115  H26   S    
C18   H96   S    
C64   C108  A    
C62   C104  A    
C55   Cl15  S    
C57   Cl2   S    
C53   C101  A    
C3    C128  S    
O22   Zn8   S    
C25   C26   S    
C29   H5    S    
C38   C118  S    
C62   Cl7   S    
C29   C30   S    
C99   O41   A    
C118  O9    A    
C31   C32   S    
C12   H78   S    
O35   Zn2   S    
C109  H80   S    
C36   O22   A    
O36   Zn3   S    
C26   H108  S    
C52   O23   A    
C30   H112  S    
C1    O46   A    
O25   Zn10  S    
O31   Zn2   S    
C3    C4    S    
C60   C106  A    
C120  C121  S    
C74   C104  S    
O41   Zn4   S    
C15   H87   S    
C116  H24   S    
C34   C43   S    
C31   H16   S    
C26   H109  S    
C33   H11   S    
C114  H91   S    
C5    H65   S    
C52   O44   A    
C92   O28   A    
C69   C84   A    
C11   C75   S    
C51   Cl12  S    
C93   O29   A    
C17   H83   S    
C69   C122  S    
C61   C79   A    
C64   C81   A    
C6    H62   S    
C50   C103  A    
C121  H28   S    
C28   H7    S    
C20   H89   S    
C48   C66   A    
O1    Zn1   S    
C88   C98   S    
O39   Zn3   S    
C24   C42   S    
C85   O6    A    
C7    H61   S    
C22   H100  S    
C25   H111  S    
C52   C102  S    
C26   C27   S    
C127  H45   S    
C97   O37   A    
C28   C29   S    
C99   O39   A    
C86   C91   S    
C19   H93   S    
C110  H47   S    
C3    H54   S    
C82   C92   S    
C18   C19   S    
C73   C87   A    
C124  H35   S    
C66   C83   A    
C120  H32   S    
C54   C71   A    
C117  H21   S    
C16   C17   S    
C21   C78   S    
C63   O34   A    
C74   O48   A    
C107  O8    A    
C35   O21   A    
O12   Zn5   S    
C15   C76   S    
C53   C70   A    
C1    C100  S    
C79   C88   A    
C61   Cl6   S    
C21   H104  S    
C1    O1    A    
C117  H20   S    
C59   Cl4   S    
C77   C90   A    
C30   H3    S    
C56   C104  A    
C63   C103  S    
C50   Cl11  S    
C94   O32   A    
O38   Zn3   S    
O33   Zn2   S    
C34   O20   A    
C111  H25   S    
O15   Zn7   S    
C128  H56   S    
C7    H60   S    
O8    Zn9   S    
C121  H30   S    
O29   Zn12  S    
C11   H81   S    
C127  H44   S    
C84   C94   S    
C70   C83   A    
C65   C109  S    
C70   C125  S    
C115  H27   S    
C54   Cl14  S    
C111  H36   S    
C14   H75   S    
C13   O16   A    
C42   C43   T    
O20   Zn10  S    
C113  C114  S    
C112  H19   S    
O6    Zn11  S    
C72   C86   A    
C119  C120  S    
C30   H4    S    
C9    H70   S    
C93   O33   A    
C32   C33   S    
C124  H37   S    
C109  C110  S    
C5    H64   S    
C57   C75   A    
C114  H102  S    
C125  H50   S    
C18   C77   S    
C16   H86   S    
C8    C73   S    
C41   C101  S    
C53   Cl13  S    
O26   Zn9   S    
O16   Zn6   S    
C56   Cl16  S    
C10   H67   S    
C41   O12   A    
C37   C46   S    
C50   C68   A    
C60   Cl5   S    
O42   Zn4   S    
C4    H51   S    
C57   C105  A    
C63   O47   A    
C96   O5    A    
C68   C86   A    
O5    Zn8   S    
C97   O43   A    
C59   C77   A    
O2    Zn9   S    
C94   O30   A    
C34   O18   A    
C123  H40   S    
C48   Cl9   S    
C27   H106  S    
C80   C87   A    
C109  H69   S    
C111  H1    S    
O43   Zn4   S    
C15   C16   S    
C55   C103  A    
C116  C117  S    
C67   C115  S    
C29   H6    S    
C2    C39   S    
C8    C9    S    
C3    H55   S    
C116  H23   S    
C119  H34   S    
C85   O2    A    
C58   Cl3   S    
C55   C72   A    
C51   C69   A    
C67   C84   A    
C49   Cl10  S    
C54   C100  A    
C98   O38   A    
C85   C105  S    
C112  C113  S    
C32   H14   S    
C24   O17   A    
O28   Zn12  S    
C38   C46   T    
C24   O15   A    
O9    Zn1   S    
C114  H2    S    
C41   O45   A    
C33   H10   S    
C122  H41   S    
C47   C100  A    
C107  O4    A    
C58   C106  A    
C17   H82   S    
C40   C44   T    
O46   Zn6   S    
C36   C45   S    
C95   O36   A    
C23   H98   S    
C35   C44   S    
C6    H63   S    
O11   Zn6   S    
C4    H53   S    
C12   C14   S    
C28   H8    S    
C20   H90   S    
C98   O42   A    
C18   H95   S    
C96   C106  S    
C49   C67   A    
C25   C79   S    
C22   H101  S    
C25   H110  S    
C112  H18   S    
C59   C108  A    
C31   C81   S    
O47   Zn5   S    
C13   O14   A    
C125  C126  S    
O24   Zn11  S    
C92   O35   A    
C128  H57   S    
C28   C80   S    
C12   H77   S    
C75   C88   A    
O45   Zn7   S    
C66   C112  S    
C122  C123  S    
C37   O26   A    
C47   C65   A    
C31   H15   S    
C11   C12   S    
O13   Zn7   S    
