data_mof_unit_27113.cif
_audit_creation_date              2012-12-11T14:21:05-0500
_audit_creation_method            fapswitch 2.2
_symmetry_space_group_name_H-M    P1
_symmetry_Int_Tables_number       1
_space_group_crystal_system       triclinic
_cell_length_a                    21.938512
_cell_length_b                    7.206818
_cell_length_c                    14.912232
_cell_angle_alpha                 90.416113
_cell_angle_beta                  106.85438
_cell_angle_gamma                 90.122069
_cell_volume                      2256.36787686

loop_
_atom_site_label
_atom_site_type_symbol
_atom_type_description
_atom_site_fract_x
_atom_site_fract_y
_atom_site_fract_z
_atom_type_partial_charge
O1    O     O_R   0.584770 0.505770 0.002090 -0.550066
O2    O     O_R   0.415230 0.005770 0.997910 -0.549944
O3    O     O_R   0.467060 0.173340 0.861950 -0.530362
O4    O     O_R   0.532940 0.673340 0.138050 -0.529087
C1    C     C_R   0.455058 0.343362 0.825908 0.689819
C2    C     C_R   0.544780 0.845039 0.173965 0.690816
O5    O     O_R   0.587510 0.175890 0.993210 -0.518782
O6    O     O_R   0.412490 0.675890 0.006790 -0.519354
O7    O     O_R   0.536540 0.008150 0.130100 -0.543849
O8    O     O_R   0.463460 0.508150 0.869900 -0.542902
C3    C     C_R   0.612541 0.344591 0.995064 0.769107
C4    C     C_R   0.387435 0.844392 0.004789 0.767329
O9    O     O_3   0.483140 0.340040 0.044760 -0.375180
O10   O     O_3   0.516860 0.840040 0.955240 -0.374881
V1    V     V_3+5 0.503130 0.064190 0.991700 1.491409
V2    V     V_3+5 0.496870 0.564190 0.008300 1.492200
C5    C     C_2   0.217646 0.735393 0.025013 -0.185724
C6    C     C_2   0.782006 0.234623 0.974249 -0.203604
C7    C     C_2   0.181865 0.889833 0.004100 -0.283873
C8    C     C_2   0.818172 0.389191 0.995983 -0.283911
C9    C     C_2   0.288300 0.730075 0.042060 0.012514
C10   C     C_2   0.711336 0.229438 0.957220 0.019923
C11   C     C_2   0.319366 0.854813 0.002601 -0.299658
C12   C     C_2   0.680567 0.355375 0.996997 -0.301945
H1    H     H_    0.292958 0.967604 0.961513 0.117671
H2    H     H_    0.707186 0.469140 0.038328 0.118559
C13   C     C_R   0.927598 0.882074 0.724160 -0.028752
C14   C     C_R   0.071988 0.392338 0.276401 -0.030524
C15   C     C_R   0.573644 0.855838 0.275189 -0.026642
C16   C     C_R   0.426289 0.346138 0.724404 -0.032766
C17   C     C_R   0.939662 0.844937 0.569746 -0.173425
C18   C     C_R   0.062765 0.462752 0.430040 -0.169607
C19   C     C_R   0.966550 0.864525 0.665932 -0.153350
C20   C     C_R   0.035422 0.448117 0.333780 -0.143676
C21   C     C_R   0.861592 0.883905 0.686353 -0.196066
C22   C     C_R   0.136582 0.354590 0.315120 -0.199351
C23   C     C_R   0.832432 0.866472 0.588517 0.086325
C24   C     C_R   0.166771 0.375685 0.412656 0.085766
C25   C     C_R   0.872750 0.840774 0.529519 0.049291
C26   C     C_R   0.128170 0.425695 0.471350 0.051198
C27   C     C_R   0.764763 0.873370 0.548309 0.057834
C28   C     C_R   0.234027 0.352860 0.452647 0.058727
C29   C     C_R   0.737874 0.851509 0.449486 0.017405
C30   C     C_R   0.262007 0.378345 0.551129 0.016861
C31   C     C_R   0.779272 0.819430 0.394169 -0.180189
C32   C     C_R   0.221733 0.420937 0.606930 -0.177642
C33   C     C_R   0.845480 0.813403 0.432115 -0.029951
C34   C     C_R   0.155966 0.443214 0.569188 -0.028761
C35   C     C_R   0.722985 0.903002 0.603750 -0.175333
C36   C     C_R   0.274470 0.307457 0.397061 -0.175357
C37   C     C_R   0.657520 0.909068 0.564476 -0.191563
C38   C     C_R   0.339499 0.285581 0.436038 -0.186159
C39   C     C_R   0.630580 0.888637 0.468338 0.136695
C40   C     C_R   0.367412 0.308366 0.531827 0.139736
C41   C     C_R   0.670109 0.860728 0.409048 0.095591
C42   C     C_R   0.329508 0.357136 0.591034 0.094078
C43   C     C_R   0.564066 0.897994 0.430956 -0.166236
C44   C     C_R   0.433203 0.279826 0.568964 -0.166611
C45   C     C_R   0.535774 0.881680 0.334821 -0.148837
C46   C     C_R   0.462228 0.295686 0.664873 -0.155655
C47   C     C_R   0.639860 0.845656 0.311429 -0.216499
C48   C     C_R   0.360984 0.379522 0.688068 -0.215132
H3    H     H_    0.665840 0.829092 0.260777 0.097019
H4    H     H_    0.336404 0.416990 0.738351 0.100084
H5    H     H_    0.627626 0.931758 0.610071 0.141990
H6    H     H_    0.368276 0.249233 0.390445 0.133201
H7    H     H_    0.017914 0.864685 0.695077 0.128238
H8    H     H_    0.985614 0.482304 0.303726 0.122487
H9    H     H_    0.834803 0.896923 0.736130 0.086852
H10   H     H_    0.161891 0.315555 0.266021 0.091211
H11   H     H_    0.761224 0.793598 0.320118 0.162843
H12   H     H_    0.240068 0.434423 0.681743 0.163048
H13   H     H_    0.738899 0.923521 0.678414 0.122977
H14   H     H_    0.257815 0.286928 0.322447 0.121644
O11   O     O_R   0.036450 0.233070 0.130130 -0.538128
O12   O     O_R   0.963550 0.733070 0.869870 -0.537628
O13   O     O_R   0.912470 0.560570 0.006790 -0.542612
O14   O     O_R   0.087530 0.060570 0.993210 -0.546978
C49   C     C_R   0.886704 0.392260 0.001174 0.745077
C50   C     C_R   0.113300 0.892552 0.998841 0.742101
O15   O     O_R   0.032920 0.562940 0.138050 -0.538657
O16   O     O_R   0.967080 0.062940 0.861950 -0.540391
O17   O     O_R   0.084790 0.730500 0.002090 -0.535158
O18   O     O_R   0.915210 0.230500 0.997910 -0.536607
C51   C     C_R   0.044727 0.395344 0.174576 0.682710
C52   C     C_R   0.955372 0.893599 0.825577 0.682322
O19   O     O_3   0.016820 0.396170 0.955260 -0.377298
O20   O     O_3   0.983180 0.896170 0.044740 -0.374341
V3    V     V_3+5 0.996880 0.672090 0.008300 1.456390
V4    V     V_3+5 0.003120 0.172090 0.991700 1.441898
H15   H     H_    0.194987 0.607724 0.037357 0.133875
H16   H     H_    0.804347 0.106803 0.961203 0.136163
H17   H     H_    0.533904 0.919314 0.476234 0.119892
H18   H     H_    0.462034 0.241081 0.523847 0.119827
H19   H     H_    0.203914 0.021839 0.997440 0.129197
H20   H     H_    0.796447 0.521308 0.003279 0.137250
C53   C     C_2   0.321806 0.580849 0.105699 0.397691
H21   H     H_    0.296696 0.453129 0.110631 0.017455
O21   O     O_2   0.375805 0.602965 0.157421 -0.532706
C54   C     C_2   0.677456 0.078940 0.893133 0.390307
H22   H     H_    0.702312 0.951224 0.887597 0.020673
O22   O     O_2   0.623425 0.099897 0.841716 -0.539466
C55   C     C_2   0.884556 0.770992 0.367675 0.366284
H23   H     H_    0.931449 0.710625 0.393291 0.032193
O23   O     O_2   0.864040 0.800320 0.283712 -0.532617
C56   C     C_2   0.117452 0.480314 0.635007 0.354596
H24   H     H_    0.067387 0.444192 0.616681 0.047302
O24   O     O_2   0.141787 0.549562 0.712170 -0.532483
H25   H     H_    0.484454 0.890555 0.306839 0.132224
H26   H     H_    0.512633 0.267106 0.692843 0.148934
H27   H     H_    0.972383 0.835117 0.528108 0.106188
H28   H     H_    0.032144 0.510011 0.470491 0.095286

loop_
_geom_bond_atom_site_label_1
_geom_bond_atom_site_label_2
_ccdc_geom_bond_type
C31   H11   S    
C5    H15   S    
C35   H13   S    
O2    C4    A    
C2    O7    A    
C53   H21   S    
C38   H6    S    
O14   V4    S    
O5    C3    A    
C4    C11   S    
O13   V3    S    
C28   C30   A    
C21   C23   A    
C12   H2    S    
C24   C28   A    
C36   H14   S    
C49   O18   A    
O14   C50   A    
C43   C45   A    
C56   H24   S    
C44   C46   A    
C3    C12   S    
C37   H5    S    
C47   H3    S    
C48   H4    S    
O11   V4    S    
C5    C7    D    
O11   C51   A    
C34   C56   S    
C15   C45   A    
C30   C32   A    
C35   C37   A    
C16   C46   A    
C36   C38   A    
C17   C19   A    
C32   H12   S    
O12   V3    S    
C42   C48   A    
O15   V3    S    
C38   C40   A    
C31   C33   A    
C8    H20   S    
C14   C20   A    
O6    V2    S    
C43   H17   S    
C27   C29   A    
O18   V4    S    
C50   O17   A    
C27   C35   A    
C53   O21   D    
C22   H10   S    
C15   C47   A    
C39   C41   A    
O17   V3    S    
C40   C42   A    
C10   C54   S    
C33   C55   S    
O4    C2    A    
C20   H8    S    
C39   C43   A    
C13   C21   A    
O16   C52   A    
C13   C19   A    
C37   C39   A    
C18   C20   A    
O4    V2    S    
C13   C52   S    
C9    C53   S    
C30   C42   A    
O6    C4    A    
C2    C15   S    
C54   O22   D    
O13   C49   A    
C55   O23   D    
O1    V2    S    
O2    V1    S    
C29   C31   A    
C14   C22   A    
C28   C36   A    
C29   C41   A    
C9    C11   D    
C10   C12   D    
O19   V4    S    
C22   C24   A    
O12   C52   A    
C14   C51   S    
C7    H19   S    
C19   H7    S    
C25   C33   A    
C1    C16   S    
C40   C44   A    
C26   C34   A    
C18   H28   S    
C8    C49   S    
C6    C10   S    
O3    C1    A    
O16   V4    S    
C6    H16   S    
C16   C48   A    
C44   H18   S    
C1    O8    A    
C23   C25   A    
O8    V2    S    
C24   C26   A    
C56   O24   D    
C41   C47   A    
O5    V1    S    
C54   H22   S    
C45   H25   S    
C17   C25   A    
C6    C8    D    
C18   C26   A    
C23   C27   A    
C7    C50   S    
C5    C9    S    
C46   H26   S    
C32   C34   A    
C11   H1    S    
O20   V3    S    
C21   H9    S    
O9    V2    S    
C55   H23   S    
C17   H27   S    
O10   V1    S    
O3    V1    S    
O1    C3    A    
O15   C51   A    
O7    V1    S    
