data_mof_unit_9228.cif
_audit_creation_date              2012-10-26T18:28:22-0400
_audit_creation_method            fapswitch 2.2
_symmetry_space_group_name_H-M    P1
_symmetry_Int_Tables_number       1
_space_group_crystal_system       triclinic
_cell_length_a                    27.724414
_cell_length_b                    11.0267
_cell_length_c                    9.897666
_cell_angle_alpha                 111.154479
_cell_angle_beta                  97.446485
_cell_angle_gamma                 91.951336
_cell_volume                      2787.39112101

loop_
_atom_site_label
_atom_site_type_symbol
_atom_type_description
_atom_site_fract_x
_atom_site_fract_y
_atom_site_fract_z
_atom_type_partial_charge
C1    C     C_R   0.496140 0.254248 0.440722 0.560154
C2    C     C_R   0.868585 0.378901 0.408919 -0.002180
C3    C     C_R   0.355591 0.510996 0.503961 0.008440
C4    C     C_R   0.645216 0.492257 0.493773 -0.002321
C5    C     C_R   0.969794 0.385318 0.388772 0.043174
C6    C     C_R   0.028164 0.629236 0.522275 0.024005
C7    C     C_R   0.978269 0.620730 0.539835 -0.012163
C8    C     C_R   0.019888 0.394467 0.371204 -0.003889
C9    C     C_R   0.948855 0.501067 0.468014 -0.006523
C10   C     C_R   0.049402 0.513129 0.448015 -0.010025
C11   C     C_R   0.940138 0.264192 0.338022 0.119381
C12   C     C_R   0.503283 0.745743 0.559399 0.555803
C13   C     C_R   0.057842 0.749983 0.572965 0.130326
C14   C     C_R   0.889898 0.263894 0.341050 -0.098945
C15   C     C_R   0.108615 0.749049 0.585292 -0.072093
C16   C     C_R   0.407865 0.501567 0.501649 0.546335
C17   C     C_R   0.592366 0.497691 0.497834 0.543783
C18   C     C_R   0.040999 0.291923 0.270991 -0.118292
C19   C     C_R   0.958049 0.725264 0.639440 -0.145729
C20   C     C_2   0.493100 0.114527 0.407858 -0.125343
C21   C     C_2   0.504800 0.885483 0.592855 -0.126648
C22   C     C_2   0.498645 0.069778 0.516854 -0.158211
C23   C     C_R   0.100598 0.516238 0.448018 -0.072011
C24   C     C_2   0.495773 0.930464 0.484762 -0.158016
C25   C     C_2   0.502106 0.519013 0.083708 0.233114
C26   C     C_2   0.492499 0.498529 0.922202 0.229482
C27   C     C_R   0.173533 0.406673 0.384189 0.402396
C28   C     C_R   0.826246 0.604986 0.557597 0.403476
C29   C     C_R   0.181215 0.631276 0.540549 0.393400
C30   C     C_R   0.818273 0.377018 0.414886 0.395561
C31   C     C_R   0.281520 0.601372 0.440113 -0.057611
C32   C     C_R   0.713394 0.447439 0.356812 -0.058086
C33   C     C_R   0.331970 0.597643 0.448902 -0.142957
C34   C     C_R   0.898268 0.496802 0.479202 -0.070040
C35   C     C_R   0.663239 0.448851 0.359548 -0.158905
C36   C     C_R   0.328357 0.427093 0.548566 -0.154853
C37   C     C_R   0.678209 0.529198 0.625062 -0.138610
C38   C     C_R   0.277954 0.432439 0.542528 -0.059016
C39   C     C_R   0.728241 0.525569 0.622113 -0.057362
C40   C     C_R   0.254156 0.518882 0.486987 0.230704
C41   C     C_R   0.746204 0.486513 0.488150 0.235382
C42   C     C_3   0.404232 0.468195 0.876410 -0.290603
C43   C     C_3   0.584951 0.622652 0.188690 -0.273529
C44   C     C_3   0.119604 0.217070 0.035084 -0.270381
C45   C     C_R   0.122078 0.403823 0.367164 0.047568
C46   C     C_3   0.888374 0.823998 0.892052 -0.269783
C47   C     C_3   0.983623 0.111475 0.420560 -0.304532
C48   C     C_3   0.052242 0.984002 0.715570 -0.336809
C49   C     C_R   0.877368 0.610031 0.562005 0.051533
C50   C     C_R   0.091325 0.294538 0.268922 0.134802
C51   C     C_R   0.908350 0.723050 0.648715 0.136689
C52   C     C_R   0.130307 0.632528 0.527868 -0.006835
Cu1   Cu    Cu3+1 0.508480 0.521810 0.644910 0.963216
Cu2   Cu    Cu3+1 0.491520 0.478190 0.355090 0.962546
H1    H     H_    0.345720 0.353727 0.581279 0.116241
H2    H     H_    0.263570 0.666846 0.394624 0.141197
H3    H     H_    0.867902 0.171137 0.296932 0.159987
H4    H     H_    0.130970 0.841214 0.629530 0.170697
H5    H     H_    0.018712 0.211165 0.186836 0.155057
H6    H     H_    0.980888 0.808485 0.717269 0.142200
H7    H     H_    0.451789 0.321576 0.819996 0.217086
H8    H     H_    0.398643 0.558659 0.853797 0.179747
H9    H     H_    0.402852 0.490608 0.994291 0.128876
H10   H     H_    0.373638 0.393617 0.814621 0.125173
H11   H     H_    0.522122 0.716887 0.171446 0.216880
H12   H     H_    0.665460 0.561800 0.730294 0.131911
H13   H     H_    0.601943 0.653184 0.304925 0.178797
H14   H     H_    0.601420 0.690983 0.144476 0.099014
H15   H     H_    0.593916 0.522258 0.126136 0.132362
H16   H     H_    0.090258 0.100554 0.133012 0.241507
H17   H     H_    0.137740 0.135470 0.962996 0.153179
H18   H     H_    0.144245 0.307814 0.068254 0.181965
H19   H     H_    0.084825 0.228363 0.972772 0.107258
H20   H     H_    0.908002 0.921483 0.761295 0.240276
H21   H     H_    0.871729 0.910088 0.962183 0.150600
H22   H     H_    0.925693 0.821749 0.947425 0.114277
H23   H     H_    0.513611 0.952041 0.706396 0.102878
H24   H     H_    0.865535 0.734543 0.879011 0.173094
H25   H     H_    0.638681 0.415471 0.256735 0.121497
H26   H     H_    0.352570 0.661146 0.411054 0.119369
H27   H     H_    0.937406 0.064180 0.223418 0.240989
H28   H     H_    0.001325 0.019078 0.378897 0.152473
H29   H     H_    0.956005 0.099581 0.487846 0.146420
H30   H     H_    0.012204 0.190002 0.490257 0.166985
H31   H     H_    0.004056 0.866795 0.523017 0.252238
H32   H     H_    0.019412 0.026124 0.761388 0.125658
H33   H     H_    0.072649 0.058356 0.688423 0.156000
H34   H     H_    0.486187 0.047827 0.294070 0.101104
H35   H     H_    0.075495 0.959646 0.800872 0.150862
H36   H     H_    0.486530 0.864334 0.371277 0.155760
H37   H     H_    0.505815 0.136090 0.630849 0.154925
H38   H     H_    0.551340 0.613621 0.926668 0.191185
H39   H     H_    0.458070 0.362609 0.065631 0.184438
H40   H     H_    0.257186 0.366958 0.577214 0.140070
H41   H     H_    0.753186 0.554621 0.724259 0.129971
H42   H     H_    0.726784 0.416674 0.252575 0.137651
N1    N     N_R   0.201837 0.518688 0.471658 -0.403500
N2    N     N_2   0.037563 0.869805 0.583627 -0.536198
N3    N     N_R   0.798003 0.489498 0.486037 -0.404463
N4    N     N_2   0.478780 0.445430 0.137360 -0.330037
N5    N     N_2   0.521220 0.554570 0.862640 -0.330595
N6    N     N_2   0.450121 0.418619 0.834289 -0.449443
N7    N     N_2   0.532644 0.631181 0.181013 -0.451017
N8    N     N_2   0.110028 0.189550 0.161958 -0.454731
N9    N     N_2   0.890667 0.833568 0.750977 -0.452587
N10   N     N_2   0.960462 0.141387 0.297982 -0.546831
O1    O     O_R   0.504520 0.332330 0.577400 -0.478057
O2    O     O_2   0.804607 0.714881 0.621038 -0.460994
O3    O     O_2   0.789846 0.263417 0.350890 -0.501233
O4    O     O_2   0.209899 0.741294 0.623086 -0.505935
O5    O     O_R   0.495480 0.667670 0.422600 -0.465181
O6    O     O_R   0.490210 0.295500 0.332650 -0.497412
O7    O     O_R   0.509790 0.704500 0.667350 -0.496874
O8    O     O_R   0.437420 0.518430 0.622370 -0.464743
O9    O     O_R   0.562580 0.481570 0.377630 -0.484103
O10   O     O_R   0.423110 0.481600 0.377610 -0.495530
O11   O     O_R   0.576890 0.518400 0.622390 -0.502682
O12   O     O_2   0.195268 0.298464 0.315271 -0.464679

loop_
_geom_bond_atom_site_label_1
_geom_bond_atom_site_label_2
_ccdc_geom_bond_type
C50   N8    S    
C23   C45   A    
C46   H22   S    
C44   N8    S    
C39   C41   A    
Cu1   Cu2   S    
C18   C50   A    
C3    C36   A    
C5    C11   A    
Cu1   O11   S    
C1    O6    A    
C11   C14   A    
H16   N8    S    
C3    C33   A    
C46   N9    S    
C16   O10   A    
C31   C40   A    
C44   H17   S    
C47   H28   S    
C13   N2    S    
H31   N2    S    
Cu1   N5    S    
C43   H14   S    
C49   C51   A    
Cu2   O10   S    
C32   C41   A    
C41   N3    S    
C47   H29   S    
C31   H2    S    
C42   H8    S    
C17   O11   A    
C2    C34   A    
C4    C35   A    
C43   H15   S    
C37   H12   S    
Cu2   N4    S    
C42   N6    S    
C46   H21   S    
Cu1   O7    S    
C37   C39   A    
C30   O3    S    
C32   C35   A    
C29   O4    S    
C40   N1    S    
C46   H24   S    
C25   N7    S    
C25   C26   S    
C15   C52   A    
C30   N3    A    
C8    C18   A    
C16   O8    A    
C5    C9    A    
C28   C49   A    
Cu1   O1    S    
C25   N4    D    
C22   H37   S    
C47   N10   S    
Cu2   O9    S    
C38   H40   S    
C11   N10   S    
C31   C33   A    
C48   H33   S    
Cu2   O6    S    
C47   H30   S    
H39   N4    S    
C39   H41   S    
H38   N5    S    
C1    O1    A    
C4    C17   S    
C28   N3    A    
C8    C10   A    
C32   H42   S    
C20   C22   D    
C7    C19   A    
C48   H35   S    
C13   C15   A    
C9    C34   A    
C10   C23   A    
C15   H4    S    
C48   H32   S    
H11   N7    S    
C42   H10   S    
Cu1   O8    S    
C17   O9    A    
C12   O7    A    
C27   O12   S    
C7    C9    A    
C14   H3    S    
H27   N10   S    
C27   N1    A    
C34   C49   A    
C1    C20   S    
C24   H36   S    
C6    C10   A    
C5    C8    A    
C33   H26   S    
C6    C7    A    
C19   H6    S    
C48   N2    S    
C29   N1    A    
C2    C30   A    
C36   C38   A    
H7    N6    S    
C26   N5    D    
C36   H1    S    
C26   N6    S    
H20   N9    S    
C38   C40   A    
C27   C45   A    
C23   C52   A    
C45   C50   A    
C28   O2    S    
C20   H34   S    
C35   H25   S    
Cu2   O5    S    
C44   H18   S    
C22   C24   S    
C44   H19   S    
C2    C14   A    
C43   N7    S    
C51   N9    S    
C12   C21   S    
C19   C51   A    
C18   H5    S    
C4    C37   A    
C43   H13   S    
C21   C24   D    
C21   H23   S    
C42   H9    S    
C12   O5    A    
C3    C16   S    
C6    C13   A    
C29   C52   A    
