data_mof_unit_63644.cif
_audit_creation_date              2013-03-05T15:44:28-0500
_audit_creation_method            fapswitch 2.2
_symmetry_space_group_name_H-M    P1
_symmetry_Int_Tables_number       1
_space_group_crystal_system       triclinic
_cell_length_a                    13.138553
_cell_length_b                    12.873607
_cell_length_c                    19.490213
_cell_angle_alpha                 99.57002
_cell_angle_beta                  80.793368
_cell_angle_gamma                 90.492547
_cell_volume                      3208.2823342

loop_
_atom_site_label
_atom_site_type_symbol
_atom_site_description
_atom_site_fract_x
_atom_site_fract_y
_atom_site_fract_z
_atom_type_partial_charge
Zn1   Zn    Zn3+2 0.571990 0.407410 0.544380 1.031451
Zn2   Zn    Zn3+2 0.407420 0.421690 0.442900 1.029538
Zn3   Zn    Zn3+2 0.598910 0.570150 0.439280 0.997355
Zn4   Zn    Zn3+2 0.421690 0.600750 0.573440 1.013489
O1    O     O_3   0.500000 0.500000 0.500000 -0.500777
O2    O     O_R   0.276880 0.592620 0.567490 -0.633732
O3    O     O_R   0.718700 0.413090 0.514970 -0.636203
O4    O     O_R   0.414920 0.276880 0.447500 -0.598897
O5    O     O_R   0.589510 0.717410 0.470040 -0.628404
O6    O     O_R   0.441420 0.437150 0.344000 -0.640928
O7    O     O_R   0.438960 0.578560 0.667440 -0.642893
O8    O     O_R   0.575450 0.541060 0.341470 -0.642861
O9    O     O_R   0.544160 0.443230 0.647100 -0.625285
O10   O     O_R   0.530110 0.266880 0.518530 -0.625818
O11   O     O_R   0.465470 0.738830 0.563940 -0.636040
O12   O     O_R   0.266890 0.467300 0.476120 -0.638811
O13   O     O_R   0.737530 0.526990 0.441410 -0.632331
C1    C     C_R   0.223019 0.535968 0.527030 0.881306
C2    C     C_R   0.776474 0.462881 0.473229 0.845295
C3    C     C_R   0.465538 0.222043 0.481192 0.854926
C4    C     C_R   0.530468 0.778301 0.518878 0.862070
C5    C     C_R   0.510456 0.486400 0.309398 0.807500
C6    C     C_R   0.490876 0.513578 0.690685 0.865386
C7    C     C_R   0.495041 0.522393 0.766060 -0.069887
C8    C     C_R   0.572307 0.467232 0.787551 -0.178620
C9    C     C_R   0.578271 0.474749 0.858443 -0.121717
C10   C     C_R   0.505356 0.535029 0.909641 0.095175
C11   C     C_R   0.427947 0.593147 0.888803 0.322726
C12   C     C_R   0.424453 0.586783 0.816589 -0.246400
C13   C     C_R   0.452923 0.399242 0.126011 -0.117016
C14   C     C_R   0.448838 0.408988 0.198446 -0.178181
C15   C     C_R   0.586274 0.536124 0.193889 -0.133264
C16   C     C_R   0.589956 0.526588 0.121261 -0.213865
C17   C     C_R   0.523228 0.458000 0.087158 0.049171
C18   C     C_2   0.513455 0.537793 0.984286 -0.241189
C19   C     C_2   0.524126 0.449116 0.010682 0.477418
C20   C     C_R   0.515362 0.477570 0.232997 -0.011878
H1    H     H_    0.629225 0.418968 0.749454 0.178495
H2    H     H_    0.393536 0.362700 0.227321 0.178230
H3    H     H_    0.638423 0.589333 0.219360 0.170491
H4    H     H_    0.400447 0.346715 0.100285 0.177607
H5    H     H_    0.364816 0.629671 0.799894 0.204926
H6    H     H_    0.506436 0.613820 0.018835 0.158222
H7    H     H_    0.640344 0.433111 0.873421 0.166653
H8    H     H_    0.644909 0.572240 0.091583 0.143754
H9    H     H_    0.090743 0.432660 0.453009 0.191842
H10   H     H_    0.901009 0.537557 0.561956 0.156359
C21   C     C_2   0.887680 0.449181 0.462862 -0.268219
C22   C     C_2   0.940777 0.493463 0.512573 -0.147814
H11   H     H_    0.073490 0.601622 0.586150 0.163095
C23   C     C_2   0.110316 0.546237 0.540864 -0.312718
C24   C     C_2   0.053561 0.486707 0.498960 -0.127360
H12   H     H_    0.926990 0.410685 0.411720 0.142913
H13   H     H_    0.383342 0.922850 0.580219 0.188965
C25   C     C_2   0.528692 0.892714 0.516417 -0.282204
C26   C     C_2   0.446256 0.954468 0.546953 -0.101920
C27   C     C_2   0.446968 0.107828 0.481761 0.035268
C28   C     C_2   0.441508 0.069159 0.543850 0.187041
H14   H     H_    0.592346 0.925253 0.484284 0.165096
N1    N     N_R   0.426199 0.139237 0.610768 0.217660
O14   O     O_R   0.460125 0.111877 0.664485 -0.350560
O15   O     O_R   0.364741 0.221127 0.621311 -0.401757
N2    N     N_R   0.439957 0.039948 0.415935 0.203842
O16   O     O_R   0.476665 0.070377 0.356578 -0.371676
O17   O     O_R   0.386842 0.954029 0.414501 -0.369217
O18   O     O_3   0.516505 0.351621 0.968652 -0.582604
C29   C     C_3   0.593417 0.281494 0.977651 -0.269418
H15   H     H_    0.573359 0.251847 0.028386 0.177112
H16   H     H_    0.670880 0.318031 0.973899 0.144930
H17   H     H_    0.598193 0.212427 0.934764 0.212701
N3    N     N_R   0.351161 0.655860 0.939480 0.207346
O19   O     O_R   0.315122 0.625866 0.999095 -0.363875
O20   O     O_R   0.308113 0.736816 0.922779 -0.361017

loop_
_geom_bond_atom_site_label_1
_geom_bond_atom_site_label_2
_geom_bond_distance
_ccdc_geom_bond_type
C6    C7    1.464326 S    
N2    O17   1.301495 A    
C13   H4    1.083468 S    
C27   N2    1.442836 S    
Zn3   O5    1.889719 S    
C25   H14   1.086618 S    
C12   H5    1.083238 S    
Zn1   O10   1.896857 S    
C16   H8    1.083211 S    
C19   O18   1.392332 S    
C17   C19   1.474002 S    
C18   C19   1.344870 D    
C13   C14   1.388771 A    
C25   C26   1.345563 D    
C29   H17   1.109177 S    
C10   C18   1.470168 S    
C15   C16   1.393406 A    
C22   C24   1.463723 S    
Zn4   O11   1.892812 S    
C16   C17   1.402871 A    
C9    C10   1.401821 A    
C18   H6    1.087387 S    
C9    H7    1.083244 S    
N3    O19   1.301281 A    
H10   C22   1.088158 S    
Zn1   O3    1.925446 S    
C15   C20   1.403190 A    
O6    C5    1.271245 A    
Zn4   O7    1.948787 S    
C23   C24   1.336907 D    
O5    C4    1.283881 A    
C27   C28   1.374515 D    
O4    C3    1.293757 A    
Zn1   O1    1.920309 S    
Zn4   O1    1.929775 S    
O7    C6    1.266904 A    
C21   C22   1.332733 D    
O13   C2    1.267484 A    
C14   H2    1.083032 S    
C1    C23   1.465126 S    
Zn3   O13   1.917476 S    
O3    C2    1.271349 A    
C15   H3    1.082975 S    
C14   C20   1.405097 A    
N1    O15   1.301979 A    
C21   H12   1.086889 S    
O2    C1    1.277875 A    
O8    C5    1.276436 A    
H13   C26   1.086183 S    
C11   N3    1.440526 S    
Zn1   O9    1.953501 S    
C13   C17   1.397658 A    
C28   N1    1.443368 S    
C29   H15   1.110540 S    
Zn2   O6    1.950700 S    
C8    H1    1.083296 S    
O11   C4    1.288320 A    
Zn2   O12   1.919040 S    
C7    C8    1.399161 A    
O9    C6    1.263602 A    
O10   C3    1.277490 A    
O12   C1    1.277635 A    
Zn4   O2    1.925465 S    
C29   H16   1.114361 S    
O18   C29   1.411380 S    
N3    O20   1.301491 A    
C7    C12   1.402357 A    
C11   C12   1.404309 A    
C4    C25   1.482137 S    
Zn3   O8    1.953980 S    
Zn3   O1    1.935965 S    
H9    C24   1.087884 S    
H11   C23   1.086984 S    
C8    C9    1.383700 A    
C2    C21   1.450797 S    
C5    C20   1.465454 S    
C3    C27   1.489975 S    
Zn2   O1    1.942536 S    
Zn2   O4    1.885378 S    
N2    O16   1.301272 A    
C26   C28   1.489982 S    
N1    O14   1.301352 A    
C10   C11   1.416132 A    
