data_mof_unit_51946.cif
_audit_creation_date              2012-12-10T17:06:40-0500
_audit_creation_method            fapswitch 2.2
_symmetry_space_group_name_H-M    P1
_symmetry_Int_Tables_number       1
_space_group_crystal_system       triclinic
_cell_length_a                    15.85829
_cell_length_b                    11.038389
_cell_length_c                    9.828571
_cell_angle_alpha                 111.12233
_cell_angle_beta                  97.838208
_cell_angle_gamma                 90.998924
_cell_volume                      1585.77063397

loop_
_atom_site_label
_atom_site_type_symbol
_atom_type_description
_atom_site_fract_x
_atom_site_fract_y
_atom_site_fract_z
_atom_type_partial_charge
C1    C     C_R   0.493908 0.254149 0.440689 0.862716
C2    C     C_R   0.506092 0.745851 0.559311 0.862716
C3    C     C_2   0.501562 0.069564 0.516577 -0.150870
C4    C     C_2   0.498438 0.930436 0.483423 -0.150870
C5    C     C_2   0.507288 0.510830 0.081131 -0.068835
C6    C     C_2   0.492712 0.489169 0.918869 -0.068834
C7    C     C_R   0.339944 0.499984 0.501508 0.823584
C8    C     C_R   0.660056 0.500016 0.498491 0.823583
C9    C     C_3   0.973418 0.405696 0.539437 0.543262
C10   C     C_3   0.026582 0.594304 0.460563 0.543263
C11   C     C_3   0.018942 0.383741 0.404340 -0.305500
C12   C     C_3   0.981058 0.616259 0.595660 -0.305494
C13   C     C_1   0.250500 0.499934 0.504563 -0.170951
C14   C     C_1   0.749499 0.500066 0.495437 -0.170951
C15   C     C_3   0.038313 0.518950 0.639024 -0.299780
C16   C     C_3   0.961687 0.481050 0.360976 -0.299787
C17   C     C_3   0.083142 0.498842 0.503162 0.070512
C18   C     C_3   0.916858 0.501158 0.496838 0.070512
C19   C     C_1   0.174963 0.499520 0.504911 0.004825
C20   C     C_1   0.825037 0.500480 0.495089 0.004824
C21   C     C_2   0.490589 0.114819 0.407303 -0.350522
C22   C     C_2   0.509411 0.885181 0.592697 -0.350522
Cu1   Cu    Cu3+1 0.514700 0.521810 0.644910 0.948734
Cu2   Cu    Cu3+1 0.485300 0.478190 0.355090 0.948735
H1    H     H_    0.035811 0.288743 0.327925 0.149015
H2    H     H_    0.964189 0.711258 0.672074 0.149017
H3    H     H_    0.929270 0.467233 0.248405 0.152681
H4    H     H_    0.070729 0.532766 0.751594 0.152683
H5    H     H_    0.487037 0.864662 0.368519 0.181651
H6    H     H_    0.512963 0.135338 0.631481 0.181650
H7    H     H_    0.520837 0.951254 0.707400 0.151143
H8    H     H_    0.479163 0.048745 0.292599 0.151144
H9    H     H_    0.443566 0.416205 0.846291 0.157567
H10   H     H_    0.556434 0.583795 0.153709 0.157566
H11   H     H_    0.583023 0.623272 0.934127 0.192686
H12   H     H_    0.416977 0.376728 0.065873 0.192687
N1    N     N_2   0.463210 0.445420 0.137360 -0.283426
N2    N     N_2   0.536790 0.554580 0.862640 -0.283426
O1    O     O_R   0.507840 0.332340 0.577400 -0.579235
O2    O     O_R   0.492160 0.667660 0.422600 -0.579235
O3    O     O_R   0.483020 0.295500 0.332650 -0.575015
O4    O     O_R   0.516980 0.704500 0.667350 -0.575015
O5    O     O_R   0.391490 0.518400 0.622350 -0.576632
O6    O     O_R   0.608510 0.481600 0.377650 -0.576632
O7    O     O_R   0.366660 0.481570 0.377600 -0.563338
O8    O     O_R   0.633340 0.518430 0.622400 -0.563338
O9    O     O_3   0.938656 0.307755 0.580536 -0.571537
C23   C     C_3   0.004219 0.232569 0.611511 0.065389
H13   H     H_    0.053953 0.294031 0.703032 0.140029
H14   H     H_    0.034224 0.182490 0.511786 0.136958
C24   C     C_3   0.966444 0.129193 0.658898 -0.784808
H15   H     H_    0.916912 0.065247 0.569409 0.246746
H16   H     H_    0.017406 0.068811 0.682923 0.200519
H17   H     H_    0.937093 0.176112 0.759862 0.252437
O10   O     O_3   0.061344 0.692246 0.419466 -0.571536
C25   C     C_3   0.995780 0.767423 0.388476 0.065376
H18   H     H_    0.965761 0.817488 0.488185 0.136962
H19   H     H_    0.946059 0.705958 0.296938 0.140042
C26   C     C_3   0.033557 0.870814 0.341115 -0.784840
H20   H     H_    0.062919 0.823910 0.240163 0.252443
H21   H     H_    0.982594 0.931192 0.317084 0.200521
H22   H     H_    0.083079 0.934760 0.430619 0.246751

loop_
_geom_bond_atom_site_label_1
_geom_bond_atom_site_label_2
_ccdc_geom_bond_type
C2    C22   S    
C3    H6    S    
C24   H16   S    
Cu1   Cu2   S    
C6    N2    D    
C1    C21   S    
C10   O10   S    
C7    O5    A    
Cu1   N2    S    
C4    C22   D    
C11   C16   S    
C4    H5    S    
C12   C15   S    
O10   C25   S    
C24   H17   S    
C5    H10   S    
C16   H3    S    
C23   H14   S    
Cu2   N1    S    
C9    C15   S    
C26   H20   S    
C6    H9    S    
C10   C16   S    
Cu2   O3    S    
C9    C11   S    
C8    O6    A    
C15   H4    S    
Cu1   O4    S    
C10   C12   S    
C2    O4    A    
Cu1   O1    S    
Cu2   O7    S    
C7    O7    A    
C1    O3    A    
H12   N1    S    
C17   C19   S    
C25   H19   S    
C9    O9    S    
C18   C20   S    
C5    C6    S    
Cu2   O6    S    
C21   H8    S    
C8    O8    A    
C3    C21   D    
C26   H21   S    
C5    N1    D    
C1    O1    A    
C10   C17   S    
C3    C4    S    
C2    O2    A    
C9    C18   S    
C7    C13   S    
H11   N2    S    
Cu1   O5    S    
C25   H18   S    
C14   C20   T    
C16   C18   S    
C22   H7    S    
C12   C18   S    
Cu1   O8    S    
C25   C26   S    
C11   H1    S    
C23   H13   S    
C13   C19   T    
C8    C14   S    
Cu2   O2    S    
C15   C17   S    
C23   C24   S    
C11   C17   S    
O9    C23   S    
C12   H2    S    
C26   H22   S    
C24   H15   S    
