data_mof_unit_56795.cif
_audit_creation_date              2012-12-10T17:33:05-0500
_audit_creation_method            fapswitch 2.2
_symmetry_space_group_name_H-M    P1
_symmetry_Int_Tables_number       1
_space_group_crystal_system       triclinic
_cell_length_a                    12.412794
_cell_length_b                    13.296615
_cell_length_c                    14.298326
_cell_angle_alpha                 93.627912
_cell_angle_beta                  108.41263
_cell_angle_gamma                 117.156118
_cell_volume                      1931.19447524

loop_
_atom_site_label
_atom_site_type_symbol
_atom_type_description
_atom_site_fract_x
_atom_site_fract_y
_atom_site_fract_z
_atom_type_partial_charge
C1    C     C_R   0.652018 0.714247 0.510323 0.766692
C2    C     C_R   0.901915 0.571628 0.924703 0.087988
C3    C     C_R   0.871426 0.613780 0.000444 0.163538
C4    C     C_R   0.016284 0.561253 0.953039 0.055670
C5    C     C_R   0.088558 0.577617 0.057596 0.074361
C6    C     C_R   0.058305 0.624104 0.131075 -0.178742
C7    C     C_R   0.952583 0.643145 0.102556 -0.224052
C8    C     C_R   0.060291 0.534414 0.880235 -0.216351
C9    C     C_R   0.160650 0.508789 0.907492 -0.185545
C10   C     C_R   0.218521 0.506706 0.007501 0.118623
C11   C     C_R   0.185611 0.543490 0.084194 0.085211
C12   C     C_R   0.621539 0.520594 0.687133 0.794965
C13   C     C_R   0.306460 0.465001 0.030719 -0.258345
C14   C     C_R   0.357443 0.452196 0.128512 0.255754
C15   C     C_R   0.245116 0.537985 0.183671 -0.291191
C16   C     C_R   0.154446 0.960189 0.385295 -0.188757
C17   C     C_R   0.253786 0.162106 0.470372 -0.047798
C18   C     C_R   0.751135 0.919983 0.596276 -0.222070
C19   C     C_R   0.864206 0.027970 0.642083 -0.184183
C20   C     C_R   0.974162 0.056591 0.618387 -0.009125
C21   C     C_R   0.961605 0.983876 0.532591 0.003199
C22   C     C_R   0.846070 0.872726 0.487177 0.075169
C23   C     C_R   0.345710 0.285412 0.485433 0.833426
C24   C     C_R   0.058934 0.016101 0.490283 0.080495
C25   C     C_R   0.052525 0.931409 0.419843 0.164648
C26   C     C_R   0.939653 0.822424 0.378177 -0.227448
C27   C     C_R   0.834267 0.797229 0.405538 -0.182643
C28   C     C_R   0.154660 0.132250 0.507502 -0.153878
C29   C     C_R   0.256760 0.075039 0.412629 -0.202680
C30   C     C_R   0.745901 0.838234 0.525834 -0.095616
C31   C     C_R   0.256182 0.677182 0.671516 -0.291581
C32   C     C_R   0.650007 0.332786 0.371462 0.094987
C33   C     C_R   0.722545 0.284208 0.355424 -0.259558
C34   C     C_R   0.383207 0.485646 0.313130 0.811909
C35   C     C_R   0.857756 0.342182 0.409909 -0.139302
C36   C     C_R   0.924409 0.453698 0.476678 0.005459
C37   C     C_R   0.844042 0.493918 0.498001 0.287611
C38   C     C_R   0.066139 0.521959 0.528762 -0.078830
C39   C     C_R   0.120501 0.615555 0.613399 0.164775
C40   C     C_R   0.039324 0.648788 0.638043 -0.279799
C41   C     C_R   0.904968 0.591737 0.579751 -0.188521
C42   C     C_R   0.157024 0.505549 0.497679 0.132146
C43   C     C_R   0.339151 0.649306 0.643838 0.040644
C44   C     C_R   0.701971 0.547570 0.795749 -0.047261
C45   C     C_R   0.326866 0.489659 0.206440 -0.103512
C46   C     C_R   0.758975 0.624771 0.973160 -0.196637
C47   C     C_R   0.675165 0.592630 0.871290 -0.189654
C48   C     C_R   0.813277 0.535604 0.823195 -0.250128
Cu1   Cu    Cu3+1 0.416420 0.526630 0.522910 0.963319
Cu2   Cu    Cu3+1 0.583580 0.473370 0.477090 0.936642
H1    H     H_    0.931942 0.677845 0.161086 0.136274
H2    H     H_    0.330756 0.436627 0.971479 0.134394
H3    H     H_    0.332511 0.096808 0.382659 0.148821
H4    H     H_    0.929357 0.759280 0.319357 0.139480
H5    H     H_    0.151963 0.895018 0.333758 0.135335
H6    H     H_    0.148378 0.201303 0.544827 0.164211
H7    H     H_    0.673724 0.896042 0.624712 0.164855
H8    H     H_    0.870391 0.084006 0.704362 0.180213
H9    H     H_    0.743409 0.717438 0.361554 0.170364
H10   H     H_    0.443366 0.695666 0.690000 0.127407
H11   H     H_    0.227182 0.568840 0.244966 0.200877
H12   H     H_    0.080532 0.721488 0.702105 0.162968
H13   H     H_    0.298022 0.746876 0.738240 0.146823
H14   H     H_    0.544439 0.285489 0.332065 0.131436
H15   H     H_    0.906702 0.294840 0.402651 0.165877
H16   H     H_    0.673386 0.199572 0.303441 0.146196
H17   H     H_    0.851534 0.624603 0.603829 0.204961
H18   H     H_    0.189397 0.485970 0.848970 0.163406
H19   H     H_    0.735782 0.658026 0.030695 0.131953
H20   H     H_    0.590031 0.603461 0.851750 0.149459
H21   H     H_    0.827338 0.495074 0.764013 0.161236
H22   H     H_    0.115576 0.648503 0.211523 0.166996
H23   H     H_    0.019659 0.533455 0.801327 0.156219
N1    N     N_R   0.290690 0.566960 0.557640 -0.214780
N2    N     N_R   0.709100 0.433710 0.442970 -0.206547
O1    O     O_R   0.545970 0.684450 0.528810 -0.583400
O2    O     O_R   0.687130 0.639470 0.490120 -0.602898
O3    O     O_R   0.519670 0.535100 0.660030 -0.586720
O4    O     O_R   0.660830 0.490120 0.621340 -0.599734
O5    O     O_R   0.312870 0.360530 0.509880 -0.536999
O6    O     O_R   0.454030 0.315550 0.471190 -0.598302
O7    O     O_R   0.339170 0.509880 0.378660 -0.573935
O8    O     O_R   0.480330 0.464900 0.339970 -0.553882
C49   C     C_2   0.101865 0.150822 0.695315 0.798142
O9    O     O_2   0.198842 0.139702 0.719219 -0.595064
O10   O     O_R   0.110102 0.250538 0.743199 -0.777621
H24   H     H_    0.202135 0.308082 0.794144 0.322251
C50   C     C_2   0.109780 0.441336 0.391859 0.851526
O11   O     O_2   0.063406 0.476957 0.322191 -0.637303
O12   O     O_R   0.106744 0.335869 0.370701 -0.763573
H25   H     H_    0.069053 0.299919 0.295054 0.319312
N3    N     N_2   0.436390 0.399000 0.146399 -0.409510
H26   H     H_    0.497299 0.421192 0.106893 0.250168
C51   C     C_3   0.362389 0.274171 0.133131 -0.663352
H27   H     H_    0.288677 0.231346 0.053745 0.231137
H28   H     H_    0.311627 0.253368 0.186783 0.224145
H29   H     H_    0.430027 0.238769 0.148523 0.213151

loop_
_geom_bond_atom_site_label_1
_geom_bond_atom_site_label_2
_ccdc_geom_bond_type
C1    O2    A    
C35   C36   A    
C4    C8    A    
Cu2   O4    S    
C32   N2    A    
C28   H6    S    
C41   H17   S    
C6    H22   S    
C26   C27   A    
C17   C23   S    
C31   C43   A    
C36   C37   A    
C49   O10   S    
C5    C11   A    
C3    C7    A    
C5    C6    A    
C35   H15   S    
C12   O4    A    
C40   H12   S    
Cu1   O3    S    
C18   C19   A    
C1    C30   S    
C46   H19   S    
C11   C15   A    
C19   C20   A    
C8    C9    A    
C12   O3    A    
C33   H16   S    
C18   C30   A    
C13   C14   A    
C23   O5    A    
C23   O6    A    
C9    C10   A    
C44   C47   A    
C43   N1    A    
C37   N2    A    
C21   C22   A    
C17   C28   A    
C26   H4    S    
C8    H23   S    
Cu2   O8    S    
C14   C45   A    
C19   H8    S    
C42   N1    A    
C31   H13   S    
C24   C25   A    
C32   H14   S    
C39   C40   A    
O10   H24   S    
C51   H29   S    
C2    C48   A    
C16   C29   A    
Cu1   O7    S    
C2    C4    A    
C47   H20   S    
C13   H2    S    
C18   H7    S    
C20   C21   A    
N3    C51   S    
C15   H11   S    
Cu1   O1    S    
C34   C45   S    
C49   O9    D    
C51   H28   S    
C14   N3    S    
C43   H10   S    
C40   C41   A    
C50   O12   S    
C22   C27   A    
C20   C49   S    
C42   C50   S    
C34   O8    A    
C15   C45   A    
C48   H21   S    
Cu2   O2    S    
C16   C25   A    
C46   C47   A    
C22   C30   A    
C1    O1    A    
C24   C28   A    
C4    C5    A    
C10   C13   A    
C38   C42   A    
C6    C7    A    
C3    C46   A    
Cu1   O5    S    
C32   C33   A    
C36   C38   A    
C2    C3    A    
C25   C26   A    
C16   H5    S    
C7    H1    S    
C12   C44   S    
C27   H9    S    
C17   C29   A    
O12   H25   S    
C38   C39   A    
C29   H3    S    
N3    H26   S    
C33   C35   A    
C31   C39   A    
C37   C41   A    
C51   H27   S    
C9    H18   S    
C10   C11   A    
C50   O11   D    
Cu1   Cu2   S    
C21   C24   A    
Cu1   N1    S    
C34   O7    A    
Cu2   N2    S    
C44   C48   A    
Cu2   O6    S    
