data_mof_unit_44064.cif
_audit_creation_date              2013-03-05T15:59:57-0500
_audit_creation_method            fapswitch 2.2
_symmetry_space_group_name_H-M    P1
_symmetry_Int_Tables_number       1
_space_group_crystal_system       triclinic
_cell_length_a                    12.66655
_cell_length_b                    13.182283
_cell_length_c                    19.147446
_cell_angle_alpha                 92.338159
_cell_angle_beta                  102.936148
_cell_angle_gamma                 81.451236
_cell_volume                      3081.27067317

loop_
_atom_site_label
_atom_site_type_symbol
_atom_site_description
_atom_site_fract_x
_atom_site_fract_y
_atom_site_fract_z
_atom_type_partial_charge
O1    O     O_R   0.366740 0.627160 0.482470 -0.540581
O2    O     O_R   0.544830 0.662520 0.505920 -0.636546
C1    C     C_R   0.438614 0.691305 0.487531 0.860491
O3    O     O_R   0.410920 0.482320 0.590130 -0.574725
O4    O     O_R   0.589010 0.517690 0.613590 -0.621097
C2    C     C_R   0.500741 0.502169 0.634364 0.908800
Zn1   Zn    Zn3+2 0.381090 0.476390 0.484340 1.141334
Zn2   Zn    Zn3+2 0.618910 0.523610 0.515660 0.992057
O5    O     O_R   0.455170 0.337480 0.494080 -0.535176
O6    O     O_R   0.633260 0.372840 0.517530 -0.605048
O7    O     O_R   0.410990 0.482310 0.386410 -0.538382
O8    O     O_R   0.589080 0.517680 0.409870 -0.645267
C3    C     C_R   0.561521 0.309200 0.514290 1.004198
C4    C     C_R   0.498937 0.498524 0.366121 0.942239
C5    C     C_R   0.404971 0.503884 0.733810 -0.083433
H1    H     H_    0.331219 0.487704 0.696721 0.201652
C6    C     C_R   0.403634 0.515579 0.805710 -0.178551
H2    H     H_    0.329841 0.506493 0.823135 0.184967
C7    C     C_R   0.497531 0.535285 0.855275 -0.042342
C8    C     C_R   0.594827 0.544504 0.833032 0.319900
C9    C     C_R   0.594751 0.532807 0.760101 -0.213534
H3    H     H_    0.668463 0.540005 0.742086 0.215160
C10   C     C_R   0.500598 0.511935 0.710535 -0.098013
N1    N     N_R   0.505964 0.436556 0.960030 -0.110392
N2    N     N_R   0.504316 0.429624 0.028624 -0.086186
C11   C     C_R   0.492412 0.515446 0.069186 0.353696
N3    N     N_R   0.478452 0.608786 0.038295 -0.120296
N4    N     N_R   0.479577 0.615834 0.969444 -0.088605
C12   C     C_R   0.495408 0.529604 0.929966 0.343287
C13   C     C_R   0.428365 0.580675 0.176640 -0.133036
H4    H     H_    0.375103 0.642314 0.145132 0.197081
C14   C     C_R   0.427840 0.574653 0.248504 -0.186772
H5    H     H_    0.375901 0.632596 0.272088 0.194853
C15   C     C_R   0.495791 0.496191 0.290257 -0.172210
C16   C     C_R   0.563804 0.420582 0.260140 0.216397
C17   C     C_R   0.564092 0.426679 0.187009 0.243968
C18   C     C_R   0.495906 0.507428 0.145450 -0.092011
C19   C     C_R   0.735302 0.051633 0.521362 0.256954
C20   C     C_R   0.600350 0.199613 0.530975 -0.286393
C21   C     C_R   0.299582 0.844815 0.494731 0.307169
C22   C     C_R   0.296557 0.927751 0.542398 -0.152106
C23   C     C_R   0.387448 0.978675 0.562828 -0.141891
C24   C     C_R   0.472847 0.959909 0.525246 0.133578
C25   C     C_R   0.482073 0.867759 0.486269 0.003708
C26   C     C_R   0.549091 0.028453 0.525172 -0.080041
C27   C     C_R   0.648609 0.992060 0.503372 -0.141230
C28   C     C_R   0.655244 0.900249 0.462279 0.361644
C29   C     C_R   0.569817 0.842038 0.452244 -0.205865
C30   C     C_R   0.523863 0.134785 0.536859 0.269082
C31   C     C_R   0.710884 0.156932 0.536943 0.177318
C32   C     C_R   0.401868 0.802679 0.481280 -0.206006
H6    H     H_    0.386341 0.036201 0.604482 0.209398
H7    H     H_    0.223441 0.955038 0.561942 0.224982
H8    H     H_    0.570989 0.775926 0.416803 0.193253
C33   C     C_R   0.091991 0.333636 0.411139 -0.245048
H9    H     H_    0.891670 0.295898 0.397844 0.223575
H10   H     H_    0.066849 0.273626 0.373440 0.224072
N5    N     N_R   0.222200 0.444680 0.463280 -0.200974
C34   C     C_R   0.799541 0.623692 0.590307 -0.116398
C35   C     C_R   0.907462 0.635748 0.620983 0.403655
C36   C     C_R   0.991063 0.579662 0.593054 -0.161183
C37   C     C_R   0.966635 0.516006 0.532273 -0.014366
C38   C     C_R   0.856864 0.498294 0.508747 0.181370
C39   C     C_R   0.046741 0.465688 0.495968 -0.055044
C40   C     C_R   0.018540 0.383921 0.448829 0.016113
C41   C     C_R   0.912757 0.359199 0.433460 -0.049846
C42   C     C_R   0.831609 0.419346 0.460021 -0.067228
C43   C     C_R   0.150020 0.498134 0.499834 0.312520
C44   C     C_R   0.191636 0.367582 0.415325 0.541946
N6    N     N_R   0.776960 0.554780 0.536340 -0.161571
H11   H     H_    0.733459 0.663786 0.612499 0.189091
H12   H     H_    0.074276 0.583753 0.620897 0.217844
H13   H     H_    0.750329 0.400908 0.443205 0.219472
S1    S     S_3+6 0.754445 0.865848 0.409612 0.128406
O9    O     O_2   0.713048 0.795634 0.349020 -0.272575
O10   O     O_2   0.778377 0.960318 0.378258 -0.151476
O11   O     O_3   0.870456 0.804950 0.460365 -0.395358
H14   H     H_    0.850636 0.739674 0.473747 0.345716
N7    N     N_R   0.846686 0.002063 0.536482 0.266731
O12   O     O_R   0.877887 0.930919 0.584874 -0.282030
O13   O     O_R   0.915840 0.023872 0.500320 -0.209603
N8    N     N_R   0.417102 0.179033 0.546232 0.200617
O14   O     O_R   0.407187 0.234027 0.603058 -0.396916
O15   O     O_R   0.331225 0.173186 0.494917 -0.350497
N9    N     N_R   0.199617 0.814292 0.453602 0.269769
O16   O     O_R   0.106087 0.865769 0.459824 -0.210947
O17   O     O_R   0.201485 0.752816 0.398785 -0.316746
S2    S     S_3+6 0.256527 0.326671 0.343375 0.117386
O18   O     O_2   0.374718 0.283437 0.368352 -0.221915
O19   O     O_2   0.199819 0.245066 0.299600 -0.247998
O20   O     O_3   0.244680 0.427428 0.289648 -0.522904
H15   H     H_    0.278494 0.399780 0.249618 0.389393
N10   N     N_R   0.166269 0.599792 0.524433 0.211705
O21   O     O_R   0.240364 0.615023 0.581250 -0.401229
O22   O     O_R   0.090895 0.675540 0.499538 -0.287961
S3    S     S_3+6 0.938782 0.715564 0.696385 0.093445
O23   O     O_2   0.841768 0.794808 0.700311 -0.250110
O24   O     O_2   0.968245 0.650807 0.762621 -0.241774
O25   O     O_3   0.046082 0.773757 0.690840 -0.474507
H16   H     H_    0.059417 0.816547 0.734798 0.401290
N11   N     N_R   0.694304 0.561891 0.882982 0.226806
O26   O     O_R   0.788540 0.536617 0.865725 -0.294471
O27   O     O_R   0.691561 0.610296 0.943257 -0.306713
N12   N     N_R   0.632646 0.338863 0.303339 0.210730
O28   O     O_R   0.730785 0.306827 0.294118 -0.329115
O29   O     O_R   0.595769 0.292443 0.349608 -0.370715
N13   N     N_R   0.634027 0.351705 0.155408 0.245354
O30   O     O_R   0.711969 0.379348 0.129533 -0.284464
O31   O     O_R   0.621472 0.255382 0.153918 -0.255621
N14   N     N_R   0.796447 0.217056 0.566808 0.236487
O32   O     O_R   0.790721 0.272756 0.623914 -0.337552
O33   O     O_R   0.882418 0.213282 0.539905 -0.330068

loop_
_geom_bond_atom_site_label_1
_geom_bond_atom_site_label_2
_geom_bond_distance
_ccdc_geom_bond_type
C21   N9    1.436840 S    
N10   O21   1.298354 A    
C22   C23   1.391330 A    
C7    C8    1.413769 A    
N12   O29   1.300764 A    
O11   H14   0.990012 S    
C29   H8    1.082902 S    
C11   N3    1.357559 A    
N11   O26   1.301676 A    
S1    O10   1.502618 D    
C39   C43   1.421336 A    
C17   C18   1.414331 A    
O4    C2    1.312988 A    
O7    C4    1.307250 A    
C19   N7    1.435199 S    
C5    H1    1.082764 S    
S3    O25   1.681719 S    
C31   N14   1.438987 S    
C5    C6    1.382644 A    
C15   C16   1.410103 A    
O5    C3    1.316237 A    
N14   O32   1.301594 A    
C37   C39   1.425079 A    
N1    C12   1.352093 A    
C16   C17   1.406679 A    
S1    O11   1.679801 S    
S3    O24   1.502713 D    
N13   O30   1.301392 A    
C38   N6    1.356915 A    
C42   H13   1.068771 S    
Zn1   N5    2.064182 S    
C5    C10   1.400286 A    
C41   C42   1.379377 A    
C34   C35   1.391542 A    
N10   O22   1.299012 A    
C9    H3    1.083031 S    
C17   N13   1.434757 S    
N13   O31   1.301310 A    
O3    Zn1   1.976147 S    
N12   O28   1.300348 A    
C33   C40   1.379860 A    
N9    O17   1.301929 A    
C38   C42   1.393548 A    
C19   C27   1.416371 A    
S1    O9    1.503985 D    
C28   C29   1.392245 A    
N1    N2    1.325314 A    
O3    C2    1.311189 A    
C16   N12   1.440662 S    
O20   H15   0.990735 S    
N7    O13   1.300775 A    
C1    C32   1.474008 S    
C8    N11   1.443371 S    
N2    C11   1.354932 A    
N9    O16   1.302214 A    
C13   C18   1.398928 A    
C35   C36   1.393728 A    
O1    C1    1.317533 A    
C14   C15   1.394438 A    
C30   N8    1.437622 S    
Zn1   O7    2.001062 S    
C24   C25   1.403254 A    
C37   C38   1.413581 A    
O25   H16   0.990485 S    
S2    O20   1.681672 S    
C26   C30   1.410734 A    
Zn2   O8    1.976147 S    
S3    O23   1.503410 D    
C6    H2    1.084204 S    
N5    C44   1.381154 A    
C8    C9    1.398455 A    
C24   C26   1.417486 A    
C22   H7    1.082714 S    
C33   C44   1.385425 A    
C44   S2    1.782970 S    
C35   S3    1.758570 S    
C25   C32   1.409319 A    
N5    C43   1.370044 A    
C21   C22   1.396977 A    
C20   C30   1.408738 A    
S2    O19   1.504088 D    
N8    O14   1.301905 A    
N8    O15   1.301852 A    
C33   H10   1.083359 S    
C23   C24   1.415468 A    
C7    C12   1.441597 S    
C36   H12   1.077527 S    
Zn1   O5    1.925371 S    
C27   C28   1.418658 A    
N4    C12   1.354152 A    
O1    Zn1   1.969756 S    
Zn2   O6    1.969756 S    
O2    Zn2   1.925370 S    
C28   S1    1.778246 S    
O8    C4    1.307438 A    
O6    C3    1.315480 A    
C4    C15   1.443390 S    
O4    Zn2   2.001061 S    
C11   C18   1.458681 S    
C19   C31   1.411143 A    
C21   C32   1.406149 A    
Zn2   N6    2.051776 S    
C43   N10   1.430783 S    
C14   H5    1.084259 S    
C9    C10   1.402926 A    
O2    C1    1.313423 A    
C39   C40   1.412390 A    
C13   C14   1.383086 A    
C13   H4    1.083583 S    
H9    C41   1.082133 S    
C2    C10   1.459282 S    
C6    C7    1.396094 A    
C36   C37   1.410875 A    
N14   O33   1.298692 A    
C3    C20   1.478820 S    
C34   N6    1.357612 A    
N7    O12   1.300408 A    
C26   C27   1.425778 A    
C20   C31   1.410410 A    
S2    O18   1.497592 D    
N11   O27   1.300634 A    
C40   C41   1.390531 A    
C23   H6    1.078825 S    
N3    N4    1.328747 A    
C25   C29   1.403118 A    
C34   H11   1.081638 S    
