data_mof_unit_61321.cif
_audit_creation_date              2012-12-10T19:29:19-0500
_audit_creation_method            fapswitch 2.2
_symmetry_space_group_name_H-M    P1
_symmetry_Int_Tables_number       1
_space_group_crystal_system       triclinic
_cell_length_a                    15.884548
_cell_length_b                    17.734224
_cell_length_c                    16.467384
_cell_angle_alpha                 89.984862
_cell_angle_beta                  90.038591
_cell_angle_gamma                 90.482459
_cell_volume                      4638.6985875

loop_
_atom_site_label
_atom_site_type_symbol
_atom_type_description
_atom_site_fract_x
_atom_site_fract_y
_atom_site_fract_z
_atom_type_partial_charge
C1    C     C_R   0.499848 0.355248 0.500026 0.881655
C2    C     C_R   0.500152 0.644752 0.499974 0.881654
C3    C     C_R   0.500376 0.767623 0.573674 -0.211543
C4    C     C_R   0.499624 0.232377 0.426326 -0.211543
C5    C     C_R   0.500328 0.727673 0.499976 -0.240757
C6    C     C_R   0.499672 0.272327 0.500023 -0.240757
C7    C     C_R   0.500418 0.767667 0.426284 -0.212209
C8    C     C_R   0.499582 0.232333 0.573716 -0.212209
C9    C     C_R   0.500398 0.846284 0.426282 0.619001
C10   C     C_R   0.499602 0.153716 0.573718 0.619001
C11   C     C_R   0.500313 0.885567 0.499988 -0.196641
C12   C     C_R   0.499686 0.114433 0.500012 -0.196641
C13   C     C_1   0.500101 0.966192 0.499996 0.212792
C14   C     C_1   0.499899 0.033808 0.500004 0.212792
C15   C     C_R   0.552940 0.548829 0.828989 0.455964
C16   C     C_R   0.447060 0.451171 0.171011 0.455964
C17   C     C_R   0.552045 0.547980 0.743217 0.595337
C18   C     C_R   0.447955 0.452020 0.256783 0.595338
C19   C     C_R   0.447921 0.451963 0.743189 0.601666
C20   C     C_R   0.552078 0.548037 0.256811 0.601666
C21   C     C_R   0.447033 0.451131 0.828962 0.458611
C22   C     C_R   0.552966 0.548870 0.171038 0.458612
C23   C     C_R   0.339521 0.499909 0.499956 0.830422
C24   C     C_R   0.660479 0.500091 0.500044 0.830423
C25   C     C_R   0.499989 0.499985 0.873143 -0.360547
C26   C     C_R   0.500011 0.500015 0.126857 -0.360547
C27   C     C_1   0.499996 0.499995 0.962752 0.295774
C28   C     C_1   0.500004 0.500005 0.037248 0.295774
C29   C     C_3   0.971492 0.436819 0.537072 -0.286644
C30   C     C_3   0.028508 0.563181 0.462928 -0.286644
C31   C     C_3   0.027239 0.438647 0.459491 -0.272875
C32   C     C_3   0.972761 0.561353 0.540509 -0.272875
C33   C     C_1   0.249905 0.499896 0.499825 -0.086350
C34   C     C_1   0.750095 0.500104 0.500175 -0.086350
C35   C     C_3   0.028174 0.498167 0.575536 0.746297
C36   C     C_3   0.971826 0.501833 0.424464 0.746297
C37   C     C_3   0.082874 0.499966 0.499193 -0.052749
C38   C     C_3   0.917126 0.500033 0.500807 -0.052749
C39   C     C_1   0.174433 0.499913 0.499575 0.099225
C40   C     C_1   0.825567 0.500087 0.500425 0.099225
C41   C     C_R   0.500354 0.846240 0.573687 0.618802
C42   C     C_R   0.499646 0.153760 0.426313 0.618802
Cu1   Cu    Cu3+1 0.500000 0.499980 0.580420 1.085726
Cu2   Cu    Cu3+1 0.500000 0.500020 0.419580 1.085726
H1    H     H_    0.500383 0.738151 0.631292 0.230205
H2    H     H_    0.499617 0.261849 0.368708 0.230206
N1    N     N_R   0.499980 0.499970 0.701220 -0.357434
N2    N     N_R   0.500020 0.500030 0.298780 -0.357434
O1    O     O_R   0.499990 0.391240 0.567930 -0.549858
O2    O     O_R   0.500010 0.608760 0.432070 -0.549857
O3    O     O_R   0.500000 0.391270 0.432120 -0.548148
O4    O     O_R   0.500000 0.608730 0.567880 -0.548149
O5    O     O_R   0.379070 0.499980 0.567900 -0.530424
O6    O     O_R   0.620930 0.500020 0.432100 -0.530425
O7    O     O_R   0.379080 0.500010 0.432080 -0.540735
O8    O     O_R   0.620920 0.499990 0.567920 -0.540735
H3    H     H_    0.050319 0.388949 0.425405 0.211191
H4    H     H_    0.949680 0.611051 0.574595 0.211191
F1    F     F_    0.396065 0.404307 0.702180 -0.564312
F2    F     F_    0.603934 0.595693 0.297820 -0.564313
F3    F     F_    0.394580 0.402766 0.868520 -0.528722
F4    F     F_    0.605419 0.597235 0.131480 -0.528723
H5    H     H_    0.947384 0.385577 0.568373 0.205650
H6    H     H_    0.052616 0.614422 0.431626 0.205650
F5    F     F_    0.940985 0.503741 0.345971 -0.587927
F6    F     F_    0.059015 0.496259 0.654029 -0.587926
F7    F     F_    0.500318 0.883905 0.645470 -0.573159
F8    F     F_    0.499682 0.116095 0.354530 -0.573159
H7    H     H_    0.500460 0.738228 0.368663 0.229628
H8    H     H_    0.499540 0.261771 0.631336 0.229627
F9    F     F_    0.500406 0.883993 0.354506 -0.573276
F10   F     F_    0.499594 0.116007 0.645494 -0.573276
F11   F     F_    0.605400 0.597199 0.868573 -0.532026
F12   F     F_    0.394601 0.402800 0.131427 -0.532026
F13   F     F_    0.603908 0.595619 0.702234 -0.571610
F14   F     F_    0.396093 0.404380 0.297766 -0.571610

loop_
_geom_bond_atom_site_label_1
_geom_bond_atom_site_label_2
_ccdc_geom_bond_type
C30   C32   S    
C29   H5    S    
C30   H6    S    
C32   H4    S    
C41   F7    S    
C4    H2    S    
C33   C39   T    
C16   F12   S    
C35   C37   S    
C19   N1    A    
Cu1   O4    S    
C15   C25   A    
C24   O6    A    
C15   C17   A    
C12   C42   A    
C2    O2    A    
Cu1   O5    S    
C23   C33   S    
C1    O1    A    
C29   C38   S    
C32   C38   S    
C20   F2    S    
C21   F3    S    
C13   C14   T    
C42   F8    S    
C10   C12   A    
C23   O5    A    
C16   C26   A    
C1    C6    S    
C32   C35   S    
C17   N1    A    
C4    C6    A    
C5    C7    A    
C36   F5    S    
Cu1   O1    S    
C6    C8    A    
C35   F6    S    
C19   F1    S    
C3    H1    S    
C24   C34   S    
C31   C37   S    
C30   C37   S    
Cu1   Cu2   S    
C22   F4    S    
C9    C11   A    
C29   C31   S    
C1    O3    A    
C20   N2    A    
C2    O4    A    
Cu2   O3    S    
C8    C10   A    
C15   F11   S    
C20   C22   A    
C34   C40   T    
C2    C5    S    
C25   C27   S    
Cu2   O2    S    
C7    C9    A    
C21   C25   A    
C3    C41   A    
C18   F14   S    
C19   C21   A    
C8    H8    S    
C9    F9    S    
C12   C14   S    
C3    C5    A    
C18   N2    A    
C7    H7    S    
C23   O7    A    
C24   O8    A    
C29   C35   S    
C26   C28   S    
C30   C36   S    
C31   H3    S    
C36   C38   S    
C37   C39   S    
C38   C40   S    
C11   C13   S    
Cu2   O7    S    
C4    C42   A    
C11   C41   A    
Cu2   O6    S    
Cu1   O8    S    
C16   C18   A    
C22   C26   A    
C27   C28   T    
C17   F13   S    
C31   C36   S    
Cu1   N1    S    
Cu2   N2    S    
C10   F10   S    
