data_mof_unit_61710.cif
_audit_creation_date              2012-12-11T17:18:40-0500
_audit_creation_method            fapswitch 2.2
_symmetry_space_group_name_H-M    P1
_symmetry_Int_Tables_number       1
_space_group_crystal_system       triclinic
_cell_length_a                    27.555099
_cell_length_b                    22.443976
_cell_length_c                    20.920439
_cell_angle_alpha                 89.998451
_cell_angle_beta                  51.434179
_cell_angle_gamma                 90.079268
_cell_volume                      10116.2351449

loop_
_atom_site_label
_atom_site_type_symbol
_atom_type_description
_atom_site_fract_x
_atom_site_fract_y
_atom_site_fract_z
_atom_type_partial_charge
C1    C     C_R   0.925546 0.581086 0.728922 -0.150875
C2    C     C_1   0.757012 0.350333 0.877195 0.116903
C3    C     C_R   0.132216 0.240811 0.096673 -0.078875
C4    C     C_R   0.631962 0.258978 0.096388 -0.078927
C5    C     C_R   0.368038 0.740992 0.903584 -0.078903
C6    C     C_R   0.205960 0.175143 0.952808 -0.074712
C7    C     C_R   0.794051 0.824721 0.047332 -0.074708
C8    C     C_R   0.318502 0.730620 0.047454 0.521107
C9    C     C_R   0.681566 0.269314 0.952494 0.521112
C10   C     C_R   0.848980 0.816714 0.901731 0.520110
C11   C     C_R   0.151363 0.183289 0.098312 0.520079
C12   C     C_R   0.650713 0.316796 0.097886 0.520143
C13   C     C_1   0.888380 0.718319 0.838671 0.117011
C14   C     C_R   0.349219 0.683203 0.902105 0.520130
C15   C     C_R   0.181972 0.230276 0.952774 0.521092
C16   C     C_R   0.817697 0.769410 0.047488 0.521085
C17   C     C_1   0.111615 0.281618 0.161395 0.116905
C18   C     C_1   0.611696 0.218265 0.161148 0.117155
C19   C     C_1   0.388304 0.781722 0.838840 0.117134
C20   C     C_1   0.257772 0.149722 0.877692 0.117032
C21   C     C_1   0.742242 0.850229 0.122370 0.116921
C22   C     C_1   0.803690 0.368894 0.814955 0.013880
C23   C     C_1   0.196310 0.631102 0.185041 0.013851
C24   C     C_1   0.099641 0.317165 0.212052 0.020283
C25   C     C_R   0.074451 0.418909 0.271080 -0.150900
C26   C     C_1   0.900355 0.682815 0.787971 0.020224
C27   C     C_1   0.400039 0.817218 0.788212 0.019890
C28   C     C_1   0.599960 0.182777 0.211785 0.019877
C29   C     C_1   0.695622 0.868745 0.184581 0.013879
C30   C     C_1   0.304392 0.131251 0.815441 0.013781
C31   C     C_1   0.126219 0.683701 0.584479 0.072451
C32   C     C_1   0.873773 0.316301 0.415529 0.072411
C33   C     C_1   0.792517 0.635540 0.533750 0.081237
C34   C     C_1   0.207439 0.364419 0.466354 0.081325
C35   C     C_1   0.707945 0.135415 0.465311 0.081073
C36   C     C_R   0.103931 0.563938 0.263823 -0.113729
C37   C     C_1   0.292060 0.864580 0.534674 0.081130
C38   C     C_1   0.373468 0.183567 0.415997 0.072458
C39   C     C_1   0.626602 0.816460 0.583938 0.072500
C40   C     C_2   0.170564 0.766636 0.622809 -0.148148
C41   C     C_2   0.829425 0.233374 0.377192 -0.148185
C42   C     C_2   0.690131 0.684443 0.576380 -0.129425
C43   C     C_2   0.309796 0.315541 0.423857 -0.129300
C44   C     C_2   0.810725 0.184059 0.422142 -0.129379
C45   C     C_2   0.189284 0.815937 0.577831 -0.129219
C46   C     C_2   0.328610 0.266466 0.378555 -0.147984
C47   C     C_R   0.896068 0.436061 0.736176 -0.113720
C48   C     C_2   0.671513 0.733641 0.621406 -0.148152
C49   C     C_1   0.856637 0.278814 0.393100 0.079969
C50   C     C_1   0.143353 0.721191 0.606906 0.080044
C51   C     C_1   0.255594 0.344521 0.445281 0.070668
C52   C     C_1   0.744346 0.655440 0.554882 0.070726
C53   C     C_1   0.243707 0.844806 0.556102 0.070365
C54   C     C_1   0.756301 0.155188 0.443877 0.070387
C55   C     C_1   0.644027 0.779009 0.605958 0.080228
C56   C     C_1   0.356073 0.221049 0.393972 0.080314
C57   C     C_R   0.905077 0.417868 0.422393 -0.211743
C58   C     C_R   0.396552 0.064159 0.736352 -0.113396
C59   C     C_R   0.094921 0.582132 0.577609 -0.211706
C60   C     C_R   0.118460 0.434322 0.541589 -0.186710
C61   C     C_R   0.881526 0.565665 0.458440 -0.186726
C62   C     C_R   0.381389 0.934343 0.458732 -0.186025
C63   C     C_R   0.618612 0.065656 0.541264 -0.186066
C64   C     C_R   0.594936 0.917916 0.577576 -0.212716
C65   C     C_R   0.405081 0.082091 0.422405 -0.212658
C66   C     C_R   0.886279 0.636767 0.527921 0.470750
C67   C     C_R   0.113708 0.363219 0.472106 0.470749
C68   C     C_R   0.088707 0.651196 0.507966 0.417545
C69   C     C_R   0.603458 0.935848 0.263650 -0.113407
C70   C     C_R   0.911291 0.348805 0.492036 0.417522
C71   C     C_R   0.411287 0.151128 0.492116 0.416623
C72   C     C_R   0.588726 0.848875 0.507872 0.416589
C73   C     C_R   0.613887 0.136764 0.471784 0.472264
C74   C     C_R   0.386115 0.863234 0.528212 0.472269
C75   C     C_R   0.891162 0.365739 0.664584 -0.039575
C76   C     C_R   0.108838 0.634261 0.335415 -0.039606
C77   C     C_R   0.076180 0.347973 0.343083 0.016296
C78   C     C_R   0.923823 0.652026 0.656920 0.016280
C79   C     C_R   0.423573 0.847978 0.657095 0.016760
C80   C     C_R   0.574777 0.081030 0.270886 -0.150699
C81   C     C_R   0.576427 0.152022 0.342904 0.016750
C82   C     C_R   0.608664 0.865757 0.335116 -0.038423
C83   C     C_R   0.391341 0.134251 0.664890 -0.038471
C84   C     C_R   0.911031 0.639760 0.730545 0.033424
C85   C     C_R   0.088967 0.360235 0.269461 0.033481
C86   C     C_R   0.138894 0.610938 0.257959 0.037781
C87   C     C_R   0.861106 0.389062 0.742039 0.037779
C88   C     C_R   0.361671 0.111167 0.742415 0.037640
C89   C     C_R   0.638341 0.888843 0.257592 0.037645
C90   C     C_R   0.589465 0.139714 0.269137 0.033412
C91   C     C_R   0.425223 0.918969 0.729114 -0.150674
C92   C     C_R   0.410534 0.860285 0.730862 0.033420
C93   C     C_R   0.890441 0.359890 0.447941 -0.022683
C94   C     C_R   0.109555 0.640111 0.552064 -0.022701
C95   C     C_R   0.149336 0.386041 0.492176 -0.048579
C96   C     C_R   0.850642 0.613937 0.507871 -0.048558
C97   C     C_R   0.350400 0.886077 0.508355 -0.048578
C98   C     C_R   0.649603 0.113920 0.491638 -0.048572
C99   C     C_R   0.609605 0.860000 0.551934 -0.023111
C100  C     C_R   0.390424 0.140011 0.448034 -0.023084
C101  C     C_R   0.644827 0.236573 0.024861 -0.310387
C102  C     C_1   0.242989 0.649653 0.122792 0.116911
C103  C     C_R   0.355240 0.763362 0.975087 -0.310385
C104  C     C_R   0.188261 0.150571 0.026049 -0.309544
C105  C     C_R   0.812084 0.849437 0.973996 -0.309553
C106  C     C_R   0.312567 0.650412 0.974446 -0.309723
C107  C     C_R   0.687366 0.349587 0.025544 -0.309700
C108  C     C_R   0.854672 0.736735 0.975202 -0.310287
C109  C     C_R   0.144991 0.262949 0.025064 -0.310237
C110  C     C_R   0.294784 0.675182 0.047603 -0.074553
C111  C     C_R   0.705217 0.324787 0.952369 -0.074566
C112  C     C_R   0.867784 0.759046 0.903469 -0.078927
Cl1   Cl    Cl    0.875907 0.708021 0.568916 -0.615096
Cl2   Cl    Cl    0.297443 0.762937 0.138327 -0.589049
Cl3   Cl    Cl    0.135663 0.153861 0.187584 -0.557477
Cl4   Cl    Cl    0.865119 0.846360 0.812299 -0.557508
Cl5   Cl    Cl    0.364981 0.653475 0.812961 -0.557615
Cl6   Cl    Cl    0.634862 0.346567 0.187062 -0.557563
Cl7   Cl    Cl    0.796323 0.737165 0.138598 -0.588980
Cl8   Cl    Cl    0.202913 0.262328 0.861786 -0.589109
Cl9   Cl    Cl    0.124068 0.291962 0.431127 -0.614801
Cl10  Cl    Cl    0.069653 0.722597 0.495183 -0.620347
Cl11  Cl    Cl    0.930345 0.277403 0.504816 -0.620396
Cl12  Cl    Cl    0.430230 0.222566 0.505133 -0.620208
Cl13  Cl    Cl    0.569788 0.777432 0.494861 -0.620064
Cl14  Cl    Cl    0.624427 0.208013 0.430595 -0.614759
Cl15  Cl    Cl    0.375574 0.791985 0.569401 -0.614702
Cl16  Cl    Cl    0.702714 0.236957 0.861597 -0.589036
H1    H     H_    0.931521 0.559918 0.770060 0.115961
H2    H     H_    0.094459 0.561706 0.624828 0.137617
H3    H     H_    0.132402 0.462706 0.569330 0.145244
H4    H     H_    0.867575 0.537273 0.430716 0.145252
H5    H     H_    0.367386 0.962768 0.431138 0.145170
H6    H     H_    0.632617 0.037232 0.568857 0.145154
H7    H     H_    0.594558 0.938327 0.624730 0.137866
H8    H     H_    0.405469 0.061683 0.375240 0.137872
H9    H     H_    0.874900 0.329498 0.648691 0.176621
H10   H     H_    0.125102 0.670501 0.351307 0.176605
H11   H     H_    0.068728 0.303701 0.367647 0.211776
H12   H     H_    0.068474 0.440073 0.229942 0.115968
H13   H     H_    0.931277 0.696300 0.632358 0.211760
H14   H     H_    0.431416 0.803698 0.632449 0.211268
H15   H     H_    0.568584 0.196302 0.367550 0.211279
H16   H     H_    0.625255 0.829836 0.350927 0.176104
H17   H     H_    0.374749 0.170173 0.649082 0.176051
H18   H     H_    0.630533 0.191809 0.023756 0.189575
H19   H     H_    0.369588 0.808104 0.976177 0.189574
H20   H     H_    0.207051 0.108106 0.025883 0.191266
H21   H     H_    0.793560 0.892041 0.974066 0.191297
H22   H     H_    0.293977 0.607713 0.974754 0.191249
H23   H     H_    0.114802 0.535291 0.214960 0.116176
H24   H     H_    0.705903 0.392312 0.025255 0.191266
H25   H     H_    0.868993 0.692081 0.976498 0.189598
H26   H     H_    0.130402 0.307491 0.023845 0.189587
H27   H     H_    0.173966 0.826013 0.542075 0.177473
H28   H     H_    0.826058 0.173973 0.457878 0.177456
H29   H     H_    0.689867 0.745679 0.652995 0.168230
H30   H     H_    0.310433 0.254529 0.346712 0.168117
H31   H     H_    0.811104 0.245476 0.345590 0.168075
H32   H     H_    0.188869 0.754544 0.654433 0.168047
H33   H     H_    0.325009 0.325450 0.459784 0.177485
H34   H     H_    0.885197 0.464707 0.785041 0.116177
H35   H     H_    0.674745 0.674413 0.540687 0.177520
H36   H     H_    0.385912 0.035602 0.785197 0.115970
H37   H     H_    0.614102 0.964405 0.214803 0.115987
H38   H     H_    0.568802 0.059872 0.229734 0.115829
H39   H     H_    0.431198 0.940127 0.770267 0.115821
H40   H     H_    0.905539 0.438293 0.375174 0.137622
N1    N     N_R   0.945330 0.558420 0.657110 -0.052864
N2    N     N_R   0.067050 0.559540 0.548760 -0.063626
N3    N     N_R   0.067050 0.440460 0.548760 -0.065642
N4    N     N_R   0.932950 0.559540 0.451240 -0.065641
N5    N     N_R   0.432950 0.940460 0.451240 -0.065427
N6    N     N_R   0.567050 0.059540 0.548760 -0.065424
N7    N     N_R   0.567050 0.940460 0.548760 -0.063772
N8    N     N_R   0.432950 0.059540 0.451240 -0.063779
N9    N     N_R   0.935620 0.600470 0.495720 -0.085272
N10   N     N_R   0.064380 0.399530 0.504280 -0.085287
N11   N     N_R   0.064380 0.600470 0.504280 -0.091956
N12   N     N_R   0.054670 0.441580 0.342890 -0.052861
N13   N     N_R   0.935620 0.399530 0.495720 -0.091955
N14   N     N_R   0.435620 0.100470 0.495720 -0.091900
N15   N     N_R   0.564380 0.899530 0.504280 -0.091917
N16   N     N_R   0.564380 0.100470 0.504280 -0.085289
N17   N     N_R   0.435620 0.899530 0.495720 -0.085291
N18   N     N_R   0.942650 0.398400 0.612630 -0.046927
N19   N     N_R   0.057350 0.601600 0.387370 -0.046923
N20   N     N_R   0.057350 0.398400 0.387370 -0.064147
N21   N     N_R   0.942650 0.601600 0.612630 -0.064134
N22   N     N_R   0.442650 0.898400 0.612630 -0.064249
N23   N     N_R   0.054670 0.558420 0.342890 -0.048770
N24   N     N_R   0.557350 0.101600 0.387370 -0.064248
N25   N     N_R   0.557350 0.898400 0.387370 -0.046991
N26   N     N_R   0.442650 0.101600 0.612630 -0.046976
N27   N     N_R   0.945330 0.441580 0.657110 -0.048773
N28   N     N_R   0.445330 0.058420 0.657110 -0.048740
N29   N     N_R   0.554670 0.941580 0.342890 -0.048742
N30   N     N_R   0.554670 0.058420 0.342890 -0.052878
N31   N     N_R   0.445330 0.941580 0.657110 -0.052872
N32   N     N_R   0.932950 0.440460 0.451240 -0.063626
Ni1   Ni    Ni4+2 0.004930 0.500000 0.602010 0.209678
Ni2   Ni    Ni4+2 0.995070 0.500000 0.397990 0.209669
Ni3   Ni    Ni4+2 0.504930 1.000000 0.602010 0.209732
Ni4   Ni    Ni4+2 0.495070 1.000000 0.397990 0.209738
Ni5   Ni    Ni4+2 0.998800 0.599610 0.500000 0.297083
Ni6   Ni    Ni4+2 0.001200 0.400390 0.500000 0.297085
Ni7   Ni    Ni4+2 0.498800 0.099610 0.500000 0.296175
Ni8   Ni    Ni4+2 0.501200 0.900390 0.500000 0.296185

loop_
_geom_bond_atom_site_label_1
_geom_bond_atom_site_label_2
_ccdc_geom_bond_type
N4    N9    A    
C9    C111  A    
C48   C55   S    
N26   N28   A    
N11   Ni5   S    
C59   H2    S    
C106  H22   S    
C66   Cl1   S    
C36   N23   A    
C104  H20   S    
N17   Ni8   S    
N1    N21   A    
C58   H36   S    
C5    C103  A    
C25   N12   A    
C103  H19   S    
C57   H40   S    
C20   C30   T    
C1    C84   A    
N8    N14   A    
N26   Ni7   S    
N20   Ni6   S    
C34   C51   T    
N16   Ni7   S    
N5    Ni4   S    
C62   H5    S    
C47   N27   A    
C3    C109  A    
C63   C98   A    
C1    H1    S    
C69   N29   A    
C40   C50   S    
C79   H14   S    
C71   C100  A    
C73   Cl14  S    
C46   H30   S    
C15   Cl8   S    
N29   Ni4   S    
N14   Ni7   S    
C41   C49   S    
N8    Ni4   S    
N2    Ni1   S    
N12   N20   A    
C61   H4    S    
C6    C15   A    
C83   H17   S    
C47   H34   S    
C70   Cl11  S    
C64   C99   A    
C39   C55   T    
C108  H25   S    
N21   Ni5   S    
C82   N25   A    
C23   C86   S    
C2    C22   T    
C26   C84   S    
C7    C105  A    
N3    N10   A    
C10   C112  A    
C11   C104  A    
C45   H27   S    
N23   Ni2   S    
C6    C104  A    
C4    C12   A    
C35   C98   S    
C19   C27   T    
C24   C85   S    
C9    C101  A    
N19   N23   A    
C8    Cl2   S    
C25   H12   S    
C74   N17   A    
C4    C18   S    
C83   C88   A    
C64   H7    S    
C77   C85   A    
C67   C95   A    
N25   Ni8   S    
C57   C93   A    
C35   C54   T    
N31   Ni3   S    
N15   Ni8   S    
C60   N3    A    
C71   N14   A    
C73   C98   A    
C78   N21   A    
C69   C89   A    
C67   Cl9   S    
C60   H3    S    
C37   C97   S    
C43   C46   D    
N22   N31   A    
C91   H39   S    
C74   C97   A    
C40   C45   D    
C2    C111  S    
C66   N9    A    
C101  H18   S    
C61   C96   A    
C17   C24   T    
N18   Ni6   S    
C44   H28   S    
C63   H6    S    
N18   N27   A    
C70   C93   A    
C18   C28   T    
C34   C95   S    
C72   N15   A    
C82   H16   S    
C75   H9    S    
C78   H13   S    
N6    N16   A    
C91   C92   A    
C73   N16   A    
C29   C89   S    
N1    Ni1   S    
C36   C86   A    
C7    C21   S    
C62   N5    A    
C21   C29   T    
C79   N22   A    
C78   C84   A    
C68   C94   A    
C108  C112  A    
C64   N7    A    
C47   C87   A    
N3    Ni1   S    
C81   N24   A    
C8    C110  A    
C62   C97   A    
C71   Cl12  S    
C70   N13   A    
C39   C99   S    
C74   Cl15  S    
C14   C106  A    
C14   Cl5   S    
C80   N30   A    
C4    C101  A    
N19   Ni5   S    
C25   C85   A    
N27   Ni1   S    
C5    C14   A    
C27   C92   S    
C61   N4    A    
C42   C48   D    
C22   C87   S    
N28   Ni3   S    
N4    Ni2   S    
C109  H26   S    
C82   C89   A    
C79   C92   A    
C76   N19   A    
C12   Cl6   S    
C81   C90   A    
C43   H33   S    
C75   C87   A    
C7    C16   A    
C59   C94   A    
N24   N30   A    
C15   C109  A    
C65   N8    A    
N30   Ni4   S    
C41   C44   D    
C13   C26   T    
C102  C110  S    
C75   N18   A    
C107  H24   S    
C31   C50   T    
C68   Cl10  S    
C59   N2    A    
C33   C96   S    
C76   C86   A    
C11   Cl3   S    
C63   N6    A    
C66   C96   A    
C106  C110  A    
N22   Ni8   S    
C91   N31   A    
C10   Cl4   S    
C32   C93   S    
C42   H35   S    
N7    N15   A    
C107  C111  A    
C40   H32   S    
C77   H11   S    
C65   C100  A    
C67   N10   A    
C58   C88   A    
C12   C107  A    
C33   C52   T    
C58   N28   A    
C36   H23   S    
C5    C19   S    
C76   H10   S    
C13   C112  S    
C31   C94   S    
C105  H21   S    
C48   H29   S    
N2    N11   A    
C68   N11   A    
N12   Ni2   S    
C72   Cl13  S    
N5    N17   A    
C83   N26   A    
N13   Ni6   S    
C37   C53   T    
C57   N32   A    
C38   C100  S    
C43   C51   S    
C6    C20   S    
C80   H38   S    
N25   N29   A    
C45   C53   S    
N10   Ni6   S    
C1    N1    A    
N6    Ni3   S    
N24   Ni7   S    
N9    Ni5   S    
C3    C17   S    
C80   C90   A    
C8    C103  A    
C69   H37   S    
C32   C49   T    
C65   H8    S    
C3    C11   A    
C16   C108  A    
N7    Ni3   S    
C23   C102  T    
C60   C95   A    
C44   C54   S    
C81   H15   S    
C38   C56   T    
N32   Ni2   S    
C46   C56   S    
C77   N20   A    
C10   C105  A    
C28   C90   S    
C9    Cl16  S    
N13   N32   A    
C30   C88   S    
C41   H31   S    
C16   Cl7   S    
C42   C52   S    
C72   C99   A    
