data_mof_unit_56320.cif
_audit_creation_date              2012-12-11T15:29:27-0500
_audit_creation_method            fapswitch 2.2
_symmetry_space_group_name_H-M    P1
_symmetry_Int_Tables_number       1
_space_group_crystal_system       triclinic
_cell_length_a                    13.488238
_cell_length_b                    13.492136
_cell_length_c                    27.573848
_cell_angle_alpha                 90.428541
_cell_angle_beta                  89.874343
_cell_angle_gamma                 60.000412
_cell_volume                      4345.5365117

loop_
_atom_site_label
_atom_site_type_symbol
_atom_type_description
_atom_site_fract_x
_atom_site_fract_y
_atom_site_fract_z
_atom_type_partial_charge
C1    C     C_R   0.620233 0.101131 0.569933 0.556352
C2    C     C_1   0.630984 0.731868 0.615898 -0.009110
C3    C     C_3   0.718720 0.559063 0.767171 -0.118771
C4    C     C_3   0.679648 0.656993 0.804761 0.069813
C5    C     C_3   0.605331 0.630990 0.739364 -0.103027
C6    C     C_3   0.663443 0.684421 0.709980 0.036043
C7    C     C_3   0.566564 0.728570 0.777518 -0.115513
C8    C     C_3   0.624305 0.782705 0.747317 -0.121876
C9    C     C_1   0.688195 0.635532 0.856924 0.000695
C10   C     C_1   0.649369 0.705018 0.657824 -0.051786
C11   C     C_3   0.108547 0.111233 0.738476 -0.100580
C12   C     C_R   0.599724 0.779160 0.568417 0.545075
C13   C     C_3   0.204878 0.054866 0.776703 -0.098253
C14   C     C_1   0.098166 0.199971 0.900336 -0.004140
C15   C     C_1   0.229609 0.137551 0.617113 -0.008580
C16   C     C_3   0.051914 0.223862 0.768630 -0.100538
C17   C     C_3   0.148666 0.167312 0.805990 0.052239
C18   C     C_3   0.123270 0.266250 0.740793 -0.095928
C19   C     C_3   0.179462 0.153936 0.711425 0.050109
C20   C     C_3   0.219545 0.209934 0.778862 -0.098350
C21   C     C_3   0.276239 0.097346 0.748775 -0.103435
C22   C     C_1   0.126145 0.180648 0.858282 -0.050270
C23   C     C_R   0.277654 0.121651 0.569376 0.548764
C24   C     C_1   0.201804 0.146347 0.659158 -0.054221
C25   C     C_3   0.664971 0.259611 0.737910 -0.103279
C26   C     C_3   0.570695 0.277224 0.774947 -0.101555
C27   C     C_1   0.691535 0.206454 0.901452 -0.001502
C28   C     C_1   0.635211 0.132881 0.617945 -0.007790
C29   C     C_3   0.757074 0.167069 0.770870 -0.098952
C30   C     C_3   0.662662 0.184409 0.807109 0.053864
C31   C     C_3   0.742405 0.073330 0.744726 -0.096897
C32   C     C_3   0.650489 0.166055 0.712508 0.050400
C33   C     C_3   0.648234 0.090829 0.781689 -0.099661
C34   C     C_R   0.623211 0.101668 0.432210 0.571805
C35   C     C_3   0.556020 0.183348 0.748699 -0.107142
C36   C     C_1   0.674473 0.195248 0.859417 -0.043759
C37   C     C_1   0.643465 0.151453 0.660135 -0.054804
C38   C     C_R   0.640882 0.721291 0.383269 0.026949
C39   C     C_R   0.723057 0.735807 0.357909 -0.125106
C40   C     C_R   0.736278 0.716541 0.308410 -0.122988
C41   C     C_R   0.670311 0.678879 0.283817 0.037270
C42   C     C_R   0.596920 0.652765 0.309960 -0.119828
C43   C     C_R   0.581499 0.674816 0.359515 -0.120069
C44   C     C_R   0.577000 0.700123 0.203910 -0.123599
C45   C     C_R   0.602159 0.776641 0.430532 0.539663
C46   C     C_R   0.585241 0.678711 0.154307 -0.128423
C47   C     C_R   0.789407 0.609514 0.157542 -0.127532
C48   C     C_R   0.781606 0.628363 0.207112 -0.124585
C49   C     C_R   0.676162 0.669737 0.230893 0.033861
C50   C     C_R   0.692505 0.628295 0.131341 0.023352
C51   C     C_R   0.215439 0.145550 0.385020 0.040071
C52   C     C_R   0.190227 0.066465 0.361871 0.009240
C53   C     C_R   0.170557 0.075278 0.311909 -0.141338
C54   C     C_R   0.167864 0.165255 0.285661 0.029754
C55   C     C_R   0.178818 0.250354 0.309884 -0.128029
C56   C     C_R   0.276525 0.121523 0.431525 0.564198
C57   C     C_R   0.202310 0.240721 0.358947 -0.143769
C58   C     C_R   0.210156 0.206884 0.202577 -0.147640
C59   C     C_R   0.185571 0.223931 0.152977 0.000979
C60   C     C_R   0.039517 0.169905 0.165342 -0.151391
C61   C     C_R   0.064980 0.153198 0.214057 -0.128662
C62   C     C_R   0.148629 0.173709 0.233230 0.026673
C63   C     C_R   0.096450 0.208291 0.134576 0.040363
C64   C     C_R   0.646280 0.142255 0.386425 0.043116
C65   C     C_R   0.566965 0.249849 0.366462 0.010247
C66   C     C_R   0.570013 0.265673 0.316603 -0.143644
C67   C     C_3   0.776878 0.612799 0.736898 -0.118137
C68   C     C_R   0.656371 0.180924 0.287280 0.025804
C69   C     C_R   0.743683 0.082079 0.308733 -0.129083
C70   C     C_R   0.738104 0.062375 0.357622 -0.140652
C71   C     C_R   0.698023 0.101528 0.202798 -0.122505
C72   C     C_R   0.712380 0.113902 0.153652 -0.127947
C73   C     C_R   0.633716 0.317826 0.166485 -0.130760
C74   C     C_R   0.622857 0.305000 0.215686 -0.125032
C75   C     C_R   0.657440 0.196307 0.234532 0.034496
C76   C     C_R   0.682511 0.221774 0.135568 0.024474
C77   C     C_R   0.050059 0.234794 0.948001 0.560615
C78   C     C_3   0.736981 0.710013 0.774985 0.051207
C79   C     C_R   0.711960 0.562094 0.946482 0.544983
C80   C     C_R   0.722616 0.224077 0.949105 0.550940
C81   C     C_R   0.048172 0.243136 0.086158 0.591841
C82   C     C_R   0.709203 0.572132 0.084312 0.538185
C83   C     C_R   0.719639 0.233570 0.087442 0.539461
C84   C     C_1   0.697210 0.608548 0.898860 0.011911
Cr1   Cr    Cr6+3 0.417550 0.169090 0.500530 1.074888
Cr2   Cr    Cr6+3 0.669180 0.913420 0.499920 1.031114
Cr3   Cr    Cr6+3 0.413260 0.917540 0.499520 1.082683
Cr4   Cr    Cr6+3 0.909770 0.175810 0.018240 1.037026
Cr5   Cr    Cr6+3 0.913300 0.427650 0.016090 1.064187
Cr6   Cr    Cr6+3 0.657770 0.431010 0.016900 1.032199
H1    H     H_    0.265569 0.250002 0.795947 0.111935
H2    H     H_    0.089284 0.353146 0.725531 0.108171
H3    H     H_    0.959267 0.276110 0.777434 0.097458
H4    H     H_    0.499853 0.360992 0.787991 0.110847
H5    H     H_    0.672094 0.328742 0.719521 0.105917
H6    H     H_    0.473029 0.190104 0.738957 0.104652
H7    H     H_    0.641068 0.021756 0.800099 0.125734
H8    H     H_    0.813332 0.989585 0.731706 0.104486
H9    H     H_    0.840170 0.160126 0.780562 0.104246
H10   H     H_    0.770245 0.771578 0.375326 0.132633
H11   H     H_    0.863158 0.565259 0.719876 0.102370
H12   H     H_    0.493955 0.736325 0.221400 0.106375
H13   H     H_    0.509278 0.694922 0.134587 0.131635
H14   H     H_    0.793253 0.737600 0.289139 0.098965
H15   H     H_    0.859406 0.604093 0.227052 0.105004
H16   H     H_    0.873415 0.570523 0.140726 0.138163
H17   H     H_    0.548398 0.619425 0.291831 0.098758
H18   H     H_    0.518642 0.661840 0.378576 0.137415
H19   H     H_    0.277555 0.219300 0.217455 0.094911
H20   H     H_    0.586077 0.874895 0.738667 0.093975
H21   H     H_    0.157625 0.011519 0.293383 0.087188
H22   H     H_    0.015279 0.129367 0.237114 0.118264
H23   H     H_    0.969882 0.158794 0.152303 0.142507
H24   H     H_    0.171953 0.323178 0.290595 0.106815
H25   H     H_    0.217168 0.305028 0.375649 0.137322
H26   H     H_    0.722093 0.017232 0.216164 0.108016
H27   H     H_    0.750231 0.039070 0.130142 0.127571
H28   H     H_    0.503989 0.344255 0.300722 0.081172
H29   H     H_    0.593239 0.379378 0.239095 0.106261
H30   H     H_    0.480297 0.776408 0.794528 0.108335
H31   H     H_    0.612189 0.401728 0.153353 0.136853
H32   H     H_    0.814690 0.017890 0.287442 0.103948
H33   H     H_    0.802392 0.980881 0.372032 0.136628
H34   H     H_    0.551369 0.597796 0.724079 0.112705
H35   H     H_    0.757225 0.466867 0.775826 0.100069
H36   H     H_    0.238821 0.968058 0.792041 0.107713
H37   H     H_    0.062528 0.071228 0.721339 0.109754
H38   H     H_    0.368904 0.045180 0.739976 0.099641
O1    O     O_R   0.301780 0.195490 0.553940 -0.506773
O2    O     O_R   0.658840 0.818280 0.449970 -0.510089
O3    O     O_R   0.503160 0.801780 0.445740 -0.508164
O4    O     O_R   0.319320 0.022190 0.450230 -0.451749
O5    O     O_3   0.499990 0.000010 0.499990 -0.270176
O6    O     O_R   0.819250 0.149410 0.965240 -0.499344
O7    O     O_R   0.006940 0.180310 0.968270 -0.495312
O8    O     O_R   0.028420 0.332670 0.963010 -0.486880
O9    O     O_R   0.810130 0.520390 0.966030 -0.485678
O10   O     O_R   0.636050 0.541380 0.962520 -0.509698
O11   O     O_R   0.666480 0.323610 0.968170 -0.493016
O12   O     O_R   0.522450 0.158840 0.550250 -0.482073
O13   O     O_R   0.817280 0.156800 0.072180 -0.519526
O14   O     O_R   0.005110 0.187160 0.067410 -0.514189
O15   O     O_R   0.026450 0.340060 0.069950 -0.474559
O16   O     O_R   0.808300 0.527240 0.065170 -0.509294
O17   O     O_R   0.634070 0.548770 0.069460 -0.520683
O18   O     O_R   0.664650 0.330470 0.067300 -0.499970
O19   O     O_3   0.826940 0.344820 0.017080 -0.262572
O20   O     O_R   0.694460 0.003360 0.553820 -0.504075
O21   O     O_R   0.657750 0.819520 0.549120 -0.497151
O22   O     O_R   0.501990 0.803120 0.552700 -0.499790
O23   O     O_R   0.318230 0.023430 0.549370 -0.483853
O24   O     O_R   0.302950 0.194150 0.446980 -0.530016
O25   O     O_R   0.523540 0.157600 0.451100 -0.455822
O26   O     O_R   0.695630 0.002030 0.446860 -0.528712
C85   C     C_2   0.810137 0.756277 0.793583 0.208652
H39   H     H_    0.845409 0.792094 0.768393 0.089254
O27   O     O_2   0.830199 0.754305 0.836792 -0.494146
C86   C     C_2   0.181736 0.975010 0.387672 0.240817
H40   H     H_    0.199232 0.897486 0.368322 0.084324
O28   O     O_2   0.148357 0.987960 0.429673 -0.483436
C87   C     C_2   0.256177 0.255326 0.122403 0.225799
H41   H     H_    0.309439 0.284750 0.139469 0.098211
O29   O     O_2   0.259515 0.244894 0.078326 -0.484032
C88   C     C_2   0.480565 0.348203 0.395609 0.236601
H42   H     H_    0.402174 0.412545 0.378721 0.081190
O30   O     O_2   0.498779 0.362239 0.437748 -0.484946

loop_
_geom_bond_atom_site_label_1
_geom_bond_atom_site_label_2
_ccdc_geom_bond_type
C44   C49   A    
C58   C62   A    
C66   C68   A    
C26   H4    S    
C85   O27   D    
C58   H19   S    
C11   C13   S    
C73   C74   A    
Cr3   O5    S    
C72   C76   A    
C2    C12   S    
Cr6   O11   S    
C7    C8    S    
C57   H25   S    
C35   H6    S    
C68   C75   S    
C74   H29   S    
C6    C67   S    
C5    H34   S    
C11   C19   S    
C16   H3    S    
Cr6   O19   S    
C63   C81   S    
C60   C63   A    
C28   C37   T    
C88   H42   S    
C19   C21   S    
C18   C19   S    
Cr6   O17   S    
C79   C84   S    
C78   C85   S    
C31   H8    S    
C17   C20   S    
C80   O6    A    
C23   O1    A    
C51   C56   S    
C41   C42   A    
C14   C77   S    
Cr3   O3    S    
C38   C45   S    
Cr1   O1    S    
C48   H15   S    
C70   H33   S    
C41   C49   S    
C47   C48   A    
C16   C17   S    
Cr3   O22   S    
C72   H27   S    
C1    C28   S    
C31   C33   S    
C51   C57   A    
C77   O8    A    
C64   C70   A    
C56   O24   A    
C42   H17   S    
C18   C20   S    
C53   H21   S    
C25   C32   S    
C15   C23   S    
C45   O2    A    
Cr5   O8    S    
Cr3   O23   S    
C8    C78   S    
C60   H23   S    
C61   C62   A    
C67   C78   S    
C4    C7    S    
C12   O21   A    
C76   C83   S    
Cr4   O14   S    
C87   O29   D    
C44   C46   A    
C87   H41   S    
C47   C50   A    
C34   O26   A    
C25   C29   S    
C38   C39   A    
C20   H1    S    
C3    C67   S    
C74   C75   A    
C29   H9    S    
C51   C52   A    
C32   C35   S    
C12   O22   A    
C52   C86   S    
C82   O16   A    
C27   C80   S    
Cr2   O21   S    
C39   C40   A    
C5    C7    S    
C44   H12   S    
C68   C69   A    
C6    C8    S    
C54   C62   S    
C50   C82   S    
C58   C59   A    
C53   C54   A    
C60   C61   A    
Cr3   O4    S    
Cr6   O10   S    
C11   H37   S    
C4    C78   S    
C29   C30   S    
C59   C87   S    
C8    H20   S    
C40   H14   S    
C83   O18   A    
C11   C16   S    
Cr2   O5    S    
C31   C32   S    
C47   H16   S    
C34   C64   S    
C13   C21   S    
Cr1   O25   S    
C32   C37   S    
C21   H38   S    
Cr1   O12   S    
C56   O4    A    
C1    O12   A    
C13   H36   S    
C16   C18   S    
C81   O14   A    
C79   O9    A    
C45   O3    A    
C73   H31   S    
C55   C57   A    
C86   H40   S    
C73   C76   A    
C42   C43   A    
C3    C4    S    
C80   O11   A    
Cr4   O13   S    
C82   O17   A    
C52   C53   A    
C67   H11   S    
C83   O13   A    
C34   O25   A    
Cr5   O19   S    
C23   O23   A    
C54   C55   A    
C15   C24   T    
C30   C33   S    
C59   C63   A    
C7    H30   S    
Cr2   O2    S    
Cr4   O7    S    
C3    C5    S    
Cr2   O20   S    
C6    C10   S    
C3    H35   S    
C25   H5    S    
C55   H24   S    
C13   C17   S    
C27   C36   T    
Cr5   O16   S    
C46   H13   S    
C46   C50   A    
Cr5   O9    S    
C17   C22   S    
C30   C36   S    
C18   H2    S    
C64   C65   A    
C14   C22   T    
C88   O30   D    
C19   C24   S    
C25   C26   S    
Cr1   O24   S    
Cr4   O6    S    
C38   C43   A    
C29   C31   S    
Cr5   O15   S    
C71   C75   A    
C86   O28   D    
C39   H10   S    
C5    C6    S    
C69   H32   S    
C48   C49   A    
C65   C88   S    
C33   C35   S    
Cr4   O19   S    
C71   H26   S    
C33   H7    S    
C43   H18   S    
Cr2   O26   S    
C69   C70   A    
C9    C84   T    
C26   C35   S    
C81   O15   A    
C79   O10   A    
C71   C72   A    
C20   C21   S    
Cr6   O18   S    
C65   C66   A    
C66   H28   S    
C85   H39   S    
C1    O20   A    
C40   C41   A    
C77   O7    A    
C4    C9    S    
C61   H22   S    
Cr1   O5    S    
C26   C30   S    
C2    C10   T    
