data_mof_unit_8711.cif
_audit_creation_date              2012-12-10T17:02:55-0500
_audit_creation_method            fapswitch 2.2
_symmetry_space_group_name_H-M    P1
_symmetry_Int_Tables_number       1
_space_group_crystal_system       triclinic
_cell_length_a                    9.802592
_cell_length_b                    11.031109
_cell_length_c                    13.422661
_cell_angle_alpha                 94.107444
_cell_angle_beta                  81.368085
_cell_angle_gamma                 111.308708
_cell_volume                      1336.66598186

loop_
_atom_site_label
_atom_site_type_symbol
_atom_type_description
_atom_site_fract_x
_atom_site_fract_y
_atom_site_fract_z
_atom_type_partial_charge
C1    C     C_R   0.556705 0.745545 0.506929 0.863709
C2    C     C_R   0.372054 0.475982 0.799825 -0.101588
C3    C     C_2   0.589316 0.884906 0.509318 -0.354576
C4    C     C_R   0.420678 0.482917 0.690418 0.834647
C5    C     C_2   0.486819 0.930850 0.492411 -0.161864
C6    C     C_2   0.413105 0.115471 0.485101 -0.376276
C7    C     C_2   0.518606 0.069876 0.495352 -0.148723
C8    C     C_2   0.922272 0.489427 0.491780 -0.064237
C9    C     C_2   0.076841 0.509010 0.509350 -0.078245
C10   C     C_R   0.444010 0.254587 0.491470 0.871923
C11   C     C_R   0.577697 0.510517 0.309409 0.789210
C12   C     C_R   0.434700 0.485388 0.970962 0.025055
C13   C     C_R   0.746535 0.420118 0.059064 -0.174187
C14   C     C_R   0.618610 0.501157 0.200381 -0.049817
C15   C     C_R   0.255320 0.518469 0.837193 -0.202619
C16   C     C_R   0.225384 0.541264 0.939530 -0.152214
C17   C     C_R   0.315785 0.528709 0.005553 -0.151641
C18   C     C_3   0.429519 0.181515 0.763438 0.046974
C19   C     C_3   0.497244 0.077678 0.769964 -0.328330
C20   C     C_3   0.380226 0.940916 0.772450 -0.907267
C21   C     C_R   0.453271 0.446614 0.868024 -0.038322
C22   C     C_R   0.534535 0.477772 0.035255 0.068457
C23   C     C_R   0.645934 0.426478 0.997093 0.086857
C24   C     C_R   0.650876 0.375242 0.899361 -0.314517
C25   C     C_R   0.550456 0.377662 0.837134 0.444687
C26   C     C_R   0.526417 0.518165 0.136913 -0.219055
C27   C     C_R   0.732350 0.456506 0.160546 -0.195688
Cu1   Cu    Cu3+1 0.362000 0.479240 0.482530 0.932973
Cu2   Cu    Cu3+1 0.638000 0.520760 0.517470 0.964232
H1    H     H_    0.804597 0.442775 0.208782 0.141729
H2    H     H_    0.832080 0.381432 0.030065 0.132178
H3    H     H_    0.445808 0.559312 0.170386 0.140843
H4    H     H_    0.190495 0.539346 0.786709 0.150577
H5    H     H_    0.287606 0.552060 0.083271 0.122283
H6    H     H_    0.135106 0.574372 0.967484 0.139713
H7    H     H_    0.628680 0.135235 0.507856 0.183531
H8    H     H_    0.367977 0.158966 0.697452 0.160907
H9    H     H_    0.345792 0.176627 0.831001 0.118522
H10   H     H_    0.582681 0.084638 0.703881 0.232308
H11   H     H_    0.551366 0.094834 0.839318 0.206429
H12   H     H_    0.377884 0.865646 0.477405 0.181110
H13   H     H_    0.296071 0.930488 0.839823 0.252173
H14   H     H_    0.433215 0.868100 0.775970 0.256576
H15   H     H_    0.325023 0.920874 0.703454 0.258417
H16   H     H_    0.303066 0.049838 0.472964 0.149669
H17   H     H_    0.697869 0.950407 0.524687 0.147010
H18   H     H_    0.125120 0.576452 0.568391 0.155854
H19   H     H_    0.873228 0.420594 0.433711 0.150529
H20   H     H_    0.106659 0.385360 0.400127 0.190162
H21   H     H_    0.894716 0.617206 0.598117 0.189991
H22   H     H_    0.729028 0.327688 0.872217 0.157627
N1    N     N_2   0.845330 0.551960 0.543750 -0.275787
N2    N     N_2   0.154690 0.448120 0.456210 -0.286453
O1    O     O_R   0.426290 0.668220 0.490680 -0.579684
O2    O     O_R   0.659360 0.703290 0.520190 -0.578347
O3    O     O_R   0.326580 0.473880 0.629020 -0.593193
O4    O     O_R   0.559660 0.508940 0.658530 -0.527926
O5    O     O_R   0.340640 0.296710 0.479810 -0.578225
O6    O     O_R   0.573710 0.331780 0.509320 -0.553880
O7    O     O_R   0.440340 0.491060 0.341470 -0.575888
O8    O     O_R   0.673420 0.526120 0.370980 -0.584554
O9    O     O_3   0.543092 0.305191 0.748312 -0.593754

loop_
_geom_bond_atom_site_label_1
_geom_bond_atom_site_label_2
_ccdc_geom_bond_type
C4    O4    A    
C6    C10   S    
C20   H13   S    
C23   C24   A    
C8    H19   S    
C26   H3    S    
C6    C7    D    
C6    H16   S    
Cu1   O5    S    
C14   C27   A    
C7    H7    S    
C8    N1    D    
C3    H17   S    
H21   N1    S    
C19   C20   S    
Cu1   N2    S    
C3    C5    D    
C24   H22   S    
C10   O6    A    
Cu1   O3    S    
C14   C26   A    
C27   H1    S    
C2    C15   A    
C5    H12   S    
C19   H10   S    
C11   O8    A    
C2    C21   A    
C1    O1    A    
H20   N2    S    
C2    C4    S    
C13   C27   A    
Cu1   Cu2   S    
C10   O5    A    
C18   H8    S    
C15   H4    S    
C1    O2    A    
C25   O9    S    
Cu1   O7    S    
C16   H6    S    
C18   H9    S    
C11   C14   S    
Cu2   O8    S    
C9    H18   S    
C9    N2    D    
C17   H5    S    
C22   C26   A    
C11   O7    A    
C12   C22   A    
C12   C17   A    
C20   H14   S    
C24   C25   A    
C13   C23   A    
C18   C19   S    
C19   H11   S    
C5    C7    S    
C21   C25   A    
C22   C23   A    
C18   O9    S    
Cu1   O1    S    
Cu2   O2    S    
C20   H15   S    
C12   C21   A    
C13   H2    S    
C15   C16   A    
C4    O3    A    
Cu2   O6    S    
C16   C17   A    
Cu2   O4    S    
C8    C9    S    
C1    C3    S    
Cu2   N1    S    
