data_mof_unit_33470.cif
_audit_creation_date              2012-12-10T19:44:33-0500
_audit_creation_method            fapswitch 2.2
_symmetry_space_group_name_H-M    P1
_symmetry_Int_Tables_number       1
_space_group_crystal_system       triclinic
_cell_length_a                    8.581664
_cell_length_b                    14.881985
_cell_length_c                    14.238466
_cell_angle_alpha                 88.476997
_cell_angle_beta                  98.094099
_cell_angle_gamma                 91.399242
_cell_volume                      1799.28209267

loop_
_atom_site_label
_atom_site_type_symbol
_atom_type_description
_atom_site_fract_x
_atom_site_fract_y
_atom_site_fract_z
_atom_type_partial_charge
C1    C     C_R   0.505473 0.327045 0.501823 0.869291
C2    C     C_R   0.499401 0.672255 0.498685 0.832156
C3    C     C_R   0.429103 0.428850 0.101627 -0.238263
C4    C     C_R   0.622490 0.544009 0.903207 -0.235794
C5    C     C_R   0.427693 0.431324 0.200393 0.023269
C6    C     C_R   0.617596 0.544211 0.803759 0.042927
C7    C     C_R   0.575291 0.568128 0.207866 0.105320
C8    C     C_R   0.383855 0.454605 0.788562 0.096351
C9    C     C_R   0.573143 0.569202 0.108631 -0.202548
C10   C     C_R   0.382626 0.456284 0.887395 -0.197102
C11   C     C_R   0.501969 0.498920 0.053487 0.089346
C12   C     C_R   0.503111 0.499763 0.947063 0.089941
C13   C     C_R   0.201350 0.500213 0.475338 0.970058
C14   C     C_R   0.798641 0.500726 0.524606 0.976818
C15   C     C_2   0.036492 0.500419 0.461878 -0.393644
C16   C     C_2   0.963467 0.502293 0.537884 -0.354346
C17   C     C_R   0.529087 0.082050 0.576578 -0.116632
C18   C     C_R   0.458216 0.914327 0.428125 -0.095919
C19   C     C_R   0.504974 0.173475 0.582618 -0.011120
C20   C     C_R   0.424633 0.822536 0.430222 -0.023759
C21   C     C_R   0.535375 0.230767 0.505838 -0.160396
C22   C     C_R   0.519321 0.768272 0.496649 -0.146306
C23   C     C_R   0.598996 0.195516 0.428976 -0.144356
C24   C     C_R   0.645867 0.804684 0.557643 -0.137582
C25   C     C_R   0.625920 0.104091 0.424432 -0.006887
C26   C     C_R   0.679491 0.896490 0.555267 0.003127
C27   C     C_R   0.586888 0.047686 0.498385 -0.067870
C28   C     C_R   0.582162 0.950994 0.490792 -0.070940
H1    H     H_    0.975577 0.498403 0.389538 0.182534
H2    H     H_    0.024269 0.504941 0.610130 0.203854
H3    H     H_    0.500285 0.036393 0.632650 0.188329
H4    H     H_    0.383116 0.958628 0.380926 0.190434
H5    H     H_    0.629045 0.624892 0.074999 0.184147
H6    H     H_    0.287374 0.422610 0.917483 0.182376
N1    N     N_R   0.500000 0.499980 0.252470 -0.142469
N2    N     N_R   0.500000 0.500020 0.747530 -0.144763
O1    O     O_R   0.500010 0.369070 0.579480 -0.667567
O2    O     O_R   0.499990 0.630930 0.420520 -0.651151
O3    O     O_R   0.500010 0.369060 0.420520 -0.618024
O4    O     O_R   0.499990 0.630940 0.579480 -0.601438
O5    O     O_R   0.271750 0.500000 0.560890 -0.642425
O6    O     O_R   0.728250 0.500000 0.439110 -0.647225
O7    O     O_R   0.271750 0.499990 0.401930 -0.616992
O8    O     O_R   0.728250 0.500010 0.598070 -0.613856
Zn1   Zn    Zn3+2 0.500000 0.500010 0.606140 0.945451
Zn2   Zn    Zn3+2 0.500000 0.499990 0.393860 0.940157
C29   C     C_2   0.447556 0.204567 0.669449 0.399528
H7    H     H_    0.495912 0.264771 0.704378 0.090591
O9    O     O_2   0.348820 0.160395 0.705545 -0.533508
C30   C     C_2   0.286467 0.785500 0.366984 0.449456
H8    H     H_    0.246255 0.716562 0.375889 0.067142
O10   O     O_2   0.214522 0.832019 0.304236 -0.530572
H9    H     H_    0.627839 0.239579 0.371799 0.201455
H10   H     H_    0.719576 0.760757 0.606109 0.181741
C31   C     C_2   0.692943 0.068146 0.342614 0.426291
H11   H     H_    0.720031 0.997447 0.340740 0.103733
O11   O     O_2   0.719555 0.117174 0.276309 -0.540875
C32   C     C_2   0.814757 0.934759 0.619714 0.417885
H12   H     H_    0.845785 0.005694 0.615172 0.091708
O12   O     O_2   0.893996 0.887384 0.678486 -0.539646
H13   H     H_    0.374831 0.371410 0.064035 0.157675
H14   H     H_    0.720867 0.577516 0.944982 0.152040
H15   H     H_    0.370175 0.377297 0.235570 0.149337
H16   H     H_    0.709649 0.578993 0.771646 0.146463
C33   C     C_2   0.665950 0.640064 0.262230 0.421899
H17   H     H_    0.719735 0.628292 0.334365 0.115315
O13   O     O_2   0.685531 0.713892 0.225633 -0.551055
C34   C     C_2   0.260558 0.399909 0.731767 0.409095
H18   H     H_    0.278694 0.373678 0.664589 0.121830
O14   O     O_2   0.136255 0.381179 0.760943 -0.574039

loop_
_geom_bond_atom_site_label_1
_geom_bond_atom_site_label_2
_ccdc_geom_bond_type
C2    C22   S    
C30   O10   D    
C11   C12   S    
C22   C24   A    
C1    C21   S    
O1    Zn1   S    
C4    H14   S    
C7    C33   S    
C9    C11   A    
C16   H2    S    
C2    O2    A    
C14   O8    A    
C26   C28   A    
C29   H7    S    
C3    C11   A    
C1    O1    A    
C14   O6    A    
C3    C5    A    
C31   H11   S    
C31   O11   D    
C30   H8    S    
N2    Zn1   S    
C10   H6    S    
C8    C34   S    
C9    H5    S    
C26   C32   S    
C24   C26   A    
C7    N1    A    
C18   H4    S    
C10   C12   A    
O3    Zn2   S    
C5    N1    A    
C23   H9    S    
C13   O5    A    
C19   C21   A    
C6    N2    A    
C15   H1    S    
C18   C20   A    
C13   C15   S    
C21   C23   A    
O6    Zn2   S    
O4    Zn1   S    
C17   H3    S    
O7    Zn2   S    
C14   C16   S    
O2    Zn2   S    
C4    C6    A    
C4    C12   A    
C1    O3    A    
C3    H13   S    
C24   H10   S    
C15   C16   D    
C17   C27   A    
C2    O4    A    
C13   O7    A    
C23   C25   A    
C18   C28   A    
O8    Zn1   S    
C5    H15   S    
C29   O9    D    
C33   H17   S    
C8    N2    A    
C19   C29   S    
C6    H16   S    
C27   C28   S    
C7    C9    A    
C34   O14   D    
O5    Zn1   S    
C20   C30   S    
C17   C19   A    
C32   H12   S    
N1    Zn2   S    
C32   O12   D    
C8    C10   A    
C25   C31   S    
C20   C22   A    
C34   H18   S    
C33   O13   D    
C25   C27   A    
