data_mof_unit_26861.cif
_audit_creation_date              2013-03-05T16:50:04-0500
_audit_creation_method            fapswitch 2.2
_symmetry_space_group_name_H-M    P1
_symmetry_Int_Tables_number       1
_space_group_crystal_system       triclinic
_cell_length_a                    15.828215
_cell_length_b                    15.07037
_cell_length_c                    10.76651
_cell_angle_alpha                 89.671575
_cell_angle_beta                  90.333843
_cell_angle_gamma                 90.123317
_cell_volume                      2568.12005246

loop_
_atom_site_label
_atom_site_type_symbol
_atom_site_description
_atom_site_fract_x
_atom_site_fract_y
_atom_site_fract_z
_atom_type_partial_charge
O1    O     O_R   0.378020 0.573650 0.500040 -0.587778
O2    O     O_R   0.621980 0.573650 0.499960 -0.589201
O3    O     O_R   0.378020 0.426320 0.500100 -0.610216
O4    O     O_R   0.621980 0.426320 0.499900 -0.618529
C1    C     C_R   0.338897 0.499868 0.500646 0.929087
C2    C     C_R   0.661104 0.500030 0.499961 0.906919
O5    O     O_R   0.500000 0.573680 0.316780 -0.619414
O6    O     O_R   0.500000 0.573680 0.683220 -0.623946
O7    O     O_R   0.500000 0.426350 0.316830 -0.581117
O8    O     O_R   0.500000 0.426350 0.683170 -0.573876
C3    C     C_R   0.510246 0.500321 0.260285 0.957569
C4    C     C_R   0.496885 0.499797 0.741136 0.967493
Zn1   Zn    Zn3+2 0.500000 0.598370 0.500000 1.049426
Zn2   Zn    Zn3+2 0.500000 0.401630 0.500000 1.046820
C5    C     C_R   0.547150 0.665473 0.105708 0.266288
C6    C     C_R   0.439161 0.652947 0.897532 0.261782
C7    C     C_R   0.514792 0.743423 0.050095 0.247015
C8    C     C_R   0.457170 0.736868 0.949449 0.253145
C9    C     C_R   0.483460 0.577533 0.943107 -0.187457
C10   C     C_R   0.519718 0.581919 0.060769 -0.204250
C11   C     C_R   0.525851 0.501193 0.127815 -0.154672
C12   C     C_R   0.498680 0.498985 0.875015 -0.180324
C13   C     C_R   0.532524 0.420221 0.064181 0.370199
C14   C     C_R   0.532340 0.423434 0.935188 0.320539
C15   C     C_R   0.956647 0.582542 0.503497 0.429360
C16   C     C_R   0.044297 0.582342 0.517252 0.425992
C17   C     C_R   0.913209 0.501194 0.504864 -0.058976
C18   C     C_R   0.087053 0.500805 0.516506 -0.061826
C19   C     C_R   0.956082 0.420532 0.510421 -0.233209
C20   C     C_R   0.043484 0.420326 0.514186 -0.222416
H1    H     H_    0.921966 0.358082 0.510388 0.192678
H2    H     H_    0.077087 0.357725 0.514717 0.195473
C21   C     C_1   0.824292 0.500166 0.502360 0.017597
C22   C     C_1   0.175902 0.499571 0.511899 0.030130
C23   C     C_1   0.250643 0.499522 0.506459 -0.108312
C24   C     C_1   0.749448 0.500029 0.500907 -0.131861
C25   C     C_R   0.427308 0.952484 0.462116 0.321103
C26   C     C_R   0.570302 0.952409 0.545021 0.324876
C27   C     C_R   0.499173 0.904942 0.502242 -0.270192
C28   C     C_R   0.570057 0.046845 0.547408 0.190338
C29   C     C_R   0.427097 0.047065 0.461123 0.172475
C30   C     C_R   0.498775 0.094881 0.503994 -0.309387
C31   C     C_1   0.499702 0.807044 0.500599 0.237946
C32   C     C_1   0.499595 0.192924 0.502235 0.314600
N1    N     N_1   0.500000 0.270550 0.500000 -0.080141
N2    N     N_1   0.500000 0.729450 0.500000 -0.068934
O9    O     O_3   0.547858 0.341299 0.128338 -0.589767
C33   C     C_3   0.493616 0.272452 0.086394 0.161989
H3    H     H_    0.526891 0.231819 0.016237 0.195705
H4    H     H_    0.433002 0.297351 0.045710 0.137655
C34   C     C_3   0.471247 0.211969 0.194357 -0.777400
H5    H     H_    0.434732 0.249608 0.264095 0.277222
H6    H     H_    0.431666 0.156157 0.160460 0.228372
H7    H     H_    0.529640 0.184817 0.237639 0.252644
O10   O     O_3   0.563511 0.352314 0.869104 -0.606800
C35   C     C_3   0.651972 0.362344 0.859554 0.053545
H8    H     H_    0.682645 0.356579 0.952627 0.176974
H9    H     H_    0.668936 0.427511 0.816683 0.124947
C36   C     C_3   0.686394 0.289550 0.777300 -0.646897
H10   H     H_    0.656916 0.294193 0.683712 0.283749
H11   H     H_    0.755908 0.296861 0.768158 0.201381
H12   H     H_    0.672017 0.223651 0.818752 0.273820
N3    N     N_R   0.615261 0.670694 0.195111 0.250920
O11   O     O_R   0.672962 0.609309 0.199296 -0.435823
O12   O     O_R   0.622178 0.738013 0.269464 -0.410658
N4    N     N_R   0.370571 0.642727 0.809888 0.242182
O13   O     O_R   0.325029 0.570708 0.810719 -0.437465
O14   O     O_R   0.350579 0.706149 0.732805 -0.411836
O15   O     O_3   0.548285 0.824904 0.082859 -0.584025
C37   C     C_3   0.490405 0.871968 0.156422 0.210993
H13   H     H_    0.481469 0.837854 0.247030 0.172358
H14   H     H_    0.427711 0.879388 0.110750 0.191518
C38   C     C_3   0.525690 0.964508 0.178518 -0.808056
H15   H     H_    0.542207 0.996375 0.088566 0.260957
H16   H     H_    0.477649 0.006011 0.224376 0.226615
H17   H     H_    0.583033 0.960828 0.238282 0.247955
O16   O     O_3   0.412634 0.810809 0.909956 -0.585008
C39   C     C_3   0.463470 0.863224 0.830987 0.181736
H18   H     H_    0.468245 0.830993 0.739306 0.160733
H19   H     H_    0.528485 0.873918 0.867811 0.193963
C40   C     C_3   0.422350 0.953733 0.814741 -0.808241
H20   H     H_    0.416363 0.986533 0.906372 0.260169
H21   H     H_    0.461552 0.996392 0.753690 0.212738
H22   H     H_    0.358580 0.946352 0.772589 0.247672
O17   O     O_3   0.088096 0.661891 0.521584 -0.618703
C41   C     C_3   0.112428 0.680073 0.645727 0.122691
H23   H     H_    0.174493 0.714429 0.643715 0.205160
H24   H     H_    0.121660 0.619721 0.704889 0.151360
C42   C     C_3   0.048508 0.741407 0.706433 -0.796077
H25   H     H_    0.987537 0.706173 0.719634 0.266550
H26   H     H_    0.072617 0.762713 0.798635 0.221133
H27   H     H_    0.037918 0.801054 0.647370 0.265757
O18   O     O_3   0.913567 0.662281 0.496338 -0.615738
C43   C     C_3   0.891566 0.680712 0.371049 0.121765
H28   H     H_    0.828755 0.713333 0.370012 0.198155
H29   H     H_    0.884945 0.620626 0.311497 0.143802
C44   C     C_3   0.955522 0.744208 0.313276 -0.791076
H30   H     H_    0.017237 0.710469 0.301980 0.268611
H31   H     H_    0.932664 0.766170 0.220396 0.218933
H32   H     H_    0.964192 0.803313 0.373179 0.265172
N5    N     N_R   0.354132 0.093722 0.414343 0.212786
O19   O     O_R   0.324791 0.162325 0.472764 -0.405705
O20   O     O_R   0.313872 0.065038 0.316738 -0.365174
N6    N     N_R   0.642976 0.093333 0.593758 0.209864
O21   O     O_R   0.676634 0.157162 0.528787 -0.430139
O22   O     O_R   0.681302 0.065870 0.694038 -0.367140
O23   O     O_3   0.358859 0.906182 0.414962 -0.583602
C45   C     C_3   0.297886 0.896388 0.509160 0.121497
H33   H     H_    0.280818 0.961399 0.550897 0.163765
H34   H     H_    0.321583 0.851120 0.583489 0.169171
C46   C     C_3   0.218106 0.856475 0.453166 -0.705747
H35   H     H_    0.230937 0.788263 0.419665 0.260728
H36   H     H_    0.167695 0.853828 0.524230 0.204754
H37   H     H_    0.195731 0.898035 0.374107 0.274776
O24   O     O_3   0.638873 0.905933 0.591640 -0.574553
C47   C     C_3   0.701157 0.900650 0.498694 0.127288
H38   H     H_    0.720103 0.967593 0.464317 0.170929
H39   H     H_    0.677918 0.860685 0.418976 0.177787
C48   C     C_3   0.779229 0.855987 0.552894 -0.707435
H40   H     H_    0.764296 0.786477 0.579930 0.261829
H41   H     H_    0.830380 0.855932 0.482907 0.203360
H42   H     H_    0.801656 0.892696 0.635991 0.274118

loop_
_geom_bond_atom_site_label_1
_geom_bond_atom_site_label_2
_geom_bond_distance
_ccdc_geom_bond_type
N4    O14   1.300609 A    
O10   C35   1.412265 S    
N3    O12   1.299955 A    
C15   O18   1.384497 S    
O18   C43   1.417269 S    
C17   C19   1.394282 A    
C38   H15   1.110853 S    
C46   H35   1.110899 S    
C40   H22   1.109919 S    
N6    O22   1.301261 A    
C44   H30   1.109854 S    
O16   C39   1.411324 S    
C45   H33   1.114632 S    
C14   O10   1.383296 S    
O5    C3    1.275982 A    
N5    O19   1.301198 A    
O1    C1    1.271569 A    
C25   O23   1.383056 S    
O15   C37   1.409734 S    
C8    O16   1.383423 S    
Zn1   N2    1.975426 S    
C39   H19   1.112388 S    
O24   C47   1.411507 S    
C4    C12   1.441498 S    
C21   C24   1.184664 T    
C35   H8    1.113964 S    
C22   C23   1.184807 T    
C29   C30   1.419042 A    
O2    Zn1   1.967129 S    
C44   H31   1.110379 S    
C33   C34   1.516106 S    
C9    C10   1.389557 A    
C47   H39   1.111753 S    
C13   C14   1.389353 A    
C37   H13   1.109741 S    
C35   H9    1.115682 S    
C42   H26   1.110345 S    
C28   C30   1.417393 A    
N4    O13   1.301646 A    
C18   C22   1.407659 S    
C36   H10   1.109833 S    
N5    O20   1.301341 A    
C25   C29   1.425369 A    
C38   H16   1.105970 S    
O2    C2    1.271759 A    
C30   C32   1.477590 S    
N6    O21   1.301095 A    
C40   H21   1.108400 S    
C40   H20   1.110623 S    
Zn2   N1    1.975426 S    
C48   H41   1.109237 S    
C5    C10   1.417868 A    
C36   H11   1.110436 S    
C13   O9    1.393049 S    
C34   H5    1.109457 S    
C20   H2    1.083981 S    
C47   C48   1.520297 S    
C9    C12   1.417745 A    
O4    C2    1.270628 A    
O8    Zn2   2.009078 S    
C41   H23   1.109755 S    
C27   C31   1.475619 S    
C43   C44   1.524367 S    
C15   C16   1.394386 A    
O17   C41   1.416905 S    
C3    C11   1.448866 S    
C17   C21   1.407551 S    
C34   H6    1.109833 S    
O7    Zn2   2.004882 S    
C2    C24   1.398307 S    
C19   C20   1.383788 A    
C28   N6    1.437303 S    
O9    C33   1.419348 S    
O6    C4    1.274035 A    
C37   C38   1.520638 S    
C7    C8    1.416020 A    
C46   H36   1.109178 S    
C42   H27   1.110569 S    
C43   H29   1.116913 S    
O7    C3    1.277598 A    
O3    Zn2   1.967048 S    
O8    C4    1.274995 A    
C6    C8    1.413479 A    
C33   H3    1.110977 S    
C11   C13   1.407337 A    
C38   H17   1.110806 S    
C12   C14   1.410699 A    
O1    Zn1   1.965555 S    
O23   C45   1.410966 S    
C44   H32   1.110514 S    
C32   N1    1.169968 T    
C48   H42   1.110675 S    
C5    C7    1.411319 A    
C7    O15   1.383230 S    
C36   H12   1.110128 S    
C39   H18   1.105685 S    
C16   O17   1.384435 S    
O3    C1    1.270864 A    
C41   C42   1.524424 S    
C48   H40   1.110932 S    
C35   C36   1.517876 S    
C15   C17   1.404325 A    
C16   C18   1.404181 A    
C45   C46   1.520477 S    
C34   H7    1.110526 S    
C18   C20   1.394194 A    
C25   C27   1.410002 A    
C26   C28   1.423571 A    
C26   O24   1.383266 S    
C39   C40   1.521332 S    
C26   C27   1.409122 A    
C45   H34   1.112590 S    
C6    C9    1.420248 A    
C1    C23   1.398668 S    
C33   H4    1.117093 S    
C29   N5    1.440326 S    
C47   H38   1.113753 S    
C46   H37   1.110657 S    
C41   H24   1.116762 S    
O4    Zn2   1.965470 S    
C43   H28   1.110011 S    
C31   N2    1.169439 T    
N3    O11   1.301781 A    
O6    Zn1   2.005328 S    
O5    Zn1   2.009521 S    
C6    N4    1.442846 S    
C10   C11   1.414264 A    
C19   H1    1.084039 S    
C5    N3    1.443375 S    
C37   H14   1.110495 S    
C42   H25   1.109969 S    
