data_mof_unit_64993.cif
_audit_creation_date              2012-12-10T19:00:57-0500
_audit_creation_method            fapswitch 2.2
_symmetry_space_group_name_H-M    P1
_symmetry_Int_Tables_number       1
_space_group_crystal_system       triclinic
_cell_length_a                    10.711993
_cell_length_b                    14.256059
_cell_length_c                    13.381577
_cell_angle_alpha                 89.999382
_cell_angle_beta                  90.001306
_cell_angle_gamma                 90.001941
_cell_volume                      2043.51138352

loop_
_atom_site_label
_atom_site_type_symbol
_atom_type_description
_atom_site_fract_x
_atom_site_fract_y
_atom_site_fract_z
_atom_type_partial_charge
C1    C     C_R   0.499994 0.326587 0.500002 0.924769
C2    C     C_R   0.745443 0.499933 0.499800 0.860688
C3    C     C_R   0.500004 0.673433 0.500001 0.925069
C4    C     C_3   0.071584 0.411233 0.553714 -0.400533
C5    C     C_3   0.071022 0.499441 0.389860 -0.390485
C6    C     C_3   0.928382 0.411292 0.553795 -0.400264
C7    C     C_3   0.928957 0.499419 0.389840 -0.390615
C8    C     C_3   0.071609 0.588917 0.552958 -0.400192
C9    C     C_3   0.928414 0.588975 0.552909 -0.400599
C10   C     C_3   0.119963 0.499874 0.499116 0.165882
C11   C     C_3   0.880035 0.499901 0.499115 0.166024
C12   C     C_1   0.499998 0.957724 0.500015 0.004125
C13   C     C_1   0.499992 0.225938 0.500007 -0.239010
C14   C     C_1   0.499992 0.141363 0.500012 -0.011805
C15   C     C_1   0.499995 0.042296 0.500015 0.004109
C16   C     C_1   0.500001 0.858657 0.500011 -0.011781
C17   C     C_1   0.500003 0.774082 0.500005 -0.239102
C18   C     C_1   0.500000 0.499977 0.169451 0.056953
C19   C     C_1   0.500000 0.499977 0.830550 0.057806
C20   C     C_1   0.500000 0.499975 0.049523 -0.053771
C21   C     C_1   0.500000 0.499975 0.950478 -0.053769
C22   C     C_R   0.254564 0.499901 0.499800 0.860696
H1    H     H_    0.106476 0.346844 0.515796 0.157531
H2    H     H_    0.106656 0.653021 0.514570 0.157484
H3    H     H_    0.893919 0.591108 0.631377 0.178683
H4    H     H_    0.893507 0.653069 0.514431 0.157585
H5    H     H_    0.105397 0.436180 0.349476 0.175734
H6    H     H_    0.893306 0.346862 0.516055 0.157437
H7    H     H_    0.894622 0.436123 0.349499 0.175804
H8    H     H_    0.106114 0.409713 0.632182 0.178839
H9    H     H_    0.105359 0.562395 0.348906 0.176020
H10   H     H_    0.894010 0.409940 0.632313 0.178893
H11   H     H_    0.894625 0.562351 0.348856 0.176037
H12   H     H_    0.106033 0.590949 0.631442 0.178731
N1    N     N_1   0.500000 0.499980 0.261870 -0.067844
N2    N     N_1   0.500000 0.499980 0.738130 -0.067627
O1    O     O_R   0.500000 0.373720 0.576470 -0.594266
O2    O     O_R   0.500000 0.373720 0.423530 -0.594571
O3    O     O_R   0.314810 0.499990 0.576450 -0.618996
O4    O     O_R   0.314810 0.499990 0.423550 -0.621303
O5    O     O_R   0.685190 0.499990 0.576450 -0.618981
O6    O     O_R   0.685190 0.499990 0.423550 -0.621277
O7    O     O_R   0.500000 0.626290 0.576440 -0.594215
O8    O     O_R   0.500000 0.626290 0.423560 -0.594515
Zn1   Zn    Zn3+2 0.500000 0.500010 0.602090 0.956064
Zn2   Zn    Zn3+2 0.500000 0.500010 0.397910 0.954554

loop_
_geom_bond_atom_site_label_1
_geom_bond_atom_site_label_2
_ccdc_geom_bond_type
C6    H10   S    
C7    H7    S    
C7    H11   S    
O7    Zn1   S    
C18   N1    T    
C12   C15   T    
C1    O1    A    
O3    Zn1   S    
C22   O4    A    
C9    H3    S    
N2    Zn1   S    
C8    H12   S    
C13   C14   T    
C10   C22   S    
C7    C11   S    
C9    C11   S    
C3    O7    A    
C1    O2    A    
C2    O6    A    
C2    C11   S    
C8    C10   S    
C19   C21   S    
O8    Zn2   S    
C9    H4    S    
C3    C17   S    
C18   C20   S    
C19   N2    T    
C4    H8    S    
C3    O8    A    
O2    Zn2   S    
C1    C13   S    
O4    Zn2   S    
C2    O5    A    
O1    Zn1   S    
C5    C10   S    
C20   C21   T    
C4    C6    S    
O6    Zn2   S    
C6    C11   S    
C5    C7    S    
C4    H1    S    
O5    Zn1   S    
C14   C15   S    
C8    C9    S    
C8    H2    S    
C5    H5    S    
N1    Zn2   S    
C22   O3    A    
C6    H6    S    
C12   C16   S    
C4    C10   S    
C16   C17   T    
C5    H9    S    
