data_mof_unit_29388.cif
_audit_creation_date              2012-12-11T17:31:43-0500
_audit_creation_method            fapswitch 2.2
_symmetry_space_group_name_H-M    P1
_symmetry_Int_Tables_number       1
_space_group_crystal_system       triclinic
_cell_length_a                    7.226018
_cell_length_b                    21.474799
_cell_length_c                    23.648583
_cell_angle_alpha                 90.000067
_cell_angle_beta                  89.694631
_cell_angle_gamma                 90.155061
_cell_volume                      3669.65732393

loop_
_atom_site_label
_atom_site_type_symbol
_atom_type_description
_atom_site_fract_x
_atom_site_fract_y
_atom_site_fract_z
_atom_type_partial_charge
O1    O     O_R   0.614510 0.805960 0.192860 -0.533227
O2    O     O_R   0.385490 0.194040 0.807140 -0.529544
O3    O     O_R   0.385490 0.194040 0.692860 -0.532853
O4    O     O_R   0.614510 0.805960 0.307140 -0.529052
O5    O     O_R   0.114510 0.694040 0.307140 -0.532092
O6    O     O_R   0.885490 0.305960 0.692860 -0.529212
O7    O     O_R   0.885490 0.305960 0.807140 -0.532071
O8    O     O_R   0.114510 0.694040 0.192860 -0.529183
O9    O     O_R   0.284730 0.813310 0.306760 -0.533739
O10   O     O_R   0.715270 0.186690 0.693240 -0.533219
O11   O     O_R   0.715270 0.186690 0.806760 -0.532562
O12   O     O_R   0.284730 0.813310 0.193240 -0.534828
O13   O     O_R   0.784730 0.686690 0.193240 -0.530266
O14   O     O_R   0.215270 0.313310 0.806760 -0.537464
O15   O     O_R   0.215270 0.313310 0.693240 -0.530804
O16   O     O_R   0.784730 0.686690 0.306760 -0.537728
C1    C     C_R   0.453118 0.828459 0.325262 0.707882
C2    C     C_R   0.546466 0.171508 0.674978 0.710398
C3    C     C_R   0.546321 0.171191 0.824865 0.702543
C4    C     C_R   0.453669 0.827299 0.174037 0.714546
C5    C     C_R   0.953266 0.672091 0.174379 0.704761
C6    C     C_R   0.046336 0.328059 0.825393 0.712178
C7    C     C_R   0.047258 0.328248 0.674579 0.701334
C8    C     C_R   0.953126 0.672382 0.325763 0.711256
O17   O     O_3   0.447950 0.710860 0.250000 -0.372902
O18   O     O_3   0.552050 0.289140 0.750000 -0.373594
O19   O     O_3   0.947950 0.789140 0.250000 -0.372924
O20   O     O_3   0.052050 0.210860 0.750000 -0.371083
V1    V     V_3+5 0.173120 0.757250 0.250000 1.414945
V2    V     V_3+5 0.826880 0.242750 0.750000 1.424145
V3    V     V_3+5 0.673120 0.742750 0.250000 1.412008
V4    V     V_3+5 0.326880 0.257250 0.750000 1.414277
C9    C     C_R   0.128301 0.508728 0.542059 0.304864
C10   C     C_R   0.902114 0.482041 0.448252 0.295951
C11   C     C_R   0.853610 0.498751 0.036728 0.299468
C12   C     C_R   0.127614 0.514071 0.951986 0.283351
C13   C     C_R   0.572611 0.977371 0.944027 0.283211
C14   C     C_R   0.455234 0.016342 0.052094 0.300205
C15   C     C_R   0.455035 0.020500 0.446734 0.295684
C16   C     C_R   0.494888 0.977087 0.558281 0.313291
C17   C     C_R   0.028730 0.452247 0.540673 -0.200203
C18   C     C_R   0.000957 0.539166 0.450604 -0.217157
C19   C     C_R   0.976293 0.549646 0.039570 -0.188554
C20   C     C_R   0.007204 0.461681 0.950368 -0.188247
C21   C     C_R   0.524318 0.040195 0.952885 -0.202628
C22   C     C_R   0.502358 0.953333 0.043148 -0.210643
C23   C     C_R   0.468370 0.955890 0.456650 -0.193153
C24   C     C_R   0.486016 0.041576 0.547886 -0.204299
C25   C     C_R   0.923360 0.437530 0.491989 0.336657
C26   C     C_R   0.125222 0.549563 0.495372 0.277534
C27   C     C_R   0.110153 0.558114 0.996236 0.337006
C28   C     C_R   0.867467 0.455535 0.991796 0.263964
C29   C     C_R   0.472936 0.059785 0.007727 0.309283
C30   C     C_R   0.577754 0.935504 0.990352 0.317719
C31   C     C_R   0.478530 0.934201 0.513138 0.287445
C32   C     C_R   0.443066 0.062288 0.492994 0.317480
C33   C     C_1   0.034641 0.409604 0.589033 0.098503
C34   C     C_1   0.978470 0.587111 0.407321 0.093149
C35   C     C_1   0.968069 0.592099 0.087958 0.104175
C36   C     C_1   0.024350 0.413676 0.906832 0.081446
C37   C     C_1   0.531108 0.085206 0.906468 0.111113
C38   C     C_1   0.479364 0.907918 0.088655 0.078421
C39   C     C_1   0.465875 0.911881 0.409269 0.107774
C40   C     C_1   0.514815 0.086485 0.593423 0.087943
C41   C     C_1   0.964381 0.626440 0.370615 -0.217128
C42   C     C_1   0.040152 0.373113 0.628452 -0.190086
C43   C     C_1   0.035131 0.374368 0.869951 -0.222057
C44   C     C_1   0.961545 0.628020 0.127739 -0.190903
C45   C     C_1   0.464984 0.871055 0.127421 -0.209589
C46   C     C_1   0.537239 0.124036 0.868979 -0.186888
C47   C     C_1   0.533946 0.124936 0.630679 -0.209292
C48   C     C_1   0.461075 0.874299 0.370651 -0.199094
O21   O     O_3   0.239438 0.601403 0.495394 -0.546012
C49   C     C_3   0.395825 0.588135 0.461196 0.165262
H1    H     H_    0.353676 0.577029 0.417077 0.074158
H2    H     H_    0.474213 0.547564 0.478090 0.149529
C50   C     C_3   0.522885 0.645094 0.458268 -0.300435
H3    H     H_    0.615862 0.640462 0.421055 0.158752
H4    H     H_    0.438941 0.687808 0.452026 0.194385
C51   C     C_3   0.641239 0.651700 0.511238 -0.721826
H5    H     H_    0.552565 0.656085 0.549356 0.233220
H6    H     H_    0.729133 0.693986 0.507586 0.218619
H7    H     H_    0.732440 0.610573 0.516246 0.218334
O22   O     O_3   0.827537 0.381609 0.488247 -0.540875
C52   C     C_3   0.951753 0.331826 0.477290 0.111081
H8    H     H_    0.882960 0.288068 0.491238 0.136363
H9    H     H_    0.082962 0.335201 0.501590 0.103216
C53   C     C_3   0.995968 0.326523 0.414021 -0.320755
H10   H     H_    0.864742 0.322649 0.389988 0.209671
H11   H     H_    0.072600 0.368719 0.400074 0.176684
C54   C     C_3   0.115603 0.269855 0.401000 -0.850045
H12   H     H_    0.246221 0.271626 0.425517 0.248188
H13   H     H_    0.150626 0.269108 0.355230 0.235076
H14   H     H_    0.039082 0.226548 0.411387 0.222156
O23   O     O_3   0.753319 0.403815 0.991631 -0.558089
C55   C     C_3   0.598268 0.416441 0.957708 0.162615
H15   H     H_    0.640782 0.420854 0.912575 0.075347
H16   H     H_    0.528615 0.460321 0.970992 0.186719
C56   C     C_3   0.461569 0.362342 0.962475 -0.295828
H17   H     H_    0.361790 0.365210 0.927336 0.159195
H18   H     H_    0.536359 0.317442 0.957968 0.192714
C57   C     C_3   0.356112 0.363519 0.018614 -0.708768
H19   H     H_    0.452702 0.355901 0.054231 0.240387
H20   H     H_    0.249979 0.326037 0.019015 0.208700
H21   H     H_    0.285144 0.408841 0.024607 0.219326
O24   O     O_3   0.238386 0.606149 0.999368 -0.538218
C58   C     C_3   0.155462 0.663645 0.984561 0.116690
H22   H     H_    0.236878 0.701236 0.005125 0.142657
H23   H     H_    0.010598 0.668590 0.000276 0.094172
C59   C     C_3   0.160851 0.673699 0.920448 -0.298824
H24   H     H_    0.303417 0.665323 0.904362 0.215054
H25   H     H_    0.064382 0.640376 0.899982 0.172649
C60   C     C_3   0.103027 0.739685 0.904655 -0.880315
H26   H     H_    0.963264 0.750163 0.921933 0.240322
H27   H     H_    0.098969 0.744269 0.857909 0.238065
H28   H     H_    0.204581 0.773827 0.921369 0.232403
O25   O     O_3   0.646546 0.876056 0.981796 -0.556804
C61   C     C_3   0.818724 0.868832 0.009630 0.131978
H29   H     H_    0.833438 0.818443 0.019200 0.099980
H30   H     H_    0.826597 0.892680 0.051401 0.104628
C62   C     C_3   0.982758 0.887780 0.971550 -0.330330
H31   H     H_    0.103235 0.857964 0.982069 0.154702
H32   H     H_    0.948521 0.879837 0.926373 0.224654
C63   C     C_3   0.042326 0.955405 0.980283 -0.720816
H33   H     H_    0.930682 0.988161 0.968920 0.239332
H34   H     H_    0.163809 0.965659 0.952914 0.201534
H35   H     H_    0.081782 0.963285 0.025037 0.224438
O26   O     O_3   0.440462 0.121934 0.019051 -0.543811
C64   C     C_3   0.612760 0.151530 0.028556 0.111200
H36   H     H_    0.681805 0.161463 0.987364 0.123625
H37   H     H_    0.707448 0.122657 0.054951 0.093623
C65   C     C_3   0.580238 0.212793 0.059525 -0.304054
H38   H     H_    0.477857 0.240671 0.035782 0.211094
H39   H     H_    0.522735 0.203124 0.102335 0.194984
C66   C     C_3   0.759750 0.249854 0.065118 -0.819446
H40   H     H_    0.865013 0.222259 0.088179 0.231432
H41   H     H_    0.732818 0.293190 0.089112 0.229696
H42   H     H_    0.814723 0.262560 0.022683 0.250127
O27   O     O_3   0.394437 0.123654 0.482863 -0.558263
C67   C     C_3   0.214927 0.135924 0.504969 0.125100
H43   H     H_    0.197278 0.187268 0.504597 0.104227
H44   H     H_    0.199184 0.122428 0.550144 0.114856
C68   C     C_3   0.059115 0.107461 0.468732 -0.344042
H45   H     H_    0.940250 0.140195 0.468225 0.151117
H46   H     H_    0.106714 0.101269 0.424338 0.231829
C69   C     C_3   0.987722 0.045487 0.492335 -0.759117
H47   H     H_    0.098851 0.010127 0.493853 0.215808
H48   H     H_    0.875814 0.027367 0.464855 0.208947
H49   H     H_    0.930495 0.052153 0.535597 0.223677
O28   O     O_3   0.478431 0.871107 0.525141 -0.545212
C70   C     C_3   0.294799 0.848225 0.521813 0.098189
H50   H     H_    0.255495 0.841638 0.476835 0.127084
H51   H     H_    0.192952 0.880295 0.542177 0.091172
C71   C     C_3   0.282810 0.785306 0.551774 -0.294902
H52   H     H_    0.391448 0.754105 0.534707 0.215671
H53   H     H_    0.307785 0.791711 0.597743 0.191360
C72   C     C_3   0.093816 0.754823 0.543292 -0.807769
H54   H     H_    0.982457 0.785171 0.560329 0.235097
H55   H     H_    0.088605 0.709532 0.565812 0.248106
H56   H     H_    0.069162 0.746150 0.497625 0.237518
O29   O     O_3   0.235721 0.523679 0.588338 -0.547696
C73   C     C_3   0.133944 0.563284 0.624904 0.146538
H57   H     H_    0.073676 0.534570 0.659544 0.117441
H58   H     H_    0.017887 0.588553 0.603854 0.098612
C74   C     C_3   0.264438 0.612146 0.649833 -0.291480
H59   H     H_    0.385788 0.588985 0.669250 0.197005
H60   H     H_    0.315754 0.642813 0.615407 0.209537
C75   C     C_3   0.166860 0.652183 0.694171 -0.877781
H61   H     H_    0.048329 0.677155 0.674966 0.238596
H62   H     H_    0.265469 0.687140 0.711182 0.239797
H63   H     H_    0.115690 0.622864 0.729679 0.228544
O30   O     O_3   0.772187 0.470497 0.406322 -0.549543
C76   C     C_3   0.856844 0.465488 0.352220 0.111307
H64   H     H_    0.848280 0.416346 0.338079 0.111018
H65   H     H_    0.006943 0.478069 0.351426 0.099362
C77   C     C_3   0.749938 0.504870 0.309358 -0.291969
H66   H     H_    0.625665 0.478717 0.295158 0.184406
H67   H     H_    0.700223 0.548559 0.329293 0.204089
C78   C     C_3   0.870398 0.521201 0.258168 -0.833240
H68   H     H_    0.924430 0.478198 0.238160 0.220770
H69   H     H_    0.787926 0.547679 0.226930 0.233106
H70   H     H_    0.989754 0.550458 0.271045 0.219344
O31   O     O_3   0.706854 0.495136 0.074499 -0.546369
C79   C     C_3   0.743213 0.449116 0.115533 0.126076
H71   H     H_    0.865750 0.462568 0.141083 0.099290
H72   H     H_    0.770314 0.403123 0.095711 0.152803
C80   C     C_3   0.573997 0.443025 0.154351 -0.285050
H73   H     H_    0.556448 0.486605 0.179039 0.200257
H74   H     H_    0.447663 0.436478 0.128414 0.203524
C81   C     C_3   0.591523 0.388001 0.194839 -0.878364
H75   H     H_    0.591245 0.343528 0.170934 0.232470
H76   H     H_    0.472185 0.387692 0.224612 0.234568
H77   H     H_    0.721118 0.391379 0.219615 0.236667
O32   O     O_3   0.281492 0.518845 0.916691 -0.558999
C82   C     C_3   0.233299 0.524566 0.858938 0.091864
H78   H     H_    0.260840 0.573115 0.845187 0.118186
H79   H     H_    0.084709 0.515174 0.849684 0.101333
C83   C     C_3   0.358287 0.481654 0.823892 -0.304283
H80   H     H_    0.501898 0.500364 0.823975 0.179657
H81   H     H_    0.362119 0.434560 0.843045 0.198491
C84   C     C_3   0.291567 0.475895 0.763088 -0.803551
H82   H     H_    0.288031 0.522471 0.743147 0.227735
H83   H     H_    0.387563 0.445701 0.738677 0.241610
H84   H     H_    0.150956 0.454912 0.761902 0.213020
O33   O     O_3   0.637683 0.958774 0.891550 -0.552497
C85   C     C_3   0.507736 0.918470 0.865794 0.133592
H85   H     H_    0.407284 0.946876 0.841559 0.111260
H86   H     H_    0.428050 0.889258 0.896525 0.133068
C86   C     C_3   0.610441 0.874933 0.825317 -0.274963
H87   H     H_    0.679287 0.902801 0.791613 0.191680
H88   H     H_    0.719056 0.849371 0.848914 0.207213
C87   C     C_3   0.479623 0.827662 0.798387 -0.862945
H89   H     H_    0.419896 0.796579 0.831305 0.241563
H90   H     H_    0.557259 0.798724 0.767475 0.237508
H91   H     H_    0.365662 0.851634 0.775964 0.235620
O34   O     O_3   0.383555 0.036144 0.103471 -0.545805
C88   C     C_3   0.524436 0.038405 0.144875 0.118283
H92   H     H_    0.569575 0.087550 0.150280 0.118274
H93   H     H_    0.650545 0.010868 0.133770 0.101237
C89   C     C_3   0.445058 0.014806 0.201094 -0.287062
H94   H     H_    0.355195 0.051273 0.219973 0.183956
H95   H     H_    0.357818 0.972947 0.193818 0.205103
C90   C     C_3   0.597932 0.997701 0.242446 -0.847396
H96   H     H_    0.690017 0.038350 0.249737 0.230261
H97   H     H_    0.535162 0.982885 0.283229 0.250526
H98   H     H_    0.681256 0.958426 0.225511 0.231251
O35   O     O_3   0.433417 0.042088 0.391982 -0.558420
C91   C     C_3   0.584961 0.080709 0.376494 0.127972
H99   H     H_    0.687354 0.052289 0.352785 0.115820
H100  H     H_    0.659918 0.101959 0.412833 0.130500
C92   C     C_3   0.515134 0.133566 0.339031 -0.278864
H101  H     H_    0.445215 0.113878 0.301355 0.196109
H102  H     H_    0.412427 0.161666 0.363073 0.218511
C93   C     C_3   0.673273 0.175915 0.319756 -0.859759
H103  H     H_    0.741035 0.197760 0.356876 0.239464
H104  H     H_    0.618061 0.213357 0.292259 0.236774
H105  H     H_    0.777472 0.148910 0.295359 0.229314
O36   O     O_3   0.515301 0.955559 0.613047 -0.544378
C94   C     C_3   0.339207 0.951582 0.639627 0.127368
H106  H     H_    0.296146 0.901899 0.640800 0.133713
H107  H     H_    0.227921 0.978418 0.617763 0.089462
C95   C     C_3   0.353262 0.975649 0.700291 -0.307086
H108  H     H_    0.457133 0.947858 0.723623 0.204392
H109  H     H_    0.400159 0.024911 0.699920 0.194933
C96   C     C_3   0.166941 0.971726 0.730883 -0.837456
H110  H     H_    0.118618 0.922641 0.733142 0.227810
H111  H     H_    0.181077 0.990054 0.774534 0.232001
H112  H     H_    0.061943 0.000077 0.708459 0.241824

loop_
_geom_bond_atom_site_label_1
_geom_bond_atom_site_label_2
_ccdc_geom_bond_type
C37   C46   T    
O17   V3    S    
C66   H42   S    
O18   V4    S    
C72   H54   S    
C59   H25   S    
O12   V1    S    
O19   V1    S    
C84   H83   S    
C84   H82   S    
C94   H106  S    
C10   C18   A    
C67   C68   S    
C24   C32   A    
C33   C42   T    
O26   C64   S    
C18   C34   S    
C89   H95   S    
O29   C73   S    
C90   H98   S    
C66   H40   S    
C50   H3    S    
C88   C89   S    
C14   C29   A    
O11   C3    A    
C14   C22   A    
C74   H59   S    
C49   H2    S    
C22   C38   S    
O8    V1    S    
C25   O22   S    
C15   C23   A    
C67   H44   S    
C73   H57   S    
C65   C66   S    
C23   C39   S    
C52   H8    S    
C85   H86   S    
C24   C40   S    
O24   C58   S    
C92   H102  S    
C11   O31   S    
C68   H45   S    
C69   H49   S    
C55   C56   S    
O1    V3    S    
C86   C87   S    
C79   H71   S    
C28   O23   S    
O2    V4    S    
O21   C49   S    
C70   C71   S    
C21   C37   S    
C16   C24   A    
C61   H29   S    
C89   H94   S    
C80   C81   S    
C16   O36   S    
C57   H21   S    
C9    C26   A    
C81   H77   S    
C86   H88   S    
C71   C72   S    
C59   H24   S    
C77   C78   S    
O23   C55   S    
C36   C43   T    
C65   H38   S    
C62   C63   S    
C49   C50   S    
C55   H16   S    
C95   H109  S    
C70   H50   S    
C53   C54   S    
C83   H80   S    
C92   C93   S    
C11   C19   A    
C15   O35   S    
C64   C65   S    
O9    V1    S    
C60   H28   S    
C20   C28   A    
C75   H62   S    
O32   C82   S    
C23   C31   A    
C21   C29   A    
O16   C8    A    
O7    V2    S    
C66   H41   S    
C96   H110  S    
C78   H69   S    
C58   H23   S    
O12   C4    A    
C74   H60   S    
C93   H104  S    
C51   H7    S    
C17   C25   A    
O3    C2    A    
O8    C5    A    
C69   H48   S    
C76   H65   S    
C20   C36   S    
C95   C96   S    
C62   H32   S    
C49   H1    S    
C69   H47   S    
C52   H9    S    
C40   C47   T    
C57   H19   S    
O15   V4    S    
C13   O33   S    
O22   C52   S    
O11   V2    S    
C90   H96   S    
C51   H6    S    
C26   O21   S    
C14   O34   S    
C54   H12   S    
C32   O27   S    
C85   H85   S    
C88   H92   S    
C76   H64   S    
O6    V2    S    
C82   H78   S    
C38   C45   T    
O16   V3    S    
C93   H105  S    
C9    O29   S    
O31   C79   S    
C81   H75   S    
C29   O26   S    
C35   C44   T    
C54   H13   S    
C73   C74   S    
O10   V2    S    
C34   C41   T    
O35   C91   S    
C87   H91   S    
C58   H22   S    
O34   C88   S    
C55   H15   S    
C22   C30   A    
C83   C84   S    
C86   H87   S    
C62   H31   S    
C50   H4    S    
O13   C5    A    
C94   H107  S    
C15   C32   A    
C67   H43   S    
C57   H20   S    
C59   C60   S    
C71   H52   S    
C12   C27   A    
C8    C41   S    
C18   C26   A    
C63   H35   S    
O4    C1    A    
C89   C90   S    
O9    C1    A    
C75   H61   S    
C56   H18   S    
C53   H11   S    
C72   H56   S    
C96   H111  S    
C5    C44   S    
C91   H100  S    
C58   C59   S    
C82   H79   S    
C4    C45   S    
C12   C20   A    
C68   C69   S    
C13   C30   A    
C13   C21   A    
O5    V1    S    
C11   C28   A    
C10   O30   S    
O30   C76   S    
C7    C42   S    
C31   O28   S    
C63   H34   S    
C60   H26   S    
C52   C53   S    
C2    C47   S    
C68   H46   S    
O33   C85   S    
O36   C94   S    
C77   H66   S    
C10   C25   A    
C81   H76   S    
C95   H108  S    
O2    C3    A    
C71   H53   S    
O13   V3    S    
O14   V4    S    
C51   H5    S    
O1    C4    A    
C16   C31   A    
C78   H70   S    
C76   C77   S    
O27   C67   S    
C90   H97   S    
C74   C75   S    
C19   C35   S    
C88   H93   S    
O7    C6    A    
C79   C80   S    
C9    C17   A    
O14   C6    A    
C12   O32   S    
O20   V2    S    
C64   H36   S    
C17   C33   S    
C80   H73   S    
C73   H58   S    
C56   H17   S    
C54   H14   S    
C50   C51   S    
C85   C86   S    
C19   C27   A    
C87   H89   S    
O5    C8    A    
O10   C2    A    
C27   O24   S    
C65   H39   S    
O6    C7    A    
O15   C7    A    
C39   C48   T    
C84   H84   S    
C79   H72   S    
C94   C95   S    
C70   H51   S    
O3    V4    S    
C61   H30   S    
C6    C43   S    
C80   H74   S    
O4    V3    S    
C87   H90   S    
C91   H99   S    
C78   H68   S    
C82   C83   S    
C56   C57   S    
C53   H10   S    
C1    C48   S    
C72   H55   S    
C93   H103  S    
C96   H112  S    
C92   H101  S    
O28   C70   S    
C63   H33   S    
C3    C46   S    
C83   H81   S    
C75   H63   S    
C60   H27   S    
C30   O25   S    
O25   C61   S    
C61   C62   S    
C91   C92   S    
C77   H67   S    
C64   H37   S    
