data_mof_unit_31568.cif
_audit_creation_date              2012-12-11T14:21:19-0500
_audit_creation_method            fapswitch 2.2
_symmetry_space_group_name_H-M    P1
_symmetry_Int_Tables_number       1
_space_group_crystal_system       triclinic
_cell_length_a                    11.580833
_cell_length_b                    11.541636
_cell_length_c                    19.45335
_cell_angle_alpha                 90.63774
_cell_angle_beta                  90.031893
_cell_angle_gamma                 59.927011
_cell_volume                      2249.97712849

loop_
_atom_site_label
_atom_site_type_symbol
_atom_type_description
_atom_site_fract_x
_atom_site_fract_y
_atom_site_fract_z
_atom_type_partial_charge
C1    C     C_R   0.640693 0.117993 0.598888 0.535565
C2    C     C_1   0.653014 0.150708 0.668296 -0.005987
C3    C     C_R   0.654816 0.681942 0.191942 -0.014883
C4    C     C_R   0.611799 0.746949 0.598729 0.526009
C5    C     C_R   0.543677 0.696477 0.229000 0.042434
C6    C     C_R   0.562395 0.658172 0.297640 0.037662
C7    C     C_R   0.759809 0.680289 0.299497 -0.142611
C8    C     C_R   0.762470 0.676213 0.228076 -0.146894
C9    C     C_R   0.420024 0.733556 0.198164 -0.077887
C10   C     C_R   0.329978 0.705884 0.230653 -0.139705
C11   C     C_R   0.361959 0.641970 0.294111 -0.140668
C12   C     C_1   0.640136 0.705463 0.668201 -0.015669
C13   C     C_R   0.477091 0.618877 0.327822 -0.081523
C14   C     C_R   0.658214 0.672741 0.335120 -0.016529
C15   C     C_R   0.147089 0.195281 0.193492 -0.011007
C16   C     C_R   0.297960 0.120313 0.605295 0.556218
C17   C     C_R   0.158906 0.290708 0.233814 0.027489
C18   C     C_R   0.134298 0.296351 0.304760 0.030110
C19   C     C_R   0.172159 0.069492 0.297135 -0.153993
C20   C     C_R   0.153482 0.084007 0.226198 -0.149109
C21   C     C_R   0.191269 0.382476 0.205576 -0.087610
C22   C     C_R   0.174431 0.491256 0.244198 -0.151377
C23   C     C_1   0.147311 0.187904 0.863483 -0.001620
C24   C     C_R   0.120210 0.513153 0.310003 -0.132301
C25   C     C_R   0.096424 0.418426 0.340820 0.033454
C26   C     C_R   0.165779 0.174578 0.337218 -0.017420
C27   C     C_R   0.670356 0.182219 0.194767 -0.011503
C28   C     C_R   0.647849 0.115313 0.404067 0.547408
C29   C     C_R   0.762299 0.061566 0.227056 0.031812
C30   C     C_R   0.785388 0.063856 0.297896 0.029566
C31   C     C_R   0.572837 0.272066 0.306414 -0.153506
C32   C     C_R   0.575058 0.287906 0.235509 -0.149358
C33   C     C_R   0.838899 0.941701 0.189668 -0.083873
C34   C     C_1   0.228014 0.144743 0.735746 -0.039824
C35   C     C_R   0.955911 0.840433 0.216916 -0.149251
C36   C     C_R   0.995720 0.856419 0.282000 -0.139943
C37   C     C_R   0.911812 0.965222 0.324389 0.029376
C38   C     C_R   0.676237 0.158100 0.338312 -0.020993
C39   C     C_R   0.084636 0.229486 0.929504 0.544293
C40   C     C_R   0.619519 0.734415 0.403393 0.544743
C41   C     C_R   0.683586 0.605002 0.929841 0.540977
C42   C     C_R   0.708186 0.206171 0.930400 0.542275
C43   C     C_R   0.086114 0.234110 0.124896 0.536107
C44   C     C_R   0.680243 0.617134 0.124280 0.534596
C45   C     C_1   0.188601 0.163700 0.805312 -0.034020
C46   C     C_R   0.705992 0.209528 0.126369 0.535208
C47   C     C_R   0.237716 0.143484 0.403080 0.561446
C48   C     C_1   0.669635 0.648119 0.860641 0.003610
C49   C     C_1   0.653682 0.685572 0.728771 -0.039032
C50   C     C_1   0.662466 0.668731 0.800123 -0.033388
C51   C     C_R   0.028102 0.451284 0.408842 0.041140
C52   C     C_R   0.071794 0.501724 0.462914 -0.061428
C53   C     C_R   0.012928 0.524062 0.527956 -0.071057
C54   C     C_R   0.908676 0.498683 0.539230 -0.064896
C55   C     C_R   0.859612 0.455958 0.484943 -0.124762
C56   C     C_1   0.258978 0.132976 0.675973 -0.009976
C57   C     C_R   0.920144 0.430602 0.420158 -0.121563
C58   C     C_R   0.963402 0.974011 0.393583 0.051399
C59   C     C_R   0.026773 0.859540 0.435147 -0.070490
C60   C     C_R   0.067377 0.867675 0.501690 -0.099156
C61   C     C_R   0.045613 0.989980 0.527726 -0.057133
C62   C     C_R   0.984965 0.103745 0.486894 -0.096985
C63   C     C_R   0.943490 0.096402 0.420158 -0.106907
C64   C     C_1   0.678485 0.190460 0.861019 0.003263
C65   C     C_1   0.658434 0.167902 0.728897 -0.038067
C66   C     C_1   0.665483 0.180650 0.800389 -0.033994
Cr1   Cr    Cr6+3 0.404720 0.198220 0.499960 1.005977
Cr2   Cr    Cr6+3 0.698290 0.897110 0.500380 1.020324
Cr3   Cr    Cr6+3 0.396970 0.904720 0.499610 1.013845
Cr4   Cr    Cr6+3 0.926180 0.151990 0.028120 1.022844
Cr5   Cr    Cr6+3 0.921330 0.451820 0.027470 1.020923
Cr6   Cr    Cr6+3 0.626260 0.446870 0.028710 1.023428
H1    H     H_    0.835202 0.691654 0.326670 0.150389
H2    H     H_    0.849254 0.665496 0.201309 0.145654
H3    H     H_    0.238306 0.730384 0.204868 0.099456
H4    H     H_    0.297121 0.613160 0.318792 0.097892
H5    H     H_    0.497703 0.573507 0.378109 0.116960
H6    H     H_    0.193962 0.975801 0.320292 0.153545
H7    H     H_    0.230865 0.369880 0.153915 0.132401
H8    H     H_    0.145725 0.007833 0.196943 0.141089
H9    H     H_    0.154975 0.518431 0.455506 0.081599
H10   H     H_    0.049475 0.559125 0.569861 0.102437
H11   H     H_    0.865762 0.512456 0.590049 0.107510
H12   H     H_    0.198669 0.560748 0.221512 0.101943
H13   H     H_    0.776579 0.439509 0.493421 0.099507
H14   H     H_    0.882390 0.395914 0.378657 0.099902
H15   H     H_    0.039557 0.765007 0.417383 0.076436
H16   H     H_    0.113792 0.779466 0.533428 0.087969
H17   H     H_    0.075179 0.996731 0.579712 0.128673
H18   H     H_    0.970024 0.197325 0.507522 0.122355
H19   H     H_    0.895244 0.185708 0.389427 0.093379
H20   H     H_    0.097248 0.603147 0.337598 0.084262
H21   H     H_    0.489416 0.347611 0.336119 0.136231
H22   H     H_    0.812185 0.929254 0.137842 0.126873
H23   H     H_    0.502467 0.381599 0.212662 0.147842
H24   H     H_    0.018516 0.753199 0.185659 0.102479
H25   H     H_    0.092415 0.783871 0.299912 0.097510
H26   H     H_    0.395538 0.778654 0.147813 0.122140
O1    O     O_R   0.267740 0.231960 0.575440 -0.509710
O2    O     O_R   0.596130 0.579390 0.952730 -0.508751
O3    O     O_R   0.639060 0.321160 0.958670 -0.495036
O4    O     O_R   0.527280 0.186640 0.570530 -0.514693
O5    O     O_R   0.821240 0.124200 0.104370 -0.518068
O6    O     O_R   0.036890 0.167040 0.097840 -0.499254
O7    O     O_R   0.056180 0.349610 0.102880 -0.521222
O8    O     O_R   0.797660 0.564870 0.097950 -0.500304
O9    O     O_R   0.595880 0.584250 0.104270 -0.518352
O10   O     O_R   0.638830 0.325670 0.099150 -0.497315
O11   O     O_3   0.824590 0.350230 0.028100 -0.245006
O12   O     O_R   0.685970 0.784660 0.430010 -0.490757
O13   O     O_R   0.728090 0.003450 0.576380 -0.504905
O14   O     O_R   0.682970 0.789190 0.570490 -0.498280
O15   O     O_R   0.499290 0.771880 0.575530 -0.517004
O16   O     O_R   0.285330 0.030870 0.569730 -0.506753
O17   O     O_R   0.270980 0.227080 0.423890 -0.505361
O18   O     O_R   0.530280 0.182120 0.430050 -0.503424
O19   O     O_R   0.731330 0.998570 0.424830 -0.500810
O20   O     O_R   0.502530 0.767000 0.423990 -0.518022
O21   O     O_R   0.288330 0.026350 0.429250 -0.486795
O22   O     O_3   0.499990 0.000020 0.499980 -0.263532
O23   O     O_R   0.821500 0.119340 0.952830 -0.509567
O24   O     O_R   0.037130 0.162530 0.957360 -0.495514
O25   O     O_R   0.056440 0.344740 0.951340 -0.507445
O26   O     O_R   0.797900 0.560360 0.957470 -0.496158

loop_
_geom_bond_atom_site_label_1
_geom_bond_atom_site_label_2
_ccdc_geom_bond_type
C40   O20   A    
C34   C56   T    
C9    H26   S    
C23   C45   T    
C27   C29   A    
C19   C20   A    
C18   C26   A    
C2    C65   T    
C33   H22   S    
C16   C56   S    
C12   C49   T    
C60   H16   S    
C7    C8    A    
C7    H1    S    
C35   H24   S    
C47   O17   A    
Cr3   O15   S    
C29   C30   A    
C39   O24   A    
C41   O26   A    
Cr5   O25   S    
C36   C37   A    
C11   H4    S    
C43   O7    A    
C5    C6    A    
Cr4   O6    S    
Cr6   O3    S    
C29   C33   A    
Cr3   O20   S    
C39   O25   A    
C57   H14   S    
C30   C38   A    
C1    C2    S    
Cr2   O14   S    
C19   C26   A    
Cr1   O17   S    
C43   O6    A    
C28   O18   A    
C54   C55   A    
C7    C14   A    
Cr6   O10   S    
C46   O10   A    
C36   H25   S    
C51   C57   A    
C4    C12   S    
Cr1   O22   S    
C37   C58   S    
Cr1   O1    S    
C61   C62   A    
C47   O21   A    
C4    O14   A    
C59   C60   A    
C21   C22   A    
Cr5   O11   S    
C18   C25   A    
C24   H20   S    
C54   H11   S    
C61   H17   S    
C15   C20   A    
C3    C44   S    
C13   H5    S    
Cr3   O16   S    
C20   H8    S    
C51   C52   A    
C4    O15   A    
C24   C25   A    
C3    C8    A    
Cr4   O5    S    
C40   O12   A    
C58   C59   A    
C31   H21   S    
Cr3   O21   S    
C17   C21   A    
C30   C37   A    
C60   C61   A    
C35   C36   A    
C22   H12   S    
C55   H13   S    
C19   H6    S    
Cr1   O18   S    
C25   C51   S    
C5    C9    A    
C62   C63   A    
Cr4   O11   S    
Cr2   O19   S    
C6    C14   A    
C10   H3    S    
Cr4   O24   S    
C31   C32   A    
Cr6   O9    S    
C28   C38   S    
C21   H7    S    
C8    H2    S    
C17   C18   A    
C41   O2    A    
C34   C45   S    
Cr2   O12   S    
C26   C47   S    
C27   C46   S    
C65   C66   S    
Cr5   O7    S    
C22   C24   A    
Cr5   O26   S    
C42   O3    A    
C42   C64   S    
C52   C53   A    
C9    C10   A    
C44   O9    A    
C58   C63   A    
C15   C17   A    
Cr6   O11   S    
C27   C32   A    
C3    C5    A    
C16   O16   A    
Cr6   O2    S    
C16   O1    A    
C53   C54   A    
C44   O8    A    
C46   O5    A    
Cr3   O22   S    
C31   C38   A    
C28   O19   A    
C55   C57   A    
C15   C43   S    
C1    O13   A    
C6    C13   A    
C11   C13   A    
Cr4   O23   S    
C23   C39   S    
C62   H18   S    
C48   C50   T    
C33   C35   A    
C41   C48   S    
C52   H9    S    
C59   H15   S    
C10   C11   A    
C14   C40   S    
C32   H23   S    
Cr1   O4    S    
C49   C50   S    
Cr5   O8    S    
C63   H19   S    
C53   H10   S    
C1    O4    A    
Cr2   O13   S    
Cr2   O22   S    
C42   O23   A    
C64   C66   T    
