data_mof_unit_27860.cif
_audit_creation_date              2013-03-05T15:46:52-0500
_audit_creation_method            fapswitch 2.2
_symmetry_space_group_name_H-M    P1
_symmetry_Int_Tables_number       1
_space_group_crystal_system       triclinic
_cell_length_a                    18.25972
_cell_length_b                    18.403168
_cell_length_c                    18.292588
_cell_angle_alpha                 89.795257
_cell_angle_beta                  120.177462
_cell_angle_gamma                 119.797853
_cell_volume                      4355.84021236

loop_
_atom_site_label
_atom_site_type_symbol
_atom_site_description
_atom_site_fract_x
_atom_site_fract_y
_atom_site_fract_z
_atom_type_partial_charge
Zn1   Zn    Zn3+2 0.086760 0.130530 0.543760 0.967605
Zn2   Zn    Zn3+2 0.086760 0.956230 0.542990 1.041211
Zn3   Zn    Zn3+2 0.913250 0.956230 0.369490 1.022448
Zn4   Zn    Zn3+2 0.913230 0.957020 0.543760 0.972927
O1    O     O_3   1.000000 0.000000 0.500000 -0.500135
O2    O     O_R   0.939250 0.884470 0.616070 -0.675050
O3    O     O_R   0.060740 0.176800 0.445190 -0.648457
O4    O     O_R   0.231610 0.054800 0.615530 -0.579692
O5    O     O_R   0.768390 0.883920 0.323210 -0.636450
O6    O     O_R   0.060730 0.883140 0.443890 -0.661158
O7    O     O_R   0.939260 0.056140 0.616830 -0.657701
O8    O     O_R   0.939300 0.883140 0.322450 -0.600778
O9    O     O_R   0.060710 0.177580 0.616830 -0.644998
O10   O     O_R   0.231620 0.176800 0.616070 -0.657810
O11   O     O_R   0.768380 0.884480 0.445190 -0.625631
O12   O     O_R   0.060710 0.883920 0.615530 -0.591133
O13   O     O_R   0.939300 0.054810 0.323210 -0.627726
C1    C     C_R   0.003158 0.863727 0.644224 0.849988
C2    C     C_R   0.999200 0.139205 0.359252 0.756247
C3    C     C_R   0.279422 0.138798 0.644863 0.839554
C4    C     C_R   0.720211 0.859725 0.360241 0.880806
C5    C     C_R   0.998406 0.856950 0.359457 0.848092
C6    C     C_R   0.998300 0.141216 0.639434 0.801018
C7    C     C_3   0.891279 0.141785 0.688154 -0.078190
H1    H     H_    0.894406 0.089220 0.716401 0.187233
C8    C     C_3   0.891345 0.199467 0.752497 -0.069122
H2    H     H_    0.907305 0.177207 0.811783 0.207602
C9    C     C_3   0.090907 0.241023 0.793212 -0.144093
C10   C     C_3   0.996549 0.278327 0.655762 -0.089496
C11   C     C_3   0.994336 0.199170 0.693187 -0.058708
H3    H     H_    0.931419 0.246674 0.583408 0.160174
C12   C     C_3   0.986422 0.300185 0.789126 -0.093351
C13   C     C_3   0.092407 0.309243 0.844909 0.134144
C14   C     C_3   0.970470 0.325583 0.701488 -0.127345
H4    H     H_    0.886521 0.293653 0.652036 0.171348
H5    H     H_    0.159392 0.282250 0.791877 0.126845
H6    H     H_    0.149905 0.376093 0.849881 0.101972
C15   C     C_R   0.196251 0.268180 0.377660 0.128086
C16   C     C_R   0.290266 0.349913 0.410763 -0.198335
H7    H     H_    0.362266 0.360406 0.463598 0.174986
C17   C     C_R   0.293161 0.416370 0.372982 0.348616
C18   C     C_R   0.200923 0.400139 0.300105 -0.216942
H8    H     H_    0.207353 0.448975 0.266716 0.197854
C19   C     C_R   0.104094 0.323124 0.271935 0.011250
C20   C     C_R   0.101358 0.259965 0.317218 0.043296
C21   C     C_R   0.004226 0.191831 0.299698 -0.106648
C22   C     C_R   0.910341 0.175871 0.226043 0.090798
H9    H     H_    0.846184 0.220361 0.116795 0.203872
C23   C     C_R   0.915757 0.231663 0.174608 -0.157752
C24   C     C_R   0.009721 0.305807 0.198117 -0.105618
C25   C     C_R   0.609442 0.670670 0.326385 -0.178932
H10   H     H_    0.693044 0.710063 0.369507 0.124711
C26   C     C_R   0.556606 0.579420 0.309757 -0.161170
H11   H     H_    0.600746 0.551867 0.340591 0.172482
C27   C     C_R   0.448447 0.524446 0.254346 0.407442
C28   C     C_R   0.393997 0.562792 0.215901 -0.178385
H12   H     H_    0.310458 0.519669 0.173240 0.160289
C29   C     C_R   0.446357 0.655533 0.232968 0.022251
C30   C     C_R   0.555393 0.709953 0.288505 0.066375
C31   C     C_R   0.607877 0.802283 0.304809 -0.191016
C32   C     C_R   0.553460 0.841034 0.268586 0.294557
C33   C     C_R   0.444892 0.787592 0.213642 0.029185
C34   C     C_R   0.392029 0.694919 0.195904 -0.098141
H13   H     H_    0.152871 0.839196 0.748084 0.227418
C35   C     C_R   0.846077 0.782196 0.691668 0.075629
C36   C     C_R   0.743071 0.708846 0.652944 0.314980
C37   C     C_R   0.722230 0.624252 0.648264 -0.281839
H14   H     H_    0.642800 0.566972 0.609417 0.225056
C38   C     C_R   0.802577 0.612563 0.689987 0.120950
C39   C     C_R   0.905705 0.688327 0.737272 0.066344
C40   C     C_R   0.921827 0.765292 0.714999 -0.034718
C41   C     C_R   0.006341 0.813932 0.707551 -0.074849
C42   C     C_R   0.086812 0.802599 0.750678 -0.167701
H15   H     H_    0.150970 0.743378 0.839603 0.181081
C43   C     C_R   0.083658 0.744749 0.799537 -0.237153
C44   C     C_R   0.993155 0.687483 0.794250 -0.052021
C45   C     C_R   0.018656 0.713608 0.413967 -0.140902
H16   H     H_    0.016712 0.750163 0.457834 0.170354
C46   C     C_R   0.038645 0.652046 0.443629 -0.178139
H17   H     H_    0.056818 0.647427 0.508930 0.150194
C47   C     C_R   0.026180 0.591273 0.386739 -0.127248
H18   H     H_    0.033231 0.538922 0.408685 0.141286
C48   C     C_R   0.988668 0.588965 0.297874 0.152426
C49   C     C_R   0.991954 0.664429 0.273724 0.064304
C50   C     C_R   0.002481 0.725765 0.331650 0.032172
C51   C     C_R   0.994666 0.796100 0.304884 -0.201233
C52   C     C_R   0.980961 0.807395 0.223777 0.302948
H19   H     H_    0.969979 0.762027 0.110052 0.197348
C53   C     C_R   0.975009 0.749645 0.169923 -0.257954
C54   C     C_R   0.984403 0.681574 0.195042 -0.136048
H20   H     H_    0.396462 0.271906 0.619716 0.148619
C55   C     C_R   0.404123 0.118419 0.824913 0.342186
C56   C     C_R   0.464943 0.120138 0.911648 -0.232295
H21   H     H_    0.430226 0.069742 0.936613 0.188418
C57   C     C_R   0.568428 0.188084 0.968226 -0.279021
H22   H     H_    0.611627 0.192386 0.037528 0.178276
C58   C     C_R   0.614927 0.253603 0.938032 0.364762
C59   C     C_R   0.558302 0.248228 0.846864 -0.072399
C60   C     C_R   0.449133 0.184246 0.790812 -0.078801
C61   C     C_R   0.391645 0.193166 0.706365 -0.079601
C62   C     C_R   0.441455 0.262480 0.681090 -0.215806
C63   C     C_R   0.547814 0.320384 0.732636 0.135880
C64   C     C_R   0.607279 0.308378 0.811971 -0.065807
Zn5   Zn    Zn3+2 0.913240 0.369500 0.956210 1.040885
Zn6   Zn    Zn3+2 0.086750 0.543800 0.130490 1.007378
Zn7   Zn    Zn3+2 0.913240 0.543800 0.956980 1.005920
Zn8   Zn    Zn3+2 0.086770 0.543010 0.956210 0.963672
O14   O     O_3   1.000000 0.500030 0.999970 -0.497484
O15   O     O_R   0.231620 0.615550 0.054780 -0.640450
O16   O     O_R   0.768380 0.323230 0.883900 -0.637101
O17   O     O_R   0.060700 0.445220 0.176760 -0.671690
O18   O     O_R   0.939290 0.616110 0.884440 -0.641866
O19   O     O_R   0.060700 0.616880 0.177520 -0.649530
O20   O     O_R   0.060740 0.443890 0.883140 -0.640361
O21   O     O_R   0.939270 0.616890 0.056080 -0.615363
O22   O     O_R   0.939290 0.322450 0.883140 -0.628646
O23   O     O_R   0.939260 0.323230 0.054780 -0.575783
O24   O     O_R   0.060750 0.615550 0.883900 -0.653365
O25   O     O_R   0.231610 0.616100 0.176760 -0.625361
O26   O     O_R   0.768390 0.445230 0.884440 -0.612422
C65   C     C_R   0.279719 0.639608 0.139827 0.816309
C66   C     C_R   0.719837 0.360916 0.859342 0.830962
C67   C     C_R   0.004204 0.360887 0.140579 0.880415
C68   C     C_R   0.996389 0.636253 0.855896 0.774790
C69   C     C_R   0.996240 0.637143 0.140763 0.826206
C70   C     C_R   0.992533 0.359167 0.851795 0.855597
C71   C     C_3   0.016659 0.425252 0.709030 -0.367308
C72   C     C_3   0.945568 0.452262 0.697477 -0.868117
H23   H     H_    0.874981 0.417078 0.627868 0.241967
H24   H     H_    0.921197 0.435733 0.743059 0.238708
H25   H     H_    0.985891 0.524757 0.709792 0.265195
H26   H     H_    0.094831 0.469766 0.772142 0.236576
H27   H     H_    0.025404 0.438301 0.653886 0.225350
C73   C     C_3   0.805255 0.099585 0.203217 -0.311449
C74   C     C_3   0.711071 0.096444 0.129502 -0.830693
H28   H     H_    0.719440 0.158621 0.148809 0.251191
H29   H     H_    0.701040 0.085761 0.064485 0.254264
H30   H     H_    0.639745 0.040205 0.119640 0.298901
H31   H     H_    0.792532 0.035690 0.181528 0.251538
H32   H     H_    0.806487 0.103984 0.264459 0.229632
C75   C     C_3   0.201544 0.190378 0.400603 -0.399351
C76   C     C_3   0.272903 0.181754 0.386065 -0.767993
H33   H     H_    0.253337 0.182590 0.318044 0.300832
H34   H     H_    0.355275 0.235800 0.437072 0.234074
H35   H     H_    0.263093 0.117997 0.392494 0.261157
H36   H     H_    0.228627 0.197829 0.471334 0.207477
H37   H     H_    0.125343 0.126444 0.356949 0.239728
N1    N     N_R   0.390234 0.498483 0.405151 0.225805
O27   O     O_R   0.393684 0.568634 0.388917 -0.355552
O28   O     O_R   0.476066 0.504008 0.451540 -0.398715
N2    N     N_R   0.609160 0.935376 0.288895 0.195779
O29   O     O_R   0.612059 0.969691 0.227464 -0.447303
O30   O     O_R   0.667196 0.987134 0.370900 -0.450443
C77   C     C_3   0.791847 0.090688 0.588266 -0.349152
C78   C     C_3   0.720217 0.991090 0.569852 -0.685144
H38   H     H_    0.750228 0.955450 0.559587 0.293791
H39   H     H_    0.713681 0.977850 0.626133 0.239164
H40   H     H_    0.641873 0.963068 0.508216 0.260321
H41   H     H_    0.746687 0.119002 0.565078 0.204432
H42   H     H_    0.812531 0.095770 0.540098 0.223291
N3    N     N_R   0.394058 0.430240 0.238169 0.223595
O31   O     O_R   0.293496 0.379124 0.188695 -0.351422
O32   O     O_R   0.444643 0.394924 0.274602 -0.378697
C79   C     C_3   0.386142 0.830379 0.179339 -0.380510
C80   C     C_3   0.373505 0.857898 0.248585 -0.795007
H43   H     H_    0.330459 0.888746 0.222277 0.245166
H44   H     H_    0.329514 0.799120 0.263061 0.268421
H45   H     H_    0.450268 0.906777 0.311680 0.281207
H46   H     H_    0.426064 0.889139 0.162826 0.253693
H47   H     H_    0.308666 0.785185 0.115661 0.191138
C81   C     C_3   0.879180 0.875547 0.727022 -0.328864
C82   C     C_3   0.858908 0.882902 0.797380 -0.848762
H48   H     H_    0.775819 0.836865 0.769638 0.289150
H49   H     H_    0.904365 0.868090 0.855709 0.272187
H50   H     H_    0.881930 0.950994 0.820522 0.246050
H51   H     H_    0.963504 0.924029 0.760069 0.212622
H52   H     H_    0.838945 0.896000 0.671774 0.256542
N4    N     N_R   0.658697 0.718157 0.613743 0.228780
O33   O     O_R   0.577930 0.664179 0.613298 -0.345983
O34   O     O_R   0.656118 0.772647 0.568583 -0.381128
C83   C     C_3   0.775860 0.522679 0.654530 -0.408121
C84   C     C_3   0.789954 0.520762 0.579080 -0.835689
H53   H     H_    0.746315 0.542109 0.527318 0.274216
H54   H     H_    0.872879 0.565486 0.605477 0.254290
H55   H     H_    0.759293 0.452237 0.546276 0.247675
H56   H     H_    0.822396 0.504890 0.708056 0.183043
H57   H     H_    0.693401 0.470760 0.624455 0.210180
C85   C     C_3   0.783580 0.185206 0.712901 -0.364260
C86   C     C_3   0.701195 0.094413 0.704707 -0.795867
H58   H     H_    0.644340 0.050606 0.633937 0.258619
H59   H     H_    0.735806 0.062137 0.747217 0.255857
H60   H     H_    0.657251 0.101827 0.725938 0.248684
H61   H     H_    0.788914 0.233627 0.753669 0.224450
H62   H     H_    0.751859 0.198157 0.648867 0.171217
N5    N     N_R   0.981323 0.881565 0.198250 0.226395
O35   O     O_R   0.919114 0.870714 0.114806 -0.370186
O36   O     O_R   0.054944 0.961730 0.254659 -0.414499
C87   C     C_3   0.928039 0.498619 0.231409 -0.342756
C88   C     C_3   0.835682 0.430647 0.233069 -0.772091
H63   H     H_    0.792331 0.364261 0.185990 0.286222
H64   H     H_    0.860956 0.423333 0.300216 0.226888
H65   H     H_    0.782415 0.451243 0.213724 0.271393
H66   H     H_    0.895813 0.499152 0.162165 0.253566
H67   H     H_    0.979273 0.476190 0.248450 0.221475
N6    N     N_R   0.298508 0.045688 0.772765 0.197530
O37   O     O_R   0.274638 0.969891 0.736344 -0.401367
O38   O     O_R   0.233924 0.048218 0.782571 -0.464568
N7    N     N_R   0.713912 0.332094 0.003976 0.173435
O39   O     O_R   0.790894 0.327188 0.057557 -0.482837
O40   O     O_R   0.723998 0.406970 0.016529 -0.431744
C89   C     C_3   0.593682 0.399456 0.705313 -0.458993
C90   C     C_3   0.596945 0.474487 0.745732 -0.693373
H68   H     H_    0.517190 0.455768 0.714822 0.249578
H69   H     H_    0.636530 0.489237 0.819195 0.280456
H70   H     H_    0.639610 0.535602 0.733672 0.244305
H71   H     H_    0.671996 0.421920 0.726867 0.194117
H72   H     H_    0.546613 0.381627 0.631148 0.196473
C91   C     C_3   0.117567 0.177193 0.839400 -0.344172
C92   C     C_3   0.067770 0.127999 0.886432 -0.701544
H73   H     H_    0.118146 0.166469 0.958632 0.310588
H74   H     H_    0.990535 0.112951 0.857224 0.230767
H75   H     H_    0.061337 0.064719 0.883324 0.222363
H76   H     H_    0.102439 0.127226 0.790383 0.199013
H77   H     H_    0.202647 0.216441 0.890719 0.235856
N8    N     N_R   0.131690 0.311496 0.938240 0.217228
O41   O     O_R   0.070553 0.273167 0.963587 -0.392733
O42   O     O_R   0.230911 0.354142 0.997700 -0.365671
C93   C     C_3   0.097664 0.345037 0.660607 -0.351407
C94   C     C_3   0.073390 0.357500 0.570112 -0.850919
H78   H     H_    0.036554 0.294246 0.521142 0.279454
H79   H     H_    0.020389 0.378798 0.542808 0.239338
H80   H     H_    0.146059 0.408495 0.577987 0.256700
H81   H     H_    0.147696 0.410449 0.712266 0.191542
H82   H     H_    0.151315 0.325285 0.682317 0.238648

loop_
_geom_bond_atom_site_label_1
_geom_bond_atom_site_label_2
_geom_bond_distance
_ccdc_geom_bond_type
C74   H30   1.106958 S    
C81   C82   1.530296 S    
C8    C12   1.593647 S    
C62   C63   1.380436 A    
C78   H39   1.107417 S    
C63   C64   1.409204 A    
C42   C43   1.385462 A    
C17   C18   1.395923 A    
C79   H47   1.109383 S    
C57   H22   1.081155 S    
C27   C28   1.404243 A    
O15   C65   1.277671 A    
C72   H23   1.108306 S    
C23   C24   1.387873 A    
C58   C59   1.423394 A    
C83   H57   1.106247 S    
C2    C21   1.462134 S    
C91   H76   1.109182 S    
C16   C17   1.393791 A    
Zn7   O18   1.936677 S    
C45   H16   1.074212 S    
O6    C5    1.267259 A    
C36   N4    1.438043 S    
C90   H68   1.110921 S    
C8    H2    1.107519 S    
C80   H43   1.110383 S    
C49   C54   1.424988 A    
C35   C81   1.522450 S    
Zn1   O1    1.969124 S    
Zn6   O19   1.957199 S    
C79   C80   1.526038 S    
N8    O42   1.301213 A    
C7    C8    1.586944 S    
O18   C68   1.287989 A    
C94   H80   1.110543 S    
C13   N8    1.473353 S    
C73   H32   1.111568 S    
C15   C16   1.403997 A    
O20   C70   1.292037 A    
C63   C89   1.507695 S    
O19   C69   1.270959 A    
C59   C64   1.420362 A    
O8    C5    1.278877 A    
C29   C34   1.415661 A    
C28   H12   1.081727 S    
O9    C6    1.277212 A    
C74   H29   1.110664 S    
C14   H4    1.108063 S    
C12   C70   1.504917 S    
C86   H59   1.110254 S    
C71   H26   1.108700 S    
C55   C56   1.394863 A    
C15   C20   1.436108 A    
Zn3   O8    1.957452 S    
C47   C48   1.402009 A    
Zn5   O22   1.954331 S    
C8    C85   1.587672 S    
C49   C50   1.421970 A    
C33   C79   1.524408 S    
C89   C90   1.529079 S    
C26   H11   1.082575 S    
O26   C66   1.277902 A    
N7    O39   1.298114 A    
C88   H65   1.111003 S    
H13   C42   1.077368 S    
Zn3   O13   1.941760 S    
C39   C40   1.400325 A    
C55   N6    1.419417 S    
C10   C11   1.598298 S    
Zn2   O12   1.936679 S    
Zn8   O24   1.934800 S    
C93   H82   1.100607 S    
C82   H50   1.107936 S    
C45   C46   1.385156 A    
C36   C37   1.398277 A    
Zn6   O17   1.941657 S    
C85   H62   1.103394 S    
C30   C31   1.411523 A    
C80   H44   1.110699 S    
O22   C70   1.278778 A    
C78   H40   1.110400 S    
C10   H3    1.113529 S    
Zn8   O15   1.934479 S    
C76   H35   1.110803 S    
N2    O30   1.299741 A    
C79   H46   1.107961 S    
C38   C39   1.414149 A    
C18   C19   1.413881 A    
H20   C62   1.085557 S    
O2    C1    1.268788 A    
C93   C94   1.532978 S    
N3    O32   1.301702 A    
C82   H49   1.110914 S    
N3    O31   1.301653 A    
C25   C30   1.412364 A    
C84   H54   1.110176 S    
C26   C27   1.400112 A    
C1    C41   1.470635 S    
C89   H72   1.112444 S    
Zn6   O14   1.949811 S    
C78   H38   1.107832 S    
H15   C43   1.083296 S    
C24   C67   1.460369 S    
O17   C67   1.280856 A    
C25   H10   1.082451 S    
C44   C68   1.464491 S    
C6    C11   1.505116 S    
N4    O33   1.301455 A    
C74   H28   1.110059 S    
C7    H1    1.108018 S    
C27   N3    1.441010 S    
C4    C31   1.454160 S    
Zn4   O2    1.934948 S    
C73   H31   1.110512 S    
C46   C47   1.379435 A    
C51   C52   1.408306 A    
C14   C71   1.562710 S    
O24   C68   1.275570 A    
C7    C77   1.580986 S    
C29   C30   1.411057 A    
C50   C51   1.429795 A    
C10   C14   1.581123 S    
C47   H18   1.083718 S    
C37   H14   1.081387 S    
C31   C32   1.404962 A    
C25   C26   1.393446 A    
C84   H55   1.108965 S    
C12   C14   1.591796 S    
C81   H52   1.108351 S    
C83   C84   1.529324 S    
C86   H60   1.111650 S    
C43   C44   1.400022 A    
Zn8   O20   1.963912 S    
C77   H42   1.107547 S    
C94   H78   1.110597 S    
Zn3   O5    1.934550 S    
O10   C3    1.292376 A    
C92   H74   1.098391 S    
C39   C44   1.409856 A    
C48   C49   1.437669 A    
C3    C61   1.455491 S    
C90   H70   1.104870 S    
O11   C4    1.276165 A    
N2    O29   1.298408 A    
Zn4   O7    1.963913 S    
C33   C34   1.413708 A    
N8    O41   1.301592 A    
C34   C65   1.453205 S    
C56   H21   1.083629 S    
O4    C3    1.278030 A    
N1    O27   1.301571 A    
C48   C87   1.516591 S    
C32   N2    1.434060 S    
C77   C78   1.537054 S    
C87   C88   1.537604 S    
O25   C65   1.277561 A    
C75   H36   1.108161 S    
N7    O40   1.301137 A    
H9    C23   1.078790 S    
C90   H69   1.110445 S    
C9    C13   1.555479 S    
C35   C36   1.416172 A    
C80   H45   1.110767 S    
O3    C2    1.292972 A    
C52   C53   1.377253 A    
C22   C73   1.532486 S    
C87   H67   1.110146 S    
C15   C75   1.525787 S    
C76   H34   1.109506 S    
C46   H17   1.083067 S    
Zn2   O1    1.946346 S    
Zn1   O9    1.954329 S    
C18   H8    1.076039 S    
Zn8   O14   1.949803 S    
C71   C72   1.530217 S    
Zn2   O6    1.958869 S    
C72   H25   1.109892 S    
Zn5   O14   1.969126 S    
C82   H48   1.108435 S    
C13   H6    1.115862 S    
Zn5   O23   1.931792 S    
C19   C24   1.418562 A    
C86   H58   1.108184 S    
C92   H73   1.108942 S    
N6    O37   1.300021 A    
C21   C22   1.421517 A    
C9    C91   1.574289 S    
Zn7   O26   1.940922 S    
Zn1   O3    1.931795 S    
Zn2   O4    1.940922 S    
C19   C20   1.420094 A    
C71   H27   1.105797 S    
N1    O28   1.300724 A    
C41   C42   1.401057 A    
Zn3   O1    1.949662 S    
C72   H24   1.105652 S    
C85   H61   1.097801 S    
N4    O34   1.300817 A    
C83   H56   1.107095 S    
C57   C58   1.388889 A    
C91   H77   1.113484 S    
C73   C74   1.532820 S    
C22   C23   1.391038 A    
C81   H51   1.111281 S    
O21   C69   1.272544 A    
C60   C61   1.433280 A    
Zn7   O21   1.958872 S    
C12   C13   1.584136 S    
Zn4   O11   1.934480 S    
C9    C11   1.570669 S    
O23   C67   1.292150 A    
C52   N5    1.439021 S    
C77   H41   1.097826 S    
C94   H79   1.108761 S    
C35   C40   1.423136 A    
C75   C76   1.532294 S    
O16   C66   1.294955 A    
C92   H75   1.109505 S    
Zn5   O16   1.929569 S    
C64   C66   1.466401 S    
O5    C4    1.280114 A    
C91   C92   1.532748 S    
C56   C57   1.378420 A    
C17   N1    1.437786 S    
Zn7   O14   1.946343 S    
Zn4   O1    1.949803 S    
O7    C6    1.289730 A    
C61   C62   1.390543 A    
O13   C2    1.279525 A    
C54   C69   1.448588 S    
C28   C29   1.416470 A    
C89   H71   1.103638 S    
Zn6   O25   1.934593 S    
C5    C51   1.455568 S    
C58   N7    1.426226 S    
C32   C33   1.404839 A    
C7    C11   1.586278 S    
C75   H37   1.104812 S    
C45   C50   1.421572 A    
N5    O35   1.301415 A    
C16   H7    1.082289 S    
C20   C21   1.428884 A    
C88   H63   1.105377 S    
C40   C41   1.427882 A    
H19   C53   1.085222 S    
C9    H5    1.107992 S    
O12   C1    1.297292 A    
C59   C60   1.425604 A    
C87   H66   1.098669 S    
C88   H64   1.109263 S    
C76   H33   1.111099 S    
C85   C86   1.534343 S    
Zn1   O10   1.929570 S    
C10   C93   1.583488 S    
C37   C38   1.402824 A    
C53   C54   1.392869 A    
N6    O38   1.300916 A    
C84   H53   1.111643 S    
C55   C60   1.432710 A    
C38   C83   1.510771 S    
N5    O36   1.301374 A    
C93   H81   1.106289 S    
