data_mof_unit_16672.cif
_audit_creation_date              2012-12-10T18:05:42-0500
_audit_creation_method            fapswitch 2.2
_symmetry_space_group_name_H-M    P1
_symmetry_Int_Tables_number       1
_space_group_crystal_system       triclinic
_cell_length_a                    10.866072
_cell_length_b                    10.749242
_cell_length_c                    9.550261
_cell_angle_alpha                 90.138026
_cell_angle_beta                  91.636487
_cell_angle_gamma                 89.152178
_cell_volume                      1114.91069666

loop_
_atom_site_label
_atom_site_type_symbol
_atom_type_description
_atom_site_fract_x
_atom_site_fract_y
_atom_site_fract_z
_atom_type_partial_charge
C1    C     C_R   0.500960 0.262576 0.499869 0.968694
C2    C     C_R   0.499039 0.737424 0.500131 0.968688
C3    C     C_R   0.871757 0.499836 0.505539 -0.032530
C4    C     C_R   0.128243 0.500165 0.494461 -0.032530
C5    C     C_R   0.943963 0.459917 0.622797 0.045145
C6    C     C_R   0.056037 0.540084 0.377203 0.045143
C7    C     C_R   0.387799 0.067205 0.503853 0.298144
C8    C     C_R   0.612200 0.932794 0.496148 0.298149
C9    C     C_R   0.387320 0.937550 0.504032 0.348016
C10   C     C_R   0.612678 0.062450 0.495973 0.348024
C11   C     C_R   0.499458 0.871269 0.500308 -0.336145
C12   C     C_R   0.500541 0.128731 0.499692 -0.336140
C13   C     C_R   0.454610 0.401664 0.072452 0.042070
C14   C     C_R   0.545390 0.598336 0.927548 0.042075
C15   C     C_R   0.454861 0.401592 0.924045 -0.023342
C16   C     C_R   0.545139 0.598408 0.075954 -0.023346
C17   C     C_R   0.262198 0.501220 0.497828 0.876787
C18   C     C_R   0.737802 0.498781 0.502172 0.876791
C19   C     C_R   0.153912 0.756329 0.091611 0.390959
C20   C     C_R   0.846106 0.243674 0.908399 0.390961
C21   C     C_R   0.111489 0.712893 0.219090 -0.202708
C22   C     C_R   0.888523 0.287109 0.780917 -0.202700
C23   C     C_R   0.107237 0.584892 0.245624 0.029864
C24   C     C_R   0.892764 0.415109 0.754377 0.029863
C25   C     C_R   0.139703 0.500035 0.140895 -0.161376
C26   C     C_R   0.860293 0.499967 0.859102 -0.161373
C27   C     C_R   0.180025 0.543149 0.012574 -0.281248
C28   C     C_R   0.819976 0.456854 0.987426 -0.281251
C29   C     C_R   0.188760 0.670922 0.988016 0.372177
C30   C     C_R   0.811252 0.329081 0.011990 0.372170
C31   C     C_R   0.928971 0.540343 0.384953 -0.130281
C32   C     C_R   0.071029 0.459658 0.615047 -0.130287
Cu1   Cu    Cu3+1 0.500000 0.500020 0.640660 1.029860
Cu2   Cu    Cu3+1 0.500000 0.499980 0.359340 1.029856
H1    H     H_    0.417184 0.323041 0.867435 0.156363
H2    H     H_    0.582815 0.676959 0.132565 0.156363
H3    H     H_    0.080143 0.778670 0.296737 0.249818
H4    H     H_    0.919873 0.221332 0.703273 0.249821
H5    H     H_    0.132826 0.400864 0.158347 0.194517
H6    H     H_    0.867162 0.599138 0.841647 0.194517
H7    H     H_    0.204622 0.476983 0.932367 0.173964
H8    H     H_    0.795376 0.523021 0.067631 0.173965
N1    N     N_R   0.500030 0.500030 0.852070 -0.169009
N2    N     N_R   0.499970 0.499970 0.147930 -0.169010
O1    O     O_R   0.499990 0.319660 0.618740 -0.588156
O2    O     O_R   0.500010 0.680340 0.381260 -0.588161
O3    O     O_R   0.499990 0.319630 0.381170 -0.549461
O4    O     O_R   0.500010 0.680370 0.618830 -0.549456
O5    O     O_R   0.319650 0.500020 0.618780 -0.559515
O6    O     O_R   0.680350 0.499980 0.381220 -0.559515
O7    O     O_R   0.319640 0.500000 0.381210 -0.588984
O8    O     O_R   0.680360 0.500000 0.618790 -0.588983
Cl1   Cl    Cl    0.242242 0.721596 0.826717 -0.485099
Cl2   Cl    Cl    0.757776 0.278409 0.173292 -0.485107
Cl3   Cl    Cl    0.160617 0.917766 0.063835 -0.417650
Cl4   Cl    Cl    0.839415 0.082238 0.936183 -0.417638
H9    H     H_    0.874413 0.573693 0.295616 0.163770
H10   H     H_    0.125587 0.426308 0.704384 0.163768
Cl5   Cl    Cl    0.247358 0.152586 0.508289 -0.509271
Cl6   Cl    Cl    0.752641 0.847414 0.491712 -0.509271
Cl7   Cl    Cl    0.246322 0.858460 0.507911 -0.462029
Cl8   Cl    Cl    0.753672 0.141538 0.492124 -0.462052
H11   H     H_    0.416863 0.323147 0.126195 0.156660
H12   H     H_    0.583136 0.676853 0.873805 0.156660

loop_
_geom_bond_atom_site_label_1
_geom_bond_atom_site_label_2
_ccdc_geom_bond_type
C1    C12   S    
C8    Cl6   S    
Cu2   O2    S    
C27   C29   A    
Cu1   O1    S    
C27   H7    S    
C26   C28   A    
C13   H11   S    
Cu1   O4    S    
C32   H10   S    
C20   Cl4   S    
C5    C32   A    
C14   H12   S    
C17   O7    A    
C28   C30   A    
Cu1   Cu2   S    
C18   O8    A    
C1    O1    A    
C19   C29   A    
C20   C30   A    
C2    O2    A    
Cu1   O8    S    
C3    C31   A    
C9    C11   A    
C26   H6    S    
Cu2   O7    S    
C16   H2    S    
C5    C24   S    
C29   Cl1   S    
C8    C11   A    
C9    Cl7   S    
C4    C17   S    
C10   C12   A    
C7    Cl5   S    
C19   C21   A    
C20   C22   A    
C6    C31   A    
C14   C16   A    
C13   C15   A    
C21   C23   A    
C7    C12   A    
C8    C10   A    
C22   C24   A    
C30   Cl2   S    
Cu2   O6    S    
C25   C27   A    
C10   Cl8   S    
C15   N1    A    
C4    C32   A    
Cu1   N1    S    
C7    C9    A    
C23   C25   A    
C21   H3    S    
C18   O6    A    
C3    C18   S    
C4    C6    A    
C19   Cl3   S    
C15   H1    S    
Cu2   N2    S    
C16   N2    A    
C17   O5    A    
C1    O3    A    
C2    C11   S    
Cu2   O3    S    
C28   H8    S    
C2    O4    A    
C6    C23   S    
Cu1   O5    S    
C13   N2    A    
C25   H5    S    
C31   H9    S    
C24   C26   A    
C14   N1    A    
C3    C5    A    
C22   H4    S    
