data_mof_unit_17188.cif
_audit_creation_date              2012-12-10T17:47:44-0500
_audit_creation_method            fapswitch 2.2
_symmetry_space_group_name_H-M    P1
_symmetry_Int_Tables_number       1
_space_group_crystal_system       triclinic
_cell_length_a                    14.730706
_cell_length_b                    14.675758
_cell_length_c                    14.339788
_cell_angle_alpha                 76.407871
_cell_angle_beta                  102.194112
_cell_angle_gamma                 115.443194
_cell_volume                      2699.41326036

loop_
_atom_site_label
_atom_site_type_symbol
_atom_type_description
_atom_site_fract_x
_atom_site_fract_y
_atom_site_fract_z
_atom_type_partial_charge
C1    C     C_R   0.879965 0.311409 0.517494 0.794032
C2    C     C_R   0.119589 0.687760 0.495499 0.808482
C3    C     C_R   0.634956 0.089057 0.566470 0.044672
C4    C     C_R   0.356331 0.929984 0.543912 -0.009177
C5    C     C_R   0.670192 0.025242 0.641301 0.005905
C6    C     C_R   0.318451 0.004503 0.494393 0.026708
C7    C     C_R   0.528780 0.063799 0.546294 0.103391
C8    C     C_R   0.460551 0.964607 0.583198 0.056524
C9    C     C_R   0.497961 0.906869 0.661899 -0.217953
C10   C     C_R   0.488372 0.135958 0.496854 -0.125641
C11   C     C_R   0.601340 0.937327 0.690966 -0.193386
C12   C     C_R   0.384333 0.107193 0.474733 -0.199364
C13   C     C_R   0.685778 0.597894 0.301976 0.204938
C14   C     C_R   0.280059 0.328739 0.663579 0.194227
C15   C     C_R   0.783523 0.609865 0.349437 0.447819
C16   C     C_R   0.206168 0.370373 0.641187 0.451914
C17   C     C_R   0.716740 0.515510 0.496537 0.495527
C18   C     C_R   0.277147 0.472104 0.496656 0.491291
C19   C     C_R   0.616103 0.503953 0.453232 -0.194656
C20   C     C_R   0.357646 0.436235 0.520375 -0.201840
C21   C     C_R   0.602898 0.547447 0.354763 0.013953
C22   C     C_R   0.360607 0.369450 0.608784 0.016685
C23   C     C_R   0.000401 0.500362 0.668769 0.810551
C24   C     C_R   0.000207 0.500613 0.331140 0.804811
C25   C     C_R   0.528255 0.452188 0.503412 0.123431
C26   C     C_R   0.436237 0.464186 0.461457 0.110782
C27   C     C_R   0.424135 0.496589 0.361211 -0.239907
C28   C     C_R   0.525823 0.382758 0.589936 -0.232044
C29   C     C_R   0.505884 0.537728 0.308918 -0.118874
C30   C     C_R   0.442309 0.339886 0.639897 -0.124580
C31   C     C_1   0.001631 0.501768 0.771042 -0.203919
C32   C     C_1   0.000518 0.501430 0.228638 -0.164378
C33   C     C_1   0.002256 0.502395 0.856476 -0.030000
C34   C     C_1   0.001068 0.501976 0.143173 -0.005006
C35   C     C_1   0.002163 0.502529 0.957110 0.005401
C36   C     C_1   0.001745 0.502385 0.042509 0.005154
C37   C     C_R   0.811441 0.202847 0.544680 -0.281256
C38   C     C_R   0.186042 0.796387 0.508664 -0.212368
C39   C     C_R   0.773837 0.048799 0.665343 -0.207651
C40   C     C_R   0.214559 0.976296 0.467977 -0.184011
C41   C     C_R   0.844664 0.135959 0.617691 0.367067
C42   C     C_R   0.147870 0.874019 0.481686 0.323944
C43   C     C_R   0.706501 0.172546 0.512107 0.308853
C44   C     C_R   0.289652 0.824429 0.547172 0.289031
Cu1   Cu    Cu3+1 0.081740 0.475690 0.523180 1.021783
Cu2   Cu    Cu3+1 0.918260 0.524310 0.476820 1.010188
H1    H     H_    0.627580 0.890075 0.750695 0.149092
H2    H     H_    0.355557 0.165105 0.439305 0.153173
H3    H     H_    0.350975 0.487956 0.321211 0.203694
H4    H     H_    0.584596 0.354676 0.617371 0.206221
H5    H     H_    0.800416 0.999099 0.721904 0.167508
H6    H     H_    0.184355 0.034300 0.438997 0.168141
H7    H     H_    0.447623 0.839101 0.703468 0.196318
H8    H     H_    0.535677 0.216431 0.480543 0.202780
H9    H     H_    0.492771 0.564482 0.232228 0.197063
H10   H     H_    0.443979 0.285743 0.705556 0.201232
N1    N     N_R   0.795420 0.560790 0.441960 -0.261243
N2    N     N_R   0.204580 0.439210 0.558040 -0.250387
O1    O     O_R   0.977910 0.338120 0.530560 -0.542367
O2    O     O_R   0.022090 0.661880 0.469440 -0.555691
O3    O     O_R   0.839850 0.379180 0.491410 -0.539335
O4    O     O_R   0.160150 0.620820 0.508590 -0.523479
O5    O     O_R   0.069040 0.479460 0.643530 -0.528447
O6    O     O_R   0.930960 0.520540 0.356470 -0.513773
O7    O     O_R   0.930990 0.520530 0.604380 -0.534614
O8    O     O_R   0.069010 0.479470 0.395620 -0.519247
O9    O     O_3   0.323765 0.747714 0.584720 -0.750530
H11   H     H_    0.391034 0.769903 0.563756 0.305895
O10   O     O_3   0.673294 0.218888 0.424195 -0.735911
H12   H     H_    0.729131 0.252386 0.383308 0.326831
O11   O     O_3   0.046366 0.853631 0.469492 -0.742323
H13   H     H_    0.015902 0.798330 0.522652 0.328425
O12   O     O_3   0.945273 0.153794 0.646030 -0.682299
H14   H     H_    0.978184 0.175089 0.586495 0.344346
O13   O     O_3   0.264768 0.531840 0.408536 -0.560216
C45   C     C_3   0.336136 0.634090 0.407308 0.053513
H15   H     H_    0.414967 0.641162 0.434542 0.131923
H16   H     H_    0.315615 0.671647 0.451637 0.210489
C46   C     C_3   0.333468 0.692524 0.304603 -0.796518
H17   H     H_    0.255802 0.689045 0.277359 0.250442
H18   H     H_    0.386776 0.773841 0.303765 0.208136
H19   H     H_    0.356009 0.659312 0.255969 0.244396
O14   O     O_3   0.737547 0.485048 0.594202 -0.564332
C47   C     C_3   0.755311 0.565703 0.642811 0.061985
H20   H     H_    0.697987 0.599850 0.616578 0.122890
H21   H     H_    0.832070 0.626865 0.633256 0.155994
C48   C     C_3   0.749533 0.524711 0.750126 -0.771710
H22   H     H_    0.801767 0.485495 0.778845 0.260926
H23   H     H_    0.770860 0.588688 0.790133 0.203690
H24   H     H_    0.671153 0.469290 0.761761 0.241363
O15   O     O_3   0.128279 0.332995 0.697593 -0.521229
C49   C     C_3   0.166103 0.363002 0.790095 0.063416
H25   H     H_    0.183997 0.445503 0.785239 0.160790
H26   H     H_    0.236188 0.351007 0.823809 0.149241
C50   C     C_3   0.085812 0.300445 0.857707 -0.728830
H27   H     H_    0.073713 0.218664 0.869979 0.248765
H28   H     H_    0.110755 0.328335 0.928218 0.193797
H29   H     H_    0.012978 0.307011 0.825596 0.258625
O16   O     O_3   0.866959 0.662879 0.299724 -0.553540
C51   C     C_3   0.889945 0.768740 0.284889 0.061860
H30   H     H_    0.894600 0.794434 0.353388 0.184311
H31   H     H_    0.831806 0.788515 0.231642 0.148830
C52   C     C_3   0.991059 0.827363 0.244885 -0.695397
H32   H     H_    0.984868 0.808459 0.172590 0.223118
H33   H     H_    0.012917 0.910897 0.237818 0.203601
H34   H     H_    0.050904 0.806620 0.293868 0.260318
O17   O     O_3   0.668950 0.631348 0.203853 -0.746227
H35   H     H_    0.726447 0.639588 0.172513 0.350686
O18   O     O_3   0.273851 0.246721 0.737041 -0.740347
H36   H     H_    0.202925 0.209432 0.751520 0.363115

loop_
_geom_bond_atom_site_label_1
_geom_bond_atom_site_label_2
_ccdc_geom_bond_type
C7    C10   A    
C39   H5    S    
C48   H22   S    
C18   O13   S    
C14   O18   S    
O12   H14   S    
C11   H1    S    
C50   H27   S    
C47   C48   S    
C4    C8    A    
C50   H29   S    
C7    C8    A    
C39   C41   A    
Cu1   Cu2   S    
C25   C28   A    
C3    C43   A    
C26   C27   A    
C20   C26   A    
C49   H25   S    
C19   C21   A    
C45   H16   S    
C5    C11   A    
C3    C7    A    
C1    O1    A    
C6    C12   A    
C2    O2    A    
C23   O5    A    
C27   C29   A    
Cu1   O4    S    
C42   O11   S    
C17   C19   A    
C28   H4    S    
C18   N2    A    
O16   C51   S    
C8    C9    A    
O17   H35   S    
C45   C46   S    
C18   C20   A    
C13   O17   S    
C40   C42   A    
C24   O6    A    
C15   N1    A    
C10   H8    S    
C49   H26   S    
Cu1   N2    S    
C31   C33   T    
Cu2   O3    S    
O9    H11   S    
C6    C40   A    
C47   H20   S    
Cu2   O7    S    
C4    C6    A    
O15   C49   S    
C46   H18   S    
C4    C44   A    
C25   C26   A    
C40   H6    S    
C30   H10   S    
Cu1   O5    S    
C51   C52   S    
Cu2   O6    S    
C17   O14   S    
C35   C36   T    
C23   C31   S    
C37   C43   A    
O13   C45   S    
C24   C32   S    
C38   C44   A    
C2    C38   S    
O14   C47   S    
C51   H31   S    
C13   C21   A    
C52   H33   S    
C16   N2    A    
C45   H15   S    
C9    C11   A    
C10   C12   A    
C20   C22   A    
C5    C39   A    
Cu2   N1    S    
C14   C16   A    
C9    H7    S    
C52   H32   S    
Cu1   O1    S    
C22   C30   A    
Cu2   O2    S    
C15   O16   S    
C3    C5    A    
C1    O3    A    
C46   H19   S    
C50   H28   S    
C38   C42   A    
C24   O8    A    
C29   H9    S    
C23   O7    A    
C13   C15   A    
O11   H13   S    
O18   H36   S    
C14   C22   A    
C21   C29   A    
C28   C30   A    
C51   H30   S    
C33   C35   S    
C12   H2    S    
C52   H34   S    
C34   C36   S    
C49   C50   S    
C37   C41   A    
O10   H12   S    
C19   C25   A    
C41   O12   S    
C46   H17   S    
C27   H3    S    
C16   O15   S    
C43   O10   S    
C48   H24   S    
C17   N1    A    
Cu1   O8    S    
C48   H23   S    
C47   H21   S    
C44   O9    S    
C2    O4    A    
C32   C34   T    
C1    C37   S    
