data_mof_unit_12780.cif
_audit_creation_date              2012-12-10T17:05:20-0500
_audit_creation_method            fapswitch 2.2
_symmetry_space_group_name_H-M    P1
_symmetry_Int_Tables_number       1
_space_group_crystal_system       triclinic
_cell_length_a                    10.039998
_cell_length_b                    10.750508
_cell_length_c                    15.544595
_cell_angle_alpha                 90.029625
_cell_angle_beta                  67.711255
_cell_angle_gamma                 90.013307
_cell_volume                      1552.44824571

loop_
_atom_site_label
_atom_site_type_symbol
_atom_type_description
_atom_site_fract_x
_atom_site_fract_y
_atom_site_fract_z
_atom_type_partial_charge
C1    C     C_R   0.501322 0.737271 0.498021 0.933125
C2    C     C_R   0.425922 0.541544 0.908234 0.132569
C3    C     C_R   0.290111 0.595982 0.958933 0.153062
C4    C     C_R   0.532821 0.535590 0.946948 -0.015605
C5    C     C_R   0.494662 0.566365 0.041728 0.066815
C6    C     C_R   0.358264 0.621242 0.090775 -0.197937
C7    C     C_R   0.258564 0.636781 0.049459 -0.239259
C8    C     C_R   0.677417 0.503006 0.893299 -0.319327
C9    C     C_R   0.778125 0.488601 0.933804 0.578777
C10   C     C_R   0.737003 0.503068 0.029524 0.034753
C11   C     C_R   0.594275 0.540679 0.084182 0.015435
C12   C     C_R   0.409876 0.500936 0.675832 0.874970
C13   C     C_R   0.834978 0.476925 0.072060 -0.157117
C14   C     C_R   0.790105 0.480239 0.168529 -0.224950
C15   C     C_R   0.551910 0.541905 0.180646 -0.222327
C16   C     C_2   0.613940 0.066974 0.497190 -0.158120
C17   C     C_2   0.493937 0.131210 0.510580 -0.329087
C18   C     C_2   0.610730 0.933109 0.502740 -0.154132
C19   C     C_2   0.506546 0.868774 0.489303 -0.331754
C20   C     C_2   0.109324 0.436477 0.441265 -0.121924
C21   C     C_2   0.957712 0.432010 0.444081 -0.137405
C22   C     C_R   0.498898 0.262731 0.501985 0.936002
C23   C     C_R   0.590187 0.501653 0.324150 0.862253
C24   C     C_R   0.355357 0.517535 0.776314 -0.081810
C25   C     C_R   0.646860 0.508951 0.222909 -0.050752
C26   C     C_R   0.188781 0.610916 0.917450 -0.200172
C27   C     C_R   0.222860 0.574591 0.825367 -0.102706
C28   C     C_R   0.450533 0.493954 0.820086 -0.253496
H1    H     H_    0.155944 0.680190 0.088825 0.149228
H2    H     H_    0.944718 0.449540 0.031219 0.194175
H3    H     H_    0.716679 0.112703 0.482925 0.173290
H4    H     H_    0.388699 0.088513 0.530491 0.154510
H5    H     H_    0.696651 0.887471 0.517098 0.173879
H6    H     H_    0.424774 0.911391 0.469291 0.150596
H7    H     H_    0.190150 0.382377 0.387747 0.161984
H8    H     H_    0.071459 0.545584 0.552363 0.165724
H9    H     H_    0.936476 0.369812 0.395794 0.153908
H10   H     H_    0.873049 0.561689 0.542025 0.165843
H11   H     H_    0.441978 0.561254 0.224843 0.155036
H12   H     H_    0.865444 0.455810 0.200489 0.158151
H13   H     H_    0.085826 0.654859 0.954976 0.151180
H14   H     H_    0.148579 0.594905 0.791764 0.192271
H15   H     H_    0.545829 0.440439 0.782586 0.161126
H16   H     H_    0.327343 0.657680 0.160281 0.142871
H17   H     H_    0.717148 0.491202 0.818898 0.176980
N1    N     N_2   0.148330 0.498670 0.499030 -0.187142
N2    N     N_2   0.852680 0.498640 0.499000 -0.189637
O1    O     O_R   0.386950 0.680940 0.500010 -0.617107
O2    O     O_R   0.613110 0.680900 0.499990 -0.612264
O3    O     O_R   0.322330 0.500030 0.632270 -0.601998
O4    O     O_R   0.548480 0.499990 0.632240 -0.613206
O5    O     O_R   0.386890 0.319100 0.500010 -0.607101
O6    O     O_R   0.613050 0.319060 0.499990 -0.610368
O7    O     O_R   0.451520 0.500010 0.367760 -0.619210
O8    O     O_R   0.677670 0.499970 0.367730 -0.612398
Zn1   Zn    Zn3+2 0.349000 0.500030 0.500020 0.952457
Zn2   Zn    Zn3+2 0.651000 0.499970 0.499980 0.941396
F1    F     F_    0.914348 0.454232 0.879533 -0.694053

loop_
_geom_bond_atom_site_label_1
_geom_bond_atom_site_label_2
_ccdc_geom_bond_type
C8    C9    A    
C2    C4    A    
C1    O1    A    
C23   O8    A    
C6    C7    A    
O4    Zn2   S    
N2    Zn2   S    
O3    Zn1   S    
C9    C10   A    
C12   C24   S    
C28   H15   S    
C12   O3    A    
C17   C22   S    
C24   C27   A    
C4    C8    A    
O8    Zn2   S    
C2    C3    A    
C26   C27   A    
C21   H9    S    
C6    H16   S    
C13   C14   A    
C16   H3    S    
H8    N1    S    
C27   H14   S    
C15   H11   S    
H10   N2    S    
C16   C17   D    
C1    O2    A    
C7    H1    S    
C16   C18   S    
C5    C11   A    
C22   O6    A    
C3    C7    A    
C23   C25   S    
C14   C25   A    
C5    C6    A    
C18   H5    S    
O7    Zn1   S    
C15   C25   A    
C1    C19   S    
C10   C11   A    
C14   H12   S    
C24   C28   A    
C13   H2    S    
C12   O4    A    
O2    Zn2   S    
C20   C21   S    
C23   O7    A    
C22   O5    A    
C9    F1    S    
N1    Zn1   S    
O1    Zn1   S    
C17   H4    S    
O6    Zn2   S    
C8    H17   S    
C18   C19   D    
C2    C28   A    
C20   H7    S    
C11   C15   A    
C10   C13   A    
C3    C26   A    
C20   N1    D    
O5    Zn1   S    
C26   H13   S    
C4    C5    A    
C21   N2    D    
C19   H6    S    
