data_mof_unit_34085.cif
_audit_creation_date              2012-12-11T14:30:22-0500
_audit_creation_method            fapswitch 2.2
_symmetry_space_group_name_H-M    P1
_symmetry_Int_Tables_number       1
_space_group_crystal_system       triclinic
_cell_length_a                    12.860959
_cell_length_b                    12.873981
_cell_length_c                    26.83692
_cell_angle_alpha                 89.943035
_cell_angle_beta                  89.769472
_cell_angle_gamma                 119.589303
_cell_volume                      3863.9004328

loop_
_atom_site_label
_atom_site_type_symbol
_atom_type_description
_atom_site_fract_x
_atom_site_fract_y
_atom_site_fract_z
_atom_type_partial_charge
C1    C     C_R   0.558157 0.457149 0.821971 0.577932
C2    C     C_R   0.456620 0.555676 0.178963 0.559892
C3    C     C_R   0.065789 0.365086 0.476743 0.316382
C4    C     C_R   0.413432 0.121084 0.032259 0.303785
C5    C     C_R   0.631531 0.700236 0.474142 0.270948
C6    C     C_R   0.298662 0.909212 0.529044 0.283856
C7    C     C_R   0.864903 0.281594 0.985825 0.368343
C8    C     C_R   0.629020 0.702288 0.526336 0.330379
C9    C     C_R   0.391274 0.106932 0.981136 0.356753
C10   C     C_R   0.087701 0.384459 0.527685 0.285029
C11   C     C_R   0.716204 0.592130 0.981906 0.298006
C12   C     C_R   0.443611 0.900967 0.321419 0.557254
C13   C     C_R   0.099641 0.544077 0.178908 0.561224
C14   C     C_R   0.983091 0.497269 0.976946 -0.064842
C15   C     C_R   0.514247 0.994977 0.527083 -0.103536
C16   C     C_R   0.499208 0.484236 0.976306 -0.089766
C17   C     C_R   0.005562 0.518420 0.527875 -0.111619
C18   C     C_R   0.512988 0.009644 0.974623 -0.086574
C19   C     C_R   0.486937 0.487534 0.526911 -0.123930
C20   C     C_R   0.510266 0.991757 0.474135 -0.121185
C21   C     C_R   0.901302 0.443844 0.678756 0.561722
C22   C     C_R   0.992927 0.507600 0.029365 -0.082212
C23   C     C_R   0.484067 0.488926 0.474052 -0.106273
C24   C     C_R   0.516180 0.005584 0.027404 -0.094632
C25   C     C_R   0.007798 0.518686 0.474971 -0.120309
C26   C     C_R   0.491842 0.483875 0.028914 -0.107678
C27   C     C_R   0.080942 0.712146 0.967881 0.301979
C28   C     C_R   0.726537 0.060571 0.523526 0.246374
C29   C     C_R   0.282305 0.375889 0.970125 0.281003
C30   C     C_R   0.945579 0.670213 0.526408 0.286672
C31   C     C_R   0.649355 0.929447 0.969559 0.312929
C32   C     C_R   0.540762 0.097396 0.821041 0.613321
C33   C     C_R   0.337546 0.276009 0.525699 0.294725
C34   C     C_R   0.720155 0.045181 0.471299 0.290831
C35   C     C_R   0.094525 0.724176 0.019889 0.243702
C36   C     C_R   0.327776 0.280556 0.473567 0.277153
C37   C     C_R   0.642548 0.914724 0.021664 0.313825
C38   C     C_R   0.954211 0.675415 0.473877 0.275110
C39   C     C_R   0.274008 0.371154 0.022522 0.281611
C40   C     C_R   0.021914 0.581511 0.892380 0.227909
C41   C     C_R   0.622521 0.035989 0.605367 0.226073
C42   C     C_R   0.410524 0.411144 0.894168 0.251180
C43   C     C_R   0.556508 0.457180 0.678625 0.556602
C44   C     C_R   0.970380 0.587772 0.607155 0.200234
C45   C     C_R   0.582335 0.989697 0.891477 0.233002
C46   C     C_R   0.416908 0.381850 0.606030 0.197379
C47   C     C_R   0.595974 0.992515 0.392167 0.190283
C48   C     C_R   0.052702 0.627961 0.103995 0.224895
C49   C     C_R   0.389315 0.403718 0.393885 0.230019
C50   C     C_R   0.578398 0.952629 0.104159 0.206889
C51   C     C_R   0.013457 0.610149 0.394226 0.228547
C52   C     C_R   0.374586 0.422128 0.105001 0.212364
C53   C     C_R   0.033153 0.526780 0.131908 0.004475
C54   C     C_R   0.898625 0.442369 0.821694 0.615976
C55   C     C_R   0.485511 0.965547 0.369969 -0.021806
C56   C     C_R   0.474991 0.506133 0.131902 -0.023227
C57   C     C_R   0.034546 0.523006 0.370582 -0.028020
C58   C     C_R   0.491297 0.966589 0.130779 -0.017338
C59   C     C_R   0.476718 0.510037 0.369725 -0.016094
C60   C     C_R   0.524409 0.032812 0.630668 -0.011553
C61   C     C_R   0.937288 0.468613 0.874011 0.044295
C62   C     C_R   0.511261 0.478459 0.630662 -0.021527
C63   C     C_R   0.511779 0.034098 0.870350 0.034424
C64   C     C_R   0.970001 0.490518 0.631366 -0.012411
C65   C     C_R   0.543748 0.099591 0.678459 0.555958
C66   C     C_R   0.524593 0.481405 0.872085 0.000564
C67   C     C_R   0.033798 0.599103 0.945279 0.007356
C68   C     C_R   0.622659 0.030245 0.552319 0.000079
C69   C     C_R   0.395240 0.423728 0.946341 0.016274
C70   C     C_R   0.974028 0.593913 0.554130 -0.015353
C71   C     C_R   0.580687 0.972814 0.944558 0.010708
C72   C     C_R   0.412114 0.380582 0.553193 -0.024477
C73   C     C_R   0.611624 0.011943 0.445218 -0.020113
C74   C     C_R   0.049389 0.621909 0.051334 -0.011751
C75   C     C_R   0.399376 0.388261 0.446580 -0.001421
C76   C     C_R   0.456420 0.555634 0.321438 0.550672
C77   C     C_R   0.579316 0.956122 0.051292 0.009047
C78   C     C_R   0.989538 0.602054 0.447046 -0.002295
C79   C     C_R   0.378605 0.423240 0.052378 0.006480
C80   C     C_R   0.872021 0.377424 0.907883 0.160385
C81   C     C_R   0.412973 0.980388 0.606693 0.215861
C82   C     C_R   0.617765 0.565744 0.902001 0.194582
C83   C     C_R   0.019468 0.428829 0.606474 0.212270
C84   C     C_R   0.425097 0.040758 0.900453 0.257706
C85   C     C_R   0.572196 0.589322 0.606034 0.240861
C86   C     C_R   0.402498 0.980021 0.398335 0.238068
C87   C     C_R   0.443903 0.900478 0.178548 0.564364
C88   C     C_R   0.964784 0.412790 0.111267 0.229958
C89   C     C_R   0.577017 0.588243 0.396696 0.183782
C90   C     C_R   0.439924 0.028875 0.108039 0.216848
C91   C     C_R   0.014918 0.422959 0.398220 0.233430
C92   C     C_R   0.588554 0.553845 0.110210 0.249046
C93   C     C_R   0.911672 0.384421 0.956231 0.012362
C94   C     C_R   0.407580 0.958801 0.554827 -0.015495
C95   C     C_R   0.611566 0.548163 0.953375 -0.003731
C96   C     C_R   0.040472 0.445531 0.554562 -0.020119
C97   C     C_R   0.440142 0.049943 0.952096 0.038350
C98   C     C_R   0.099371 0.543566 0.321735 0.555826
C99   C     C_R   0.562469 0.594590 0.553457 0.011040
C100  C     C_R   0.403794 0.970336 0.450187 0.004547
C101  C     C_R   0.937746 0.402940 0.059910 -0.007539
C102  C     C_R   0.567104 0.592268 0.448391 -0.026848
C103  C     C_R   0.458874 0.055003 0.056482 -0.011328
C104  C     C_R   0.026076 0.432425 0.450025 0.001970
C105  C     C_R   0.598340 0.542189 0.058095 0.019325
C106  C     C_R   0.866835 0.290919 0.037059 0.360848
C107  C     C_R   0.298043 0.928930 0.478001 0.318326
C108  C     C_R   0.710611 0.592961 0.033822 0.348751
Cl1   Cl    Cl    0.048731 0.746151 0.136448 -0.279096
Cl2   Cl    Cl    0.657045 0.945027 0.848347 -0.373102
Cl3   Cl    Cl    0.993065 0.709465 0.645508 -0.296908
Cl4   Cl    Cl    0.293473 0.304426 0.856665 -0.317042
Cl5   Cl    Cl    0.170695 0.871066 0.043111 -0.410593
Cl6   Cl    Cl    0.851346 0.061861 0.442300 -0.253851
Cl7   Cl    Cl    0.129388 0.308545 0.048845 -0.372201
Cl8   Cl    Cl    0.916469 0.775604 0.444861 -0.267040
Cl9   Cl    Cl    0.710027 0.836630 0.047759 -0.383319
Cl10  Cl    Cl    0.225452 0.145123 0.445041 -0.303309
Cl11  Cl    Cl    0.870008 0.124540 0.550803 -0.358996
Cl12  Cl    Cl    0.711011 0.009978 0.350688 -0.322070
Cl13  Cl    Cl    0.083486 0.832247 0.935261 -0.247847
Cl14  Cl    Cl    0.259411 0.133709 0.554586 -0.325901
Cl15  Cl    Cl    0.765023 0.915431 0.940274 -0.253495
Cl16  Cl    Cl    0.895798 0.760665 0.555867 -0.320062
Cl17  Cl    Cl    0.149825 0.336323 0.936252 -0.424764
Cl18  Cl    Cl    0.919663 0.285137 0.150086 -0.337591
Cl19  Cl    Cl    0.304203 0.019498 0.368282 -0.275865
Cl20  Cl    Cl    0.714051 0.620491 0.150597 -0.322351
Cl21  Cl    Cl    0.969045 0.285031 0.367768 -0.276195
Cl22  Cl    Cl    0.345031 0.065310 0.143449 -0.326325
Cl23  Cl    Cl    0.260642 0.299060 0.138381 -0.276539
Cl24  Cl    Cl    0.715512 0.675413 0.365597 -0.322565
Cl25  Cl    Cl    0.282374 0.948460 0.641637 -0.313284
Cl26  Cl    Cl    0.718134 0.285823 0.897861 -0.672326
Cl27  Cl    Cl    0.652637 0.719123 0.643158 -0.300542
Cl28  Cl    Cl    0.293239 0.029264 0.873841 -0.253931
Cl29  Cl    Cl    0.047550 0.325976 0.640143 -0.317324
Cl30  Cl    Cl    0.738917 0.699097 0.876869 -0.302605
Cl31  Cl    Cl    0.019833 0.726265 0.356546 -0.279292
Cl32  Cl    Cl    0.701308 0.963374 0.138411 -0.273734
Cl33  Cl    Cl    0.271827 0.295625 0.356913 -0.286921
Cl34  Cl    Cl    0.727525 0.019157 0.642223 -0.276380
Cl35  Cl    Cl    0.112604 0.693448 0.848943 -0.398674
Cl36  Cl    Cl    0.293311 0.281937 0.643434 -0.299638
Cr1   Cr    Cr6+3 0.487630 0.241180 0.750000 1.245570
Cr2   Cr    Cr6+3 0.753550 0.512370 0.750000 1.235086
Cr3   Cr    Cr6+3 0.758820 0.246450 0.750000 1.234470
Cr4   Cr    Cr6+3 0.241180 0.487630 0.250000 1.235254
Cr5   Cr    Cr6+3 0.512370 0.753550 0.250000 1.226650
Cr6   Cr    Cr6+3 0.246450 0.758820 0.250000 1.235155
H1    H     H_    0.745685 0.207850 0.085652 0.324720
H2    H     H_    0.277493 0.164123 0.983078 0.402878
H3    H     H_    0.214766 0.412164 0.571819 0.348059
H4    H     H_    0.811666 0.574265 0.930898 0.345903
H5    H     H_    0.138498 0.904122 0.478115 0.427067
H6    H     H_    0.879733 0.707489 0.040651 0.413234
H7    H     H_    0.087128 0.228142 0.475609 0.430838
H8    H     H_    0.459923 0.244851 0.081074 0.342334
H9    H     H_    0.639807 0.802023 0.419573 0.356939
H10   H     H_    0.204671 0.781494 0.573912 0.346672
H11   H     H_    0.848466 0.176183 0.931147 0.396046
H12   H     H_    0.754929 0.868575 0.529706 0.424168
O1    O     O_R   0.460870 0.120930 0.805240 -0.432405
O2    O     O_R   0.120930 0.460870 0.194760 -0.414826
O3    O     O_R   0.539130 0.660060 0.305240 -0.432663
O4    O     O_R   0.339940 0.879070 0.194760 -0.416085
O5    O     O_R   0.498910 0.350470 0.801870 -0.442556
O6    O     O_R   0.851560 0.501090 0.698130 -0.464435
O7    O     O_R   0.649530 0.148440 0.801870 -0.426985
O8    O     O_R   0.498910 0.350470 0.698130 -0.462847
O9    O     O_R   0.851560 0.501090 0.801870 -0.456295
O10   O     O_R   0.649530 0.148440 0.698130 -0.468556
O11   O     O_R   0.350470 0.498910 0.301870 -0.460292
O12   O     O_R   0.660060 0.539130 0.694760 -0.428113
O13   O     O_R   0.501090 0.851560 0.198130 -0.463073
O14   O     O_R   0.148440 0.649530 0.301870 -0.460747
O15   O     O_R   0.350470 0.498910 0.198130 -0.465084
O16   O     O_R   0.501090 0.851560 0.301870 -0.465957
O17   O     O_R   0.148440 0.649530 0.198130 -0.465994
O18   O     O_3   0.666667 0.333333 0.750000 -0.349473
O19   O     O_3   0.333333 0.666667 0.250000 -0.358982
O20   O     O_3   0.795605 0.188601 0.063387 -0.556264
O21   O     O_3   0.191456 0.893602 0.454226 -0.560096
O22   O     O_3   0.815040 0.643822 0.060857 -0.571698
O23   O     O_R   0.879070 0.339940 0.805240 -0.438473
O24   O     O_3   0.097287 0.291465 0.451914 -0.551639
O25   O     O_3   0.394014 0.203671 0.056815 -0.631504
O26   O     O_3   0.688227 0.807431 0.449090 -0.594598
O27   O     O_3   0.191292 0.835672 0.551868 -0.608349
O28   O     O_3   0.817214 0.169598 0.965528 -0.592804
O29   O     O_3   0.688935 0.809907 0.550942 -0.559247
O30   O     O_3   0.333125 0.159985 0.958569 -0.587453
O31   O     O_3   0.160117 0.347059 0.549312 -0.605081
O32   O     O_3   0.825237 0.626211 0.960175 -0.645594
O33   O     O_R   0.460870 0.120930 0.694760 -0.422168
O34   O     O_R   0.660060 0.539130 0.805240 -0.434713
O35   O     O_R   0.879070 0.339940 0.694760 -0.427609
O36   O     O_R   0.120930 0.460870 0.305240 -0.420235
O37   O     O_R   0.539130 0.660060 0.194760 -0.417715
O38   O     O_R   0.339940 0.879070 0.305240 -0.424678

loop_
_geom_bond_atom_site_label_1
_geom_bond_atom_site_label_2
_ccdc_geom_bond_type
C3    C104  A    
C12   O16   A    
C32   O7    A    
C32   O1    A    
C35   C74   A    
Cr4   O15   S    
C29   Cl17  S    
C89   C102  A    
C45   C71   A    
Cr6   O14   S    
C11   O32   S    
C91   C104  A    
H8    O25   S    
C15   C94   A    
C88   C101  A    
C27   Cl13  S    
C44   C64   A    
C22   C101  A    
C46   C62   A    
C18   C24   A    
C84   C97   A    
C4    O25   S    
C76   O11   A    
C28   C68   A    
C8    C99   A    
H10   O27   S    
C43   O12   A    
C50   Cl32  S    
C87   O4    A    
C15   C68   A    
C61   C80   A    
Cr6   O4    S    
C4    C103  A    
C101  C106  A    
C33   C36   A    
C80   Cl26  S    
C30   C38   A    
C59   C89   A    
C87   O13   A    
C42   Cl4   S    
C106  O20   S    
C21   C64   S    
C88   Cl18  S    
C33   C72   A    
C5    C102  A    
Cr3   O18   S    
Cr4   O19   S    
C6    C94   A    
C40   C67   A    
H6    O22   S    
C90   Cl22  S    
C6    C107  A    
C49   C75   A    
C7    O28   S    
C44   C70   A    
C51   C57   A    
C2    O15   A    
C41   C68   A    
C9    O30   S    
C36   Cl10  S    
C14   C93   A    
C13   C53   S    
C21   O6    A    
C11   C108  A    
C31   C71   A    
C48   Cl1   S    
C28   C34   A    
C17   C70   A    
C59   C76   S    
Cr2   O9    S    
C58   C87   S    
C38   Cl8   S    
Cr5   O19   S    
C6    O27   S    
C19   C72   A    
C48   C53   A    
C92   Cl20  S    
C26   C105  A    
Cr6   O38   S    
H12   O29   S    
C30   C70   A    
C43   O8    A    
Cr6   O19   S    
C29   C69   A    
C16   C26   A    
C15   C20   A    
C7    C93   A    
C62   C85   A    
C108  O22   S    
C65   O10   A    
C25   C78   A    
Cr4   O2    S    
C48   C74   A    
C1    O34   A    
Cr5   O3    S    
H7    O24   S    
C47   C73   A    
C10   O31   S    
C23   C75   A    
C19   C99   A    
C45   Cl2   S    
C46   Cl36  S    
Cr1   O1    S    
C27   C35   A    
C13   O17   A    
C37   C77   A    
C45   C63   A    
C42   C69   A    
Cr3   O23   S    
C40   C61   A    
C31   C37   A    
C49   Cl33  S    
Cr5   O13   S    
C39   C79   A    
H9    O26   S    
C19   C23   A    
C64   C83   A    
C85   C99   A    
C36   C75   A    
C66   C82   A    
C98   O14   A    
C60   C81   A    
C24   C77   A    
H1    O20   S    
C20   C100  A    
C10   C96   A    
C14   C67   A    
C29   C39   A    
C1    C66   S    
C12   O38   A    
C7    C106  A    
Cr2   O18   S    
C76   O3    A    
C17   C96   A    
C105  C108  A    
C58   C90   A    
C85   Cl27  S    
C47   Cl12  S    
C18   C97   A    
C30   Cl16  S    
C60   C65   S    
C39   Cl7   S    
Cr5   O37   S    
C33   Cl14  S    
Cr3   O35   S    
C34   Cl6   S    
C22   C74   A    
Cr2   O34   S    
C52   C79   A    
C3    O24   S    
C83   Cl29  S    
C86   C100  A    
Cr3   O10   S    
C13   O2    A    
C47   C55   A    
Cr1   O5    S    
C11   C95   A    
C18   C71   A    
Cr2   O6    S    
Cr1   O8    S    
C84   Cl28  S    
C100  C107  A    
C9    C97   A    
C82   C95   A    
C57   C91   A    
C86   Cl19  S    
C52   Cl23  S    
C46   C72   A    
C54   O9    A    
H3    O31   S    
C16   C69   A    
C26   C79   A    
C41   C60   A    
C21   O35   A    
H11   O28   S    
C28   Cl11  S    
C5    C8    A    
C25   C104  A    
C81   Cl25  S    
C91   Cl21  S    
C54   C61   S    
C32   C63   S    
C38   C78   A    
C89   Cl24  S    
Cr4   O11   S    
C49   C59   A    
C63   C84   A    
C24   C103  A    
C17   C25   A    
C14   C22   A    
C55   C86   A    
C80   C93   A    
C51   C78   A    
C31   Cl15  S    
C41   Cl34  S    
H2    O30   S    
C3    C10   A    
C2    C56   S    
C81   C94   A    
C16   C95   A    
Cr4   O36   S    
C98   O36   A    
C52   C56   A    
C2    O37   A    
C83   C96   A    
Cr2   O12   S    
Cr1   O18   S    
Cr5   O16   S    
C20   C73   A    
C35   Cl5   S    
C53   C88   A    
H5    O21   S    
C57   C98   S    
C90   C103  A    
Cr1   O33   S    
C12   C55   S    
C27   C67   A    
C34   C73   A    
C23   C102  A    
C44   Cl3   S    
Cr3   O7    S    
C92   C105  A    
C56   C92   A    
C37   Cl9   S    
C43   C62   S    
C82   Cl30  S    
C40   Cl35  S    
C107  O21   S    
C50   C77   A    
C42   C66   A    
C1    O5    A    
C8    O29   S    
C5    O26   S    
C4    C9    A    
C54   O23   A    
C50   C58   A    
H4    O32   S    
Cr6   O17   S    
C65   O33   A    
C51   Cl31  S    
