data_mof_unit_50571.cif
_audit_creation_date              2012-10-26T19:57:09-0400
_audit_creation_method            fapswitch 2.2
_symmetry_space_group_name_H-M    P1
_symmetry_Int_Tables_number       1
_space_group_crystal_system       triclinic
_cell_length_a                    12.962028
_cell_length_b                    10.940064
_cell_length_c                    9.799549
_cell_angle_alpha                 89.395315
_cell_angle_beta                  96.551442
_cell_angle_gamma                 91.317488
_cell_volume                      1380.14562865

loop_
_atom_site_label
_atom_site_type_symbol
_atom_type_description
_atom_site_fract_x
_atom_site_fract_y
_atom_site_fract_z
_atom_type_partial_charge
C1    C     C_R   0.500940 0.265671 0.500465 0.601777
C2    C     C_2   0.491486 0.133464 0.499754 -0.111385
C3    C     C_2   0.418455 0.506886 0.910839 0.091481
C4    C     C_R   0.300932 0.501458 0.473958 0.547969
C5    C     C_2   0.421660 0.469888 0.058564 0.366188
C6    C     C_R   0.499867 0.734223 0.499193 0.574522
C7    C     C_R   0.699027 0.493693 0.526380 0.567123
C8    C     C_R   0.811968 0.481241 0.541622 0.004822
C9    C     C_R   0.188246 0.506613 0.459857 0.030618
C10   C     C_R   0.027321 0.586057 0.347811 -0.089162
C11   C     C_R   0.134408 0.574218 0.353442 -0.048276
C12   C     C_R   0.027455 0.459588 0.553844 0.005647
C13   C     C_R   0.134626 0.449382 0.559621 -0.112733
C14   C     C_2   0.574666 0.107844 0.283127 0.647216
C15   C     C_R   0.973505 0.529346 0.448108 0.033105
C16   C     C_R   0.866696 0.541050 0.444101 -0.137359
C17   C     C_R   0.865767 0.406552 0.644468 0.219105
C18   C     C_R   0.973671 0.399659 0.651373 -0.104658
C19   C     C_2   0.476821 0.937003 0.392505 0.169635
C20   C     C_2   0.513605 0.865685 0.498594 -0.104729
C21   C     C_2   0.511944 0.064684 0.393289 0.007369
Cu1   Cu    Cu3+1 0.500020 0.500020 0.638640 1.116441
Cu2   Cu    Cu3+1 0.499980 0.499980 0.361360 1.242967
H1    H     H_    0.825878 0.596434 0.363934 0.167361
H2    H     H_    0.213160 0.248531 0.968516 0.386567
H3    H     H_    0.700980 0.742008 0.205071 0.355611
H4    H     H_    0.897480 0.151464 0.767185 0.347920
H5    H     H_    0.279722 0.047573 0.266291 0.353519
H6    H     H_    0.693364 0.214024 0.229783 0.364341
H7    H     H_    0.455120 0.091632 0.583993 0.112263
H8    H     H_    0.344964 0.532062 0.854692 0.160213
H9    H     H_    0.557777 0.447469 0.895410 0.282386
H10   H     H_    0.986819 0.639794 0.265831 0.146509
H11   H     H_    0.015935 0.344702 0.730685 0.161816
H12   H     H_    0.175298 0.620553 0.277036 0.211257
H13   H     H_    0.176468 0.396612 0.641596 0.145462
H14   H     H_    0.564345 0.904710 0.583951 0.104473
N1    N     N_2   0.498860 0.498660 0.846770 -0.315802
N2    N     N_2   0.498840 0.498630 0.152900 -0.091743
O1    O     O_R   0.500020 0.321960 0.617050 -0.476115
O2    O     O_2   0.224386 0.456127 0.111639 -0.309324
O3    O     O_3   0.279185 0.289968 0.951011 -0.526388
O4    O     O_2   0.684504 0.531006 0.063697 -0.266683
O5    O     O_2   0.557436 0.690635 0.999059 -0.238640
O6    O     O_3   0.649061 0.687378 0.242924 -0.482844
O7    O     O_2   0.761380 0.389403 0.864117 -0.188151
O8    O     O_2   0.713305 0.242760 0.679797 -0.276854
O9    O     O_3   0.884803 0.210875 0.838707 -0.487103
O10   O     O_2   0.422899 0.822427 0.153299 -0.142287
O11   O     O_2   0.299669 0.807901 0.324532 -0.332572
O12   O     O_R   0.499980 0.321920 0.382890 -0.452773
O13   O     O_3   0.315923 0.013133 0.192176 -0.429832
O14   O     O_2   0.558109 0.064642 0.167934 -0.398686
O15   O     O_R   0.656296 0.192787 0.312874 -0.665232
O16   O     O_R   0.349010 0.500000 0.598060 -0.540986
O17   O     O_R   0.348980 0.499950 0.363910 -0.450256
O18   O     O_R   0.500020 0.678080 0.617110 -0.489741
O19   O     O_R   0.499980 0.678040 0.382950 -0.407386
O20   O     O_R   0.651020 0.500050 0.636090 -0.451148
O21   O     O_R   0.650990 0.500000 0.401940 -0.455591
O22   O     O_2   0.336499 0.292935 0.212133 -0.255738
S1    S     S_3+6 0.313729 0.376227 0.090635 0.041267
S2    S     S_3+6 0.597183 0.601923 0.110074 0.129036
S3    S     S_3+6 0.802238 0.311708 0.757966 0.057516
S4    S     S_3+6 0.376966 0.890158 0.263430 0.086674

loop_
_geom_bond_atom_site_label_1
_geom_bond_atom_site_label_2
_ccdc_geom_bond_type
H4    O9    S    
H2    O3    S    
Cu2   O19   S    
O8    S3    D    
Cu1   O16   S    
H9    N1    S    
C1    O12   A    
O3    S1    S    
Cu2   O12   S    
C8    C17   A    
H3    O6    S    
C12   C15   A    
C2    H7    S    
Cu1   O1    S    
Cu1   O18   S    
C11   H12   S    
C17   C18   A    
O4    S2    D    
Cu2   O17   S    
C8    C16   A    
C4    O17   A    
C3    H8    S    
C20   H14   S    
H5    O13   S    
C6    O18   A    
C9    C11   A    
O22   S1    D    
O10   S4    D    
O2    S1    D    
C2    C21   D    
Cu2   N2    S    
C14   C21   S    
C7    O20   A    
C14   O15   S    
C5    S1    S    
C19   S4    S    
C10   H10   S    
C10   C15   A    
C18   H11   S    
O5    S2    D    
Cu2   O21   S    
O11   S4    D    
O9    S3    S    
C10   C11   A    
C12   C18   A    
C15   C16   A    
Cu1   N1    S    
C7    O21   A    
C7    C8    S    
C14   O14   D    
C6    C20   S    
C12   C13   A    
C3    N1    D    
C13   H13   S    
C16   H1    S    
C1    C2    S    
H6    O15   S    
N2    S2    S    
Cu1   O20   S    
C5    N2    D    
C6    O19   A    
Cu1   Cu2   S    
C9    C13   A    
C17   S3    S    
C1    O1    A    
C19   C21   S    
C4    C9    S    
O6    S2    S    
O13   S4    S    
C19   C20   D    
C4    O16   A    
O7    S3    D    
C3    C5    S    
