data_mof_unit_60645.cif
_audit_creation_date              2012-12-10T17:09:35-0500
_audit_creation_method            fapswitch 2.2
_symmetry_space_group_name_H-M    P1
_symmetry_Int_Tables_number       1
_space_group_crystal_system       triclinic
_cell_length_a                    18.353812
_cell_length_b                    18.353811
_cell_length_c                    27.705698
_cell_angle_alpha                 89.999976
_cell_angle_beta                  89.999947
_cell_angle_gamma                 90.04709
_cell_volume                      9333.004675

loop_
_atom_site_label
_atom_site_type_symbol
_atom_type_description
_atom_site_fract_x
_atom_site_fract_y
_atom_site_fract_z
_atom_type_partial_charge
C1    C     C_R   0.500000 0.000000 0.870842 0.502569
C2    C     C_1   0.500000 0.000000 0.775494 -0.023247
C3    C     C_R   0.302951 0.804846 0.499221 0.007411
C4    C     C_R   0.262381 0.791558 0.040886 -0.049735
C5    C     C_R   0.267483 0.321367 0.989403 -0.049638
C6    C     C_R   0.737618 0.208442 0.040886 -0.049734
C7    C     C_R   0.732516 0.678633 0.989404 -0.049638
C8    C     C_R   0.321367 0.267483 0.989403 -0.049638
C9    C     C_R   0.208441 0.737619 0.040886 -0.049735
C10   C     C_R   0.678633 0.732516 0.989404 -0.049638
C11   C     C_R   0.791558 0.262382 0.040886 -0.049735
C12   C     C_R   0.762376 0.291563 0.540884 -0.049733
C13   C     C_1   0.500000 0.000000 0.275494 -0.023246
C14   C     C_R   0.767483 0.821367 0.489403 -0.049638
C15   C     C_R   0.237621 0.708439 0.540885 -0.049734
C16   C     C_R   0.232517 0.178633 0.489403 -0.049638
C17   C     C_R   0.821367 0.767483 0.489403 -0.049638
C18   C     C_R   0.708436 0.237624 0.540884 -0.049733
C19   C     C_R   0.178633 0.232517 0.489403 -0.049638
C20   C     C_R   0.291561 0.762379 0.540885 -0.049734
C21   C     C_1   0.500000 1.000000 0.180980 0.034736
C22   C     C_1   1.000000 0.500000 0.180980 0.034736
C23   C     C_1   1.000000 0.500000 0.680980 0.034735
C24   C     C_1   1.000000 0.500000 0.275494 -0.023246
C25   C     C_1   0.500000 0.000000 0.680980 0.034735
C26   C     C_1   0.272997 0.836717 0.083392 0.221953
C27   C     C_1   0.286166 0.395639 0.975975 0.234517
C28   C     C_1   0.727002 0.163283 0.083392 0.221954
C29   C     C_1   0.713834 0.604361 0.975977 0.234517
C30   C     C_1   0.395639 0.286166 0.975975 0.234517
C31   C     C_1   0.163281 0.727003 0.083392 0.221952
C32   C     C_1   0.604361 0.713834 0.975977 0.234517
C33   C     C_1   0.836717 0.272998 0.083392 0.221954
C34   C     C_1   0.772987 0.336728 0.583388 0.221949
C35   C     C_1   0.000000 0.500000 0.819022 0.019412
C36   C     C_1   0.786166 0.895639 0.475975 0.234516
C37   C     C_1   0.227008 0.663276 0.583390 0.221950
C38   C     C_1   0.213834 0.104361 0.475975 0.234516
C39   C     C_1   0.895639 0.786166 0.475975 0.234516
C40   C     C_1   0.663271 0.227013 0.583388 0.221949
C41   C     C_1   0.104361 0.213834 0.475975 0.234516
C42   C     C_1   0.336723 0.772991 0.583390 0.221951
C43   C     C_1   0.500000 0.000000 0.819022 0.019412
C44   C     C_1   0.500000 1.000000 0.319023 0.019413
C45   C     C_1   0.000000 0.500000 0.319023 0.019413
C46   C     C_R   0.500000 1.000000 0.129161 0.514777
C47   C     C_R   1.000000 0.500000 0.129161 0.514777
C48   C     C_R   1.000000 0.500000 0.629161 0.514778
C49   C     C_R   0.000000 0.500000 0.870842 0.502569
C50   C     C_R   0.500000 0.000000 0.629161 0.514777
C51   C     C_R   0.640322 0.860263 0.000292 0.499533
C52   C     C_R   0.140196 0.639833 0.999842 0.501529
C53   C     C_R   0.359677 0.139737 0.000292 0.499533
C54   C     C_R   0.859804 0.360167 0.999841 0.501529
C55   C     C_R   0.639833 0.140196 0.999841 0.501528
C56   C     C_R   0.139737 0.359678 0.000292 0.499533
C57   C     C_R   0.360167 0.859804 0.999842 0.501529
C58   C     C_R   0.860263 0.640322 0.000292 0.499533
C59   C     C_R   0.140322 0.360263 0.500292 0.499533
C60   C     C_R   1.000000 0.500000 0.370842 0.502569
C61   C     C_R   0.640195 0.139833 0.499841 0.501529
C62   C     C_R   0.859677 0.639737 0.500292 0.499533
C63   C     C_R   0.359804 0.860167 0.499841 0.501529
C64   C     C_R   0.139833 0.640196 0.499841 0.501529
C65   C     C_R   0.639737 0.859677 0.500292 0.499533
C66   C     C_R   0.860167 0.359804 0.499842 0.501529
C67   C     C_R   0.360263 0.140322 0.500292 0.499533
C68   C     C_R   0.338693 0.768771 0.915894 -0.075349
C69   C     C_R   0.104342 0.211667 0.027907 -0.084491
C70   C     C_R   0.661309 0.231227 0.915894 -0.075351
C71   C     C_R   0.500000 1.000000 0.370842 0.502569
C72   C     C_R   0.895659 0.788333 0.027906 -0.084490
C73   C     C_R   0.211667 0.104342 0.027907 -0.084491
C74   C     C_R   0.231229 0.661308 0.915894 -0.075350
C75   C     C_R   0.788333 0.895659 0.027906 -0.084490
C76   C     C_R   0.768773 0.338691 0.915893 -0.075351
C77   C     C_R   0.838700 0.268763 0.415898 -0.075348
C78   C     C_R   0.604342 0.711667 0.527907 -0.084490
C79   C     C_R   0.161303 0.731233 0.415896 -0.075349
C80   C     C_R   0.395658 0.288333 0.527907 -0.084489
C81   C     C_R   0.711667 0.604342 0.527907 -0.084489
C82   C     C_1   0.500000 1.000000 0.224509 -0.017047
C83   C     C_R   0.731237 0.161300 0.415898 -0.075349
C84   C     C_R   0.288333 0.395658 0.527907 -0.084490
C85   C     C_R   0.268766 0.838697 0.415896 -0.075349
C86   C     C_R   0.328467 0.725107 0.875298 -0.101106
C87   C     C_R   0.086916 0.140424 0.040940 -0.110557
C88   C     C_R   0.671537 0.274890 0.875298 -0.101107
C89   C     C_R   0.913084 0.859576 0.040938 -0.110557
C90   C     C_R   0.140424 0.086916 0.040940 -0.110557
C91   C     C_R   0.274893 0.671534 0.875298 -0.101106
C92   C     C_R   0.859576 0.913084 0.040938 -0.110557
C93   C     C_1   1.000000 0.500000 0.224509 -0.017047
C94   C     C_R   0.725110 0.328463 0.875298 -0.101107
C95   C     C_R   0.828478 0.225096 0.375304 -0.101104
C96   C     C_R   0.586916 0.640424 0.540941 -0.110557
C97   C     C_R   0.171527 0.774900 0.375301 -0.101105
C98   C     C_R   0.413084 0.359575 0.540941 -0.110556
C99   C     C_R   0.640424 0.586916 0.540941 -0.110556
C100  C     C_R   0.774904 0.171522 0.375304 -0.101104
C101  C     C_R   0.359575 0.413084 0.540941 -0.110557
C102  C     C_R   0.225100 0.828473 0.375302 -0.101104
C103  C     C_R   0.240094 0.705412 0.957418 0.018098
C104  C     C_1   0.000000 0.500000 0.724509 -0.017048
C105  C     C_R   0.230589 0.176125 0.013844 0.014767
C106  C     C_R   0.759907 0.294587 0.957417 0.018099
C107  C     C_R   0.769411 0.823875 0.013843 0.014767
C108  C     C_R   0.176125 0.230589 0.013844 0.014767
C109  C     C_R   0.294588 0.759906 0.957418 0.018099
C110  C     C_R   0.823875 0.769411 0.013843 0.014767
C111  C     C_R   0.705413 0.240093 0.957417 0.018099
C112  C     C_R   0.740098 0.205408 0.457420 0.018098
C113  C     C_R   0.730589 0.676125 0.513844 0.014766
C114  C     C_R   0.259904 0.794590 0.457419 0.018099
C115  C     C_1   0.500000 0.000000 0.724509 -0.017048
C116  C     C_R   0.269411 0.323875 0.513844 0.014766
C117  C     C_R   0.676125 0.730589 0.513844 0.014766
C118  C     C_R   0.794592 0.259902 0.457420 0.018099
C119  C     C_R   0.323875 0.269411 0.513844 0.014766
C120  C     C_R   0.205410 0.740096 0.457419 0.018099
C121  C     C_R   0.304846 0.802951 0.999221 0.007411
C122  C     C_R   0.195093 0.302859 0.001131 0.003492
C123  C     C_R   0.695154 0.197049 0.999220 0.007410
C124  C     C_R   0.804907 0.697141 0.001131 0.003491
C125  C     C_R   0.302859 0.195093 0.001131 0.003492
C126  C     C_1   0.000000 0.500000 0.775494 -0.023247
C127  C     C_R   0.197049 0.695154 0.999220 0.007411
C128  C     C_R   0.697141 0.804907 0.001131 0.003491
C129  C     C_R   0.802950 0.304846 0.999220 0.007410
C130  C     C_R   0.804846 0.302951 0.499221 0.007412
C131  C     C_R   0.695093 0.802859 0.501131 0.003492
C132  C     C_R   0.195154 0.697049 0.499220 0.007411
C133  C     C_R   0.304907 0.197141 0.501131 0.003492
C134  C     C_R   0.802859 0.695093 0.501131 0.003492
C135  C     C_R   0.697049 0.195154 0.499221 0.007412
C136  C     C_R   0.197141 0.304907 0.501131 0.003492
H1    H     H_    0.381908 0.808813 0.914454 0.129244
H2    H     H_    0.561122 0.751572 0.529638 0.131242
H3    H     H_    0.118088 0.691191 0.414456 0.129242
H4    H     H_    0.438878 0.248427 0.529638 0.131243
H5    H     H_    0.751572 0.561122 0.529638 0.131243
H6    H     H_    0.691194 0.118085 0.414458 0.129240
H7    H     H_    0.248427 0.438878 0.529638 0.131243
H8    H     H_    0.308809 0.881912 0.414456 0.129242
H9    H     H_    0.362632 0.732543 0.843828 0.128979
H10   H     H_    0.031774 0.126856 0.051542 0.122127
H11   H     H_    0.637373 0.267453 0.843828 0.128980
H12   H     H_    0.061122 0.251572 0.029638 0.131242
H13   H     H_    0.968227 0.873144 0.051540 0.122127
H14   H     H_    0.126856 0.031774 0.051542 0.122127
H15   H     H_    0.267457 0.637368 0.843828 0.128979
H16   H     H_    0.873144 0.968227 0.051540 0.122127
H17   H     H_    0.732548 0.362627 0.843828 0.128979
H18   H     H_    0.862646 0.232530 0.343835 0.128980
H19   H     H_    0.531774 0.626857 0.551543 0.122129
H20   H     H_    0.137361 0.767465 0.343832 0.128980
H21   H     H_    0.468226 0.373143 0.551542 0.122130
H22   H     H_    0.626857 0.531774 0.551543 0.122130
H23   H     H_    0.618094 0.191185 0.914454 0.129245
H24   H     H_    0.767471 0.137355 0.343835 0.128980
H25   H     H_    0.373143 0.468226 0.551542 0.122129
H26   H     H_    0.232535 0.862640 0.343833 0.128979
H27   H     H_    0.938878 0.748428 0.029637 0.131242
H28   H     H_    0.251572 0.061122 0.029638 0.131241
H29   H     H_    0.191186 0.618093 0.914454 0.129244
H30   H     H_    0.748428 0.938878 0.029637 0.131242
H31   H     H_    0.808815 0.381906 0.914453 0.129244
H32   H     H_    0.881915 0.308806 0.414458 0.129240
N1    N     N_1   0.281484 0.872741 0.117218 -0.284818
N2    N     N_1   0.800965 0.954794 0.465286 -0.268710
N3    N     N_1   0.218524 0.627250 0.617215 -0.284822
N4    N     N_1   0.199035 0.045206 0.465286 -0.268709
N5    N     N_1   0.954794 0.800965 0.465286 -0.268709
N6    N     N_1   0.627243 0.218531 0.617212 -0.284826
N7    N     N_1   0.045206 0.199035 0.465286 -0.268710
N8    N     N_1   0.372749 0.781476 0.617215 -0.284822
N9    N     N_1   0.300965 0.454794 0.965287 -0.268707
N10   N     N_1   0.718515 0.127259 0.117218 -0.284818
N11   N     N_1   0.699034 0.545205 0.965289 -0.268706
N12   N     N_1   0.454794 0.300965 0.965287 -0.268707
N13   N     N_1   0.127257 0.718517 0.117218 -0.284819
N14   N     N_1   0.545205 0.699034 0.965289 -0.268706
N15   N     N_1   0.872740 0.281485 0.117218 -0.284819
N16   N     N_1   0.781469 0.372757 0.617212 -0.284825
O1    O     O_3   0.500000 0.000000 0.000010 -0.452801
O2    O     O_R   0.500000 0.939270 0.393730 -0.534217
O3    O     O_R   0.060730 0.500000 0.393730 -0.534218
O4    O     O_R   0.500000 0.060730 0.393730 -0.534217
O5    O     O_R   0.500000 0.939240 0.106280 -0.527617
O6    O     O_R   0.060760 0.500000 0.106280 -0.527617
O7    O     O_R   0.500000 0.060760 0.106280 -0.527616
O8    O     O_R   0.939240 0.500000 0.106280 -0.527617
O9    O     O_R   0.000000 0.439240 0.606280 -0.527618
O10   O     O_R   0.560760 1.000000 0.606280 -0.527617
O11   O     O_R   0.000000 0.560760 0.606280 -0.527617
O12   O     O_3   1.000000 0.500000 0.000010 -0.452801
O13   O     O_R   0.439240 1.000000 0.606280 -0.527617
O14   O     O_R   0.646170 0.914530 0.972140 -0.543371
O15   O     O_R   0.085470 0.646170 0.972140 -0.551834
O16   O     O_R   0.353830 0.085470 0.972140 -0.543371
O17   O     O_R   0.914530 0.353830 0.972140 -0.551834
O18   O     O_R   0.646170 0.085470 0.972140 -0.551834
O19   O     O_R   0.085470 0.353830 0.972140 -0.543371
O20   O     O_R   0.353830 0.914530 0.972140 -0.551833
O21   O     O_R   0.914530 0.646170 0.972140 -0.543371
O22   O     O_R   0.146170 0.414530 0.472140 -0.543371
O23   O     O_3   1.000000 0.500000 0.500010 -0.452801
O24   O     O_R   0.585470 0.146170 0.472140 -0.551831
O25   O     O_R   0.853830 0.585470 0.472140 -0.543371
O26   O     O_R   0.414530 0.853830 0.472140 -0.551832
O27   O     O_R   0.146170 0.585470 0.472140 -0.551832
O28   O     O_R   0.585470 0.853830 0.472140 -0.543371
O29   O     O_R   0.853830 0.414530 0.472140 -0.551831
O30   O     O_R   0.414530 0.146170 0.472140 -0.543371
O31   O     O_R   0.414540 0.146130 0.027870 -0.526716
O32   O     O_R   0.853870 0.414540 0.027870 -0.516581
O33   O     O_R   0.585460 0.853870 0.027870 -0.526716
O34   O     O_3   0.500000 0.000000 0.500010 -0.452801
O35   O     O_R   0.146130 0.585460 0.027870 -0.516581
O36   O     O_R   0.414540 0.853870 0.027870 -0.516581
O37   O     O_R   0.853870 0.585460 0.027870 -0.526716
O38   O     O_R   0.585460 0.146130 0.027870 -0.516581
O39   O     O_R   0.146130 0.414540 0.027870 -0.526716
O40   O     O_R   0.914540 0.646130 0.527870 -0.526716
O41   O     O_R   0.353870 0.914540 0.527870 -0.516582
O42   O     O_R   0.085460 0.353870 0.527870 -0.526716
O43   O     O_R   0.646130 0.085460 0.527870 -0.516582
O44   O     O_R   0.914540 0.353870 0.527870 -0.516582
O45   O     O_R   0.439270 0.000000 0.893730 -0.534217
O46   O     O_R   0.353870 0.085460 0.527870 -0.526716
O47   O     O_R   0.085460 0.646130 0.527870 -0.516582
O48   O     O_R   0.646130 0.914540 0.527870 -0.526716
O49   O     O_R   0.000000 0.439270 0.893730 -0.534218
O50   O     O_R   0.560730 0.000000 0.893730 -0.534218
O51   O     O_R   0.000000 0.560730 0.893730 -0.534218
O52   O     O_R   0.939270 0.500000 0.393730 -0.534217
Zn1   Zn    Zn3+2 0.500000 0.913210 0.039810 0.978176
Zn2   Zn    Zn3+2 1.000000 0.586760 0.960200 0.944471
Zn3   Zn    Zn3+2 0.413240 0.000000 0.960200 0.944471
Zn4   Zn    Zn3+2 0.000000 0.413240 0.960200 0.944471
Zn5   Zn    Zn3+2 0.086760 0.500000 0.460200 0.944472
Zn6   Zn    Zn3+2 0.500000 0.086760 0.460200 0.944473
Zn7   Zn    Zn3+2 0.913240 0.500000 0.460200 0.944473
Zn8   Zn    Zn3+2 0.500000 0.913240 0.460200 0.944472
Zn9   Zn    Zn3+2 0.086790 0.500000 0.039810 0.978176
Zn10  Zn    Zn3+2 0.500000 0.086790 0.039810 0.978176
Zn11  Zn    Zn3+2 0.913210 0.500000 0.039810 0.978177
Zn12  Zn    Zn3+2 0.000000 0.413210 0.539810 0.978175
Zn13  Zn    Zn3+2 0.586790 1.000000 0.539810 0.978175
Zn14  Zn    Zn3+2 1.000000 0.586790 0.539810 0.978176
Zn15  Zn    Zn3+2 0.413210 1.000000 0.539810 0.978176
Zn16  Zn    Zn3+2 0.586760 0.000000 0.960200 0.944470

loop_
_geom_bond_atom_site_label_1
_geom_bond_atom_site_label_2
_ccdc_geom_bond_type
C7    C10   A    
O18   Zn16  S    
O11   Zn14  S    
C45   C60   S    
C75   C107  A    
C7    C29   S    
C87   H10   S    
O12   Zn9   S    
C106  C129  A    
C68   C86   A    
O34   Zn15  S    
O27   Zn5   S    
O4    Zn6   S    
C60   O52   A    
O14   Zn16  S    
C46   O7    A    
O3    Zn5   S    
C70   C88   A    
O23   Zn12  S    
O25   Zn7   S    
C1    O45   A    
O28   Zn8   S    
C63   O41   A    
C56   O19   A    
O12   Zn2   S    
C51   O33   A    
C77   H32   S    
C54   O32   A    
C20   C42   S    
C119  C133  A    
O8    Zn11  S    
C12   C130  A    
C44   C71   S    
C51   C128  S    
O52   Zn7   S    
C32   N14   T    
C85   C114  A    
C67   C133  S    
O49   Zn4   S    
O24   Zn6   S    
C73   C90   A    
C35   C49   S    
C73   H28   S    
C50   O10   A    
C86   C91   A    
O23   Zn5   S    
C14   C36   S    
C48   O9    A    
C96   H19   S    
O13   Zn15  S    
C96   C99   A    
C11   C129  A    
C59   C136  S    
C63   O26   A    
C57   O20   A    
C76   H31   S    
C70   H23   S    
C17   C39   S    
C97   H20   S    
C47   O8    A    
C59   O42   A    
C18   C40   S    
C25   C50   S    
C15   C37   S    
C65   O28   A    
C49   O49   A    
C76   C94   A    
C107  C128  A    
C5    C27   S    
C83   H6    S    
C52   C127  S    
O1    Zn1   S    
C15   C132  A    
C64   C132  S    
C26   N1    T    
C78   C96   A    
C52   O35   A    
C69   C108  A    
C92   H16   S    
O35   Zn9   S    
C64   O27   A    
C34   N16   T    
O34   Zn8   S    
O45   Zn3   S    
C2    C43   T    
C103  C127  A    
C7    C124  A    
C97   C102  A    
C69   C87   A    
O40   Zn14  S    
O43   Zn13  S    
C110  C124  A    
C89   H13   S    
C22   C47   S    
C41   N7    T    
C80   C119  A    
O5    Zn1   S    
C84   C116  A    
C31   N13   T    
C84   C101  A    
C14   C17   A    
C68   H1    S    
C74   H29   S    
C6    C123  A    
O20   Zn3   S    
C10   C128  A    
C16   C133  A    
C78   H2    S    
C85   H8    S    
C65   C131  S    
C50   O13   A    
C1    C43   S    
C55   C123  S    
C14   C131  A    
C16   C19   A    
C15   C20   A    
C105  C108  A    
C6    C28   S    
C87   C90   A    
C91   H15   S    
C111  C123  A    
C72   H27   S    
O29   Zn7   S    
C78   C117  A    
C67   O46   A    
C77   C118  A    
O50   Zn16  S    
C6    C11   A    
C95   C100  A    
O37   Zn11  S    
C58   O21   A    
C19   C136  A    
C80   H4    S    
C55   O18   A    
C5    C122  A    
C77   C95   A    
O39   Zn9   S    
C71   O4    A    
O2    Zn8   S    
O32   Zn11  S    
C56   C122  S    
C74   C91   A    
C35   C126  T    
C79   H3    S    
C33   N15   T    
C118  C130  A    
C51   O14   A    
O23   Zn7   S    
O51   Zn2   S    
C56   O39   A    
C81   C113  A    
C2    C115  S    
C100  H24   S    
C39   N5    T    
C73   C105  A    
C23   C104  T    
C98   H21   S    
C11   C33   S    
C1    O50   A    
C102  H26   S    
C79   C120  A    
O41   Zn15  S    
O10   Zn13  S    
C19   C41   S    
C18   C135  A    
C52   O15   A    
C61   O43   A    
C89   C92   A    
O42   Zn12  S    
C25   C115  T    
O19   Zn4   S    
C53   C125  S    
C75   C92   A    
C55   O38   A    
C113  C117  A    
C59   O22   A    
C48   O11   A    
C60   O3    A    
C62   O40   A    
C113  C134  A    
O12   Zn11  S    
C22   C93   T    
O36   Zn1   S    
C62   O25   A    
O22   Zn5   S    
C24   C45   T    
C46   O5    A    
C12   C34   S    
C106  C111  A    
C98   C101  A    
O15   Zn2   S    
O33   Zn1   S    
C17   C134  A    
C112  C135  A    
C61   C135  S    
O17   Zn4   S    
C58   O37   A    
C21   C46   S    
O12   Zn4   S    
C69   H12   S    
C54   C129  S    
O7    Zn10  S    
O6    Zn9   S    
C76   C106  A    
C23   C48   S    
C65   O48   A    
C80   C98   A    
C120  C132  A    
C53   O16   A    
C36   N2    T    
C79   C97   A    
C27   N9    T    
C108  C122  A    
C3    C114  A    
C66   O44   A    
C37   N3    T    
C64   O47   A    
C4    C26   S    
C90   H14   S    
C38   N4    T    
C83   C100  A    
C116  C136  A    
C57   O36   A    
C3    C63   S    
C54   O17   A    
C81   C99   A    
C58   C124  S    
C84   H7    S    
C116  C119  A    
C105  C125  A    
C103  C109  A    
C95   H18   S    
C8    C30   S    
C62   C134  S    
C66   O29   A    
C101  H25   S    
O16   Zn3   S    
O26   Zn8   S    
C49   O51   A    
C107  C110  A    
C3    C20   A    
C9    C127  A    
O1    Zn16  S    
C112  C118  A    
C72   C89   A    
O38   Zn10  S    
C109  C121  A    
O44   Zn12  S    
O1    Zn3   S    
C72   C110  A    
C47   O6    A    
C94   H17   S    
C13   C82   S    
O9    Zn12  S    
C81   H5    S    
O34   Zn13  S    
C88   H11   S    
C4    C121  A    
C75   H30   S    
C68   C109  A    
O34   Zn6   S    
O21   Zn2   S    
C117  C131  A    
O23   Zn14  S    
C70   C111  A    
C9    C31   S    
C61   O24   A    
C57   C121  S    
C30   N12   T    
C10   C32   S    
C8    C125  A    
C104  C126  S    
C21   C82   T    
C40   N6    T    
O31   Zn10  S    
C53   O31   A    
C29   N11   T    
C99   H22   S    
C12   C18   A    
C86   H9    S    
C88   C94   A    
C5    C8    A    
C83   C112  A    
C74   C103  A    
C67   O30   A    
C42   N8    T    
O48   Zn13  S    
C71   O2    A    
C66   C130  S    
C4    C9    A    
C24   C93   S    
O47   Zn14  S    
C28   N10   T    
C13   C44   T    
C114  C120  A    
C85   C102  A    
O46   Zn15  S    
C16   C38   S    
O1    Zn10  S    
O30   Zn6   S    
