data_mof_unit_39634.cif
_audit_creation_date              2012-12-10T19:04:12-0500
_audit_creation_method            fapswitch 2.2
_symmetry_space_group_name_H-M    P1
_symmetry_Int_Tables_number       1
_space_group_crystal_system       triclinic
_cell_length_a                    10.640293
_cell_length_b                    10.837661
_cell_length_c                    9.551599
_cell_angle_alpha                 90.474659
_cell_angle_beta                  89.367661
_cell_angle_gamma                 90.324288
_cell_volume                      1101.32917369

loop_
_atom_site_label
_atom_site_type_symbol
_atom_type_description
_atom_site_fract_x
_atom_site_fract_y
_atom_site_fract_z
_atom_type_partial_charge
C1    C     C_R   0.498724 0.262462 0.499481 0.798690
C2    C     C_3   0.961643 0.474376 0.369688 -0.124705
C3    C     C_3   0.043019 0.390627 0.462099 -0.205779
C4    C     C_3   0.122158 0.503883 0.502875 -0.014381
C5    C     C_R   0.492822 0.064946 0.624499 0.107159
C6    C     C_R   0.488972 0.129437 0.498906 -0.088350
C7    C     C_R   0.468342 0.063347 0.373936 -0.222924
C8    C     C_R   0.467580 0.934547 0.374670 -0.216077
C9    C     C_R   0.486346 0.870885 0.500603 -0.087059
C10   C     C_R   0.488927 0.938094 0.625807 0.090192
C11   C     C_3   0.576123 0.931373 0.746976 -0.473704
C12   C     C_R   0.259235 0.502205 0.500887 0.804785
C13   C     C_3   0.581890 0.071786 0.745004 -0.027697
C14   C     C_R   0.607911 0.523751 0.072609 0.253009
C15   C     C_R   0.398049 0.460431 0.075100 -0.069175
C16   C     C_R   0.398500 0.459567 0.926381 -0.050893
C17   C     C_R   0.608081 0.523154 0.925465 0.256597
C18   C     C_3   0.687952 0.636175 0.919572 -0.490648
C19   C     C_3   0.687036 0.637450 0.078714 -0.484317
C20   C     C_R   0.497910 0.737707 0.500374 0.799501
C21   C     C_R   0.740576 0.499543 0.499217 0.792742
C22   C     C_3   0.036667 0.529791 0.629957 0.205504
C23   C     C_3   0.956076 0.416455 0.589962 -0.184318
C24   C     C_3   0.877192 0.500206 0.497676 -0.015276
C25   C     C_3   0.955587 0.613531 0.538051 -0.195821
C26   C     C_3   0.042755 0.587679 0.410478 -0.177214
Cu1   Cu    Cu3+1 0.499990 0.499980 0.640670 0.951507
Cu2   Cu    Cu3+1 0.500010 0.500020 0.359330 0.940176
H1    H     H_    0.918409 0.346256 0.663500 0.146023
H2    H     H_    0.666024 0.884770 0.719048 0.200110
H3    H     H_    0.538954 0.115420 0.839734 0.165483
H4    H     H_    0.314739 0.429692 0.130627 0.156191
H5    H     H_    0.316513 0.426604 0.871780 0.171337
H6    H     H_    0.782074 0.617424 0.872949 0.225575
H7    H     H_    0.637784 0.714819 0.873875 0.208336
H8    H     H_    0.780979 0.619618 0.123884 0.205999
H9    H     H_    0.636205 0.717578 0.125103 0.210286
H10   H     H_    0.916735 0.704740 0.569114 0.141419
H11   H     H_    0.080726 0.658007 0.337246 0.153652
H12   H     H_    0.928126 0.451494 0.262861 0.148135
H13   H     H_    0.081460 0.299253 0.431107 0.137476
H14   H     H_    0.458220 0.110455 0.275165 0.164796
H15   H     H_    0.457645 0.885486 0.276120 0.166338
H16   H     H_    0.527491 0.895785 0.842085 0.177630
N1    N     N_R   0.500800 0.500930 0.147930 -0.190715
N2    N     N_R   0.500800 0.500890 0.852020 -0.188568
O1    O     O_R   0.500000 0.319640 0.618810 -0.586393
O2    O     O_R   0.500010 0.319680 0.381230 -0.587179
O3    O     O_R   0.316850 0.499950 0.618770 -0.567603
O4    O     O_R   0.316860 0.499990 0.381190 -0.591275
O5    O     O_R   0.499990 0.680320 0.618770 -0.568953
O6    O     O_R   0.500000 0.680360 0.381190 -0.585917
O7    O     O_R   0.683140 0.500010 0.618810 -0.587319
O8    O     O_R   0.683150 0.500050 0.381230 -0.585504
C27   C     C_3   0.712956 0.122371 0.707965 -0.834937
H17   H     H_    0.748382 0.082818 0.607371 0.237099
H18   H     H_    0.710027 0.224280 0.699426 0.241398
H19   H     H_    0.779486 0.098821 0.792253 0.236263
I1    I     I_    0.082233 0.582210 0.839496 -0.490709

loop_
_geom_bond_atom_site_label_1
_geom_bond_atom_site_label_2
_ccdc_geom_bond_type
C12   O4    A    
C23   C24   S    
Cu1   O7    S    
C1    O2    A    
C6    C7    A    
C16   H5    S    
C4    C12   S    
C4    C22   S    
C18   H7    S    
C9    C20   S    
C5    C13   S    
C8    H15   S    
C27   H17   S    
C13   C27   S    
C27   H18   S    
C12   O3    A    
C11   H16   S    
C2    C26   S    
C24   C25   S    
C21   O7    A    
Cu2   O6    S    
C14   C17   A    
C21   O8    A    
C26   H11   S    
Cu2   O4    S    
Cu1   O3    S    
C23   H1    S    
Cu1   N2    S    
C5    C10   A    
Cu1   O5    S    
C17   C18   S    
C20   O5    A    
C2    C3    S    
C19   H8    S    
C18   H6    S    
C2    C24   S    
C5    C6    A    
C25   H10   S    
C4    C26   S    
C21   C24   S    
C7    C8    A    
C10   C11   S    
C15   N1    A    
Cu1   O1    S    
C1    C6    S    
C2    H12   S    
C11   C13   S    
C17   N2    A    
C20   O6    A    
C18   C19   S    
C9    C10   A    
C7    H14   S    
C16   N2    A    
C22   I1    S    
Cu2   N1    S    
C27   H19   S    
C22   C23   S    
Cu2   O2    S    
Cu2   O8    S    
C19   H9    S    
C14   N1    A    
C25   C26   S    
C3    C23   S    
C14   C19   S    
C13   H3    S    
C3    H13   S    
C3    C4    S    
C15   C16   A    
C11   H2    S    
C1    O1    A    
C8    C9    A    
Cu1   Cu2   S    
C22   C25   S    
C15   H4    S    
