data_mof_unit_48500.cif
_audit_creation_date              2012-12-10T20:49:08-0500
_audit_creation_method            fapswitch 2.2
_symmetry_space_group_name_H-M    P1
_symmetry_Int_Tables_number       1
_space_group_crystal_system       triclinic
_cell_length_a                    8.925443
_cell_length_b                    8.119537
_cell_length_c                    10.544889
_cell_angle_alpha                 90.276569
_cell_angle_beta                  90.03999
_cell_angle_gamma                 89.980869
_cell_volume                      764.183874999

loop_
_atom_site_label
_atom_site_type_symbol
_atom_type_description
_atom_site_fract_x
_atom_site_fract_y
_atom_site_fract_z
_atom_type_partial_charge
C1    C     C_R   0.218058 0.500045 0.499227 0.929939
C2    C     C_3   0.616389 0.584048 0.041309 0.560972
C3    C     C_3   0.499112 0.501785 0.877451 -0.119036
C4    C     C_3   0.499468 0.498849 0.122633 -0.112714
C5    C     C_1   0.065220 0.500204 0.498234 -0.195111
C6    C     C_1   0.934778 0.500150 0.498195 -0.194199
C7    C     C_3   0.146188 0.420854 0.867138 0.104380
C8    C     C_3   0.030551 0.313844 0.800255 -0.791424
C9    C     C_3   0.721534 0.830348 0.108316 0.088239
C10   C     C_3   0.847401 0.902359 0.188462 -0.780717
C11   C     C_R   0.781942 0.500012 0.499177 0.941186
C12   C     C_R   0.500562 0.499593 0.256875 0.928666
C13   C     C_R   0.499708 0.500475 0.743143 0.896825
C14   C     C_3   0.371360 0.572380 0.043580 -0.363802
C15   C     C_3   0.626352 0.429192 0.957478 -0.283756
C16   C     C_3   0.490916 0.658953 0.959552 -0.334132
C17   C     C_3   0.506767 0.342917 0.040070 -0.229205
C18   C     C_3   0.381442 0.417932 0.958886 0.568631
H1    H     H_    0.268629 0.629284 0.083825 0.162980
H2    H     H_    0.613602 0.856267 0.157563 0.161258
H3    H     H_    0.721970 0.892559 0.014530 0.142404
H4    H     H_    0.829977 0.036926 0.200941 0.209917
H5    H     H_    0.848843 0.843166 0.283218 0.265334
H6    H     H_    0.956956 0.881366 0.141140 0.252325
H7    H     H_    0.730250 0.372688 0.919578 0.157086
H8    H     H_    0.484342 0.786487 0.922417 0.172355
H9    H     H_    0.511149 0.214436 0.075563 0.159264
H10   H     H_    0.187647 0.514044 0.798405 0.125806
H11   H     H_    0.090081 0.484298 0.947913 0.160448
H12   H     H_    0.984612 0.221448 0.867119 0.250792
H13   H     H_    0.937483 0.391883 0.764913 0.195108
H14   H     H_    0.082890 0.248794 0.718663 0.267468
N1    N     N_1   0.500000 0.073640 0.500000 -0.035206
N2    N     N_1   0.500000 0.926360 0.500000 -0.038440
O1    O     O_R   0.285350 0.636850 0.500000 -0.618842
O2    O     O_3   0.745854 0.659893 0.092100 -0.623039
O3    O     O_R   0.714650 0.363150 0.500000 -0.620668
O4    O     O_R   0.714650 0.636850 0.500000 -0.618898
O5    O     O_R   0.285350 0.363150 0.500000 -0.614002
O6    O     O_R   0.499970 0.636850 0.313950 -0.626627
O7    O     O_R   0.500030 0.363150 0.686050 -0.601607
O8    O     O_R   0.500030 0.636850 0.686050 -0.629857
O9    O     O_R   0.499970 0.363150 0.313950 -0.632140
O10   O     O_3   0.263303 0.319767 0.911473 -0.608993
Zn1   Zn    Zn3+2 0.500000 0.682780 0.500000 0.980069
Zn2   Zn    Zn3+2 0.500000 0.317220 0.500000 0.990961

loop_
_geom_bond_atom_site_label_1
_geom_bond_atom_site_label_2
_ccdc_geom_bond_type
C12   O6    A    
C9    O2    S    
C2    C4    S    
O7    Zn2   S    
C7    H11   S    
C18   O10   S    
C10   H5    S    
C4    C12   S    
C2    C16   S    
C9    C10   S    
C14   C18   S    
C9    H2    S    
N1    Zn2   S    
C3    C13   S    
C8    H12   S    
C7    H10   S    
C13   O7    A    
C17   C18   S    
C7    C8    S    
N2    Zn1   S    
C7    O10   S    
C10   H4    S    
C4    C14   S    
C2    C15   S    
C9    H3    S    
C5    C6    T    
C8    H14   S    
O5    Zn2   S    
C1    C5    S    
C4    C17   S    
C13   O8    A    
N1    N2    T    
C12   O9    A    
C16   H8    S    
O6    Zn1   S    
O9    Zn2   S    
C14   C16   S    
C15   H7    S    
C1    O5    A    
C17   H9    S    
C3    C15   S    
C1    O1    A    
C3    C18   S    
C11   O3    A    
C2    O2    S    
C6    C11   S    
C15   C17   S    
C11   O4    A    
C10   H6    S    
O3    Zn2   S    
C8    H13   S    
C14   H1    S    
C3    C16   S    
O4    Zn1   S    
O8    Zn1   S    
O1    Zn1   S    
