data_mof_unit_19841.cif
_audit_creation_date              2012-12-11T16:24:07-0500
_audit_creation_method            fapswitch 2.2
_symmetry_space_group_name_H-M    P1
_symmetry_Int_Tables_number       1
_space_group_crystal_system       triclinic
_cell_length_a                    14.757244
_cell_length_b                    14.773096
_cell_length_c                    33.263823
_cell_angle_alpha                 96.052875
_cell_angle_beta                  96.221621
_cell_angle_gamma                 61.202929
_cell_volume                      6305.78567365

loop_
_atom_site_label
_atom_site_type_symbol
_atom_type_description
_atom_site_fract_x
_atom_site_fract_y
_atom_site_fract_z
_atom_type_partial_charge
C1    C     C_R   0.390967 0.699568 0.446111 0.546165
C2    C     C_1   0.314230 0.339736 0.229125 -0.015270
C3    C     C_1   0.319550 0.343933 0.265474 -0.015350
C4    C     C_R   0.405828 0.386370 0.434008 0.544329
C5    C     C_R   0.291266 0.294236 0.101805 0.019531
C6    C     C_R   0.756446 0.373220 0.410175 0.022060
C7    C     C_R   0.789685 0.434916 0.393626 -0.129559
C8    C     C_R   0.818986 0.414167 0.353926 -0.118837
C9    C     C_R   0.815828 0.331223 0.330137 0.035585
C10   C     C_R   0.792133 0.263757 0.347917 -0.120626
C11   C     C_R   0.762576 0.284643 0.387667 -0.131316
C12   C     C_R   0.329713 0.347565 0.308775 0.041671
C13   C     C_R   0.834811 0.311864 0.204750 0.347128
C14   C     C_R   0.827230 0.321681 0.286258 0.347348
C15   C     C_R   0.835481 0.390275 0.142213 -0.119524
C16   C     C_R   0.700726 0.410008 0.447531 0.546298
C17   C     C_R   0.865516 0.379077 0.103004 -0.130095
C18   C     C_R   0.909148 0.197995 0.099144 -0.131202
C19   C     C_R   0.878998 0.209244 0.138455 -0.120059
C20   C     C_R   0.846658 0.304327 0.160973 0.034305
C21   C     C_R   0.907325 0.281712 0.081887 0.021668
C22   C     C_R   0.370872 0.754531 0.409084 0.021961
C23   C     C_R   0.411439 0.264895 0.328468 -0.108114
C24   C     C_R   0.276845 0.784106 0.385812 -0.130064
C25   C     C_R   0.266692 0.812123 0.346274 -0.119524
C26   C     C_R   0.350265 0.811334 0.329373 0.035054
C27   C     C_R   0.440743 0.791355 0.353908 -0.119759
C28   C     C_R   0.393491 0.701296 0.561255 0.543009
C29   C     C_R   0.451002 0.763104 0.393491 -0.130628
C30   C     C_R   0.343631 0.828351 0.204313 0.348032
C31   C     C_R   0.346197 0.821726 0.285604 0.348234
C32   C     C_R   0.258522 0.831799 0.135205 -0.119506
C33   C     C_R   0.238765 0.862445 0.095660 -0.130442
C34   C     C_R   0.431438 0.274049 0.370215 -0.124462
C35   C     C_R   0.381859 0.901297 0.104822 -0.131658
C36   C     C_R   0.401689 0.870518 0.144431 -0.120766
C37   C     C_R   0.336916 0.840361 0.160551 0.035307
C38   C     C_R   0.296987 0.902312 0.080818 0.021798
C39   C     C_R   0.371544 0.369201 0.585121 0.022325
C40   C     C_R   0.407353 0.388866 0.549012 0.545727
C41   C     C_R   0.285069 0.448677 0.603975 -0.131233
C42   C     C_R   0.265955 0.439444 0.643074 -0.121842
C43   C     C_R   0.333104 0.350674 0.663865 0.034911
C44   C     C_R   0.413783 0.267566 0.643554 -0.120989
C45   C     C_R   0.393872 0.252743 0.165900 -0.108146
C46   C     C_R   0.432750 0.276676 0.604499 -0.129866
C47   C     C_R   0.318859 0.348241 0.788614 0.346620
C48   C     C_R   0.325458 0.348042 0.707444 0.346845
C49   C     C_R   0.218714 0.403698 0.850580 -0.122164
C50   C     C_R   0.207462 0.384011 0.889318 -0.131765
C51   C     C_R   0.386430 0.249125 0.893088 -0.130289
C52   C     C_R   0.701295 0.413646 0.562689 0.543001
C53   C     C_R   0.397628 0.268741 0.854433 -0.121123
C54   C     C_R   0.312482 0.342726 0.832078 0.034507
C55   C     C_R   0.289855 0.303085 0.910038 0.022177
C56   C     C_R   0.384902 0.234401 0.124055 -0.124608
C57   C     C_R   0.754029 0.380655 0.602946 0.020078
C58   C     C_R   0.777798 0.447927 0.629601 -0.126291
C59   C     C_R   0.805944 0.427469 0.670404 -0.110518
C60   C     C_R   0.811141 0.339508 0.684934 0.040986
C61   C     C_R   0.793914 0.268908 0.658219 -0.111063
C62   C     C_R   0.765792 0.289114 0.617403 -0.125810
C63   C     C_R   0.885750 0.212891 0.822834 -0.110774
C64   C     C_R   0.369977 0.366436 0.392573 0.019909
C65   C     C_R   0.913468 0.201544 0.864227 -0.127476
C66   C     C_R   0.871560 0.382303 0.873468 -0.126159
C67   C     C_R   0.209643 0.377603 0.121799 -0.125433
C68   C     C_R   0.843715 0.393440 0.832136 -0.111028
C69   C     C_R   0.853720 0.308076 0.806626 0.041635
C70   C     C_1   0.838420 0.316801 0.763607 -0.022297
C71   C     C_1   0.826860 0.325803 0.727634 -0.022553
C72   C     C_R   0.910111 0.285328 0.889715 0.019641
C73   C     C_R   0.376374 0.754780 0.601992 0.020084
C74   C     C_R   0.281041 0.790058 0.619091 -0.125672
C75   C     C_R   0.271557 0.819229 0.660335 -0.110841
C76   C     C_R   0.283414 0.446215 0.372858 -0.125704
C77   C     C_R   0.356937 0.813813 0.684891 0.041557
C78   C     C_R   0.218819 0.395636 0.163682 -0.107904
C79   C     C_R   0.450213 0.785014 0.667764 -0.111396
C80   C     C_R   0.459887 0.755996 0.626462 -0.127611
C81   C     C_R   0.397070 0.883934 0.832796 -0.111223
C82   C     C_R   0.377193 0.911488 0.873611 -0.126183
C83   C     C_R   0.228063 0.881916 0.862770 -0.126687
C84   C     C_R   0.248228 0.854282 0.822004 -0.111062
C85   C     C_R   0.330971 0.858031 0.806778 0.040294
C86   C     C_1   0.343310 0.842170 0.764024 -0.023089
C87   C     C_1   0.350580 0.830103 0.727975 -0.022737
C88   C     C_R   0.263726 0.436867 0.331080 -0.108467
C89   C     C_R   0.309738 0.331173 0.185817 0.041546
C90   C     C_R   0.290426 0.914017 0.888724 0.019568
C91   C     C_R   0.963476 0.264219 0.045520 0.545930
C92   C     C_R   0.272729 0.259427 0.060031 0.544154
C93   C     C_R   0.259256 0.959603 0.043757 0.545797
C94   C     C_R   0.962606 0.267626 0.930729 0.542470
C95   C     C_R   0.270879 0.264064 0.945394 0.545379
C96   C     C_R   0.256102 0.965069 0.928950 0.543022
Cr1   Cr    Cr6+3 0.576280 0.580550 0.506370 1.012703
Cr2   Cr    Cr6+3 0.346780 0.572400 0.496520 1.012674
Cr3   Cr    Cr6+3 0.576960 0.347070 0.497150 1.012633
Cr4   Cr    Cr6+3 0.087320 0.083240 0.984860 1.012949
Cr5   Cr    Cr6+3 0.087720 0.316210 0.996740 1.012946
Cr6   Cr    Cr6+3 0.317350 0.090340 0.995890 1.012890
H1    H     H_    0.449116 0.169748 0.109553 0.129570
H2    H     H_    0.195122 0.829294 0.328348 0.136596
H3    H     H_    0.505987 0.791446 0.341862 0.135803
H4    H     H_    0.208640 0.806739 0.146523 0.135192
H5    H     H_    0.428622 0.930914 0.094065 0.129870
H6    H     H_    0.463601 0.876595 0.163094 0.134775
H7    H     H_    0.236054 0.520707 0.589655 0.129258
H8    H     H_    0.499263 0.213616 0.590552 0.129885
H9    H     H_    0.132205 0.427346 0.901755 0.130244
H10   H     H_    0.202360 0.504281 0.657792 0.131913
H11   H     H_    0.465602 0.197251 0.658515 0.132642
H12   H     H_    0.861843 0.445326 0.090220 0.130461
H13   H     H_    0.462660 0.195341 0.311310 0.117709
H14   H     H_    0.152073 0.462147 0.834258 0.132159
H15   H     H_    0.451723 0.187254 0.908597 0.129612
H16   H     H_    0.471586 0.221985 0.841294 0.133174
H17   H     H_    0.943390 0.125730 0.875726 0.127880
H18   H     H_    0.893529 0.146428 0.803257 0.111043
H19   H     H_    0.798062 0.200452 0.669229 0.111209
H20   H     H_    0.747895 0.235812 0.597713 0.126339
H21   H     H_    0.769114 0.519189 0.619503 0.126647
H22   H     H_    0.818624 0.467531 0.819815 0.110783
H23   H     H_    0.790234 0.198485 0.330449 0.134333
H24   H     H_    0.868078 0.448254 0.892260 0.127143
H25   H     H_    0.498547 0.211265 0.384502 0.129285
H26   H     H_    0.819436 0.482426 0.690928 0.112498
H27   H     H_    0.426527 0.936096 0.892740 0.128448
H28   H     H_    0.461465 0.886792 0.821232 0.112706
H29   H     H_    0.516679 0.780734 0.686602 0.110484
H30   H     H_    0.534485 0.728722 0.614291 0.126914
H31   H     H_    0.215359 0.789984 0.601097 0.127158
H32   H     H_    0.196829 0.834001 0.802028 0.113359
H33   H     H_    0.160606 0.883224 0.873404 0.127522
H34   H     H_    0.940535 0.122083 0.083452 0.131472
H35   H     H_    0.198942 0.841729 0.673383 0.110554
H36   H     H_    0.234679 0.518366 0.389202 0.128716
H37   H     H_    0.153474 0.456746 0.178968 0.118021
H38   H     H_    0.136493 0.424972 0.105542 0.130096
H39   H     H_    0.200118 0.501090 0.315969 0.116889
H40   H     H_    0.786981 0.503010 0.410415 0.130481
H41   H     H_    0.738118 0.235188 0.399753 0.129283
H42   H     H_    0.839040 0.466315 0.341287 0.135128
H43   H     H_    0.808639 0.465154 0.158523 0.137162
H44   H     H_    0.887241 0.141917 0.151984 0.136911
H45   H     H_    0.213267 0.779414 0.397180 0.130486
H46   H     H_    0.524179 0.741493 0.410851 0.129841
H47   H     H_    0.173705 0.861015 0.077656 0.130179
H48   H     H_    0.464700 0.202779 0.182921 0.117994
N1    N     N_R   0.828738 0.395594 0.227918 -0.229575
N2    N     N_R   0.422997 0.827899 0.269009 -0.230344
N3    N     N_R   0.421364 0.831863 0.229138 -0.230267
N4    N     N_R   0.240171 0.423098 0.766873 -0.236406
N5    N     N_R   0.243751 0.423408 0.727076 -0.236227
N6    N     N_R   0.403939 0.273358 0.729222 -0.234967
N7    N     N_R   0.400545 0.273267 0.768953 -0.235091
N8    N     N_R   0.824688 0.400552 0.267822 -0.229112
N9    N     N_R   0.833048 0.237856 0.263124 -0.230305
N10   N     N_R   0.837521 0.232710 0.223140 -0.230140
N11   N     N_R   0.267186 0.821825 0.220949 -0.229875
N12   N     N_R   0.268635 0.818211 0.260753 -0.229553
O1    O     O_R   0.679450 0.499830 0.463150 -0.519122
O2    O     O_R   0.340240 0.172500 0.045430 -0.519577
O3    O     O_R   0.309670 0.000990 0.032050 -0.501941
O4    O     O_R   0.480650 0.664000 0.464630 -0.501363
O5    O     O_R   0.168330 0.982130 0.939200 -0.520420
O6    O     O_R   0.000140 0.178170 0.944610 -0.502119
O7    O     O_R   0.983010 0.336750 0.948660 -0.519864
O8    O     O_R   0.181800 0.312190 0.959860 -0.502202
O9    O     O_R   0.338500 0.175680 0.956950 -0.519668
O10   O     O_R   0.308050 0.003930 0.950020 -0.501611
O11   O     O_3   0.164130 0.163270 0.992500 -0.236461
O12   O     O_R   0.356040 0.477400 0.534170 -0.502144
O13   O     O_R   0.323930 0.675950 0.455370 -0.520011
O14   O     O_R   0.354700 0.475360 0.451930 -0.501918
O15   O     O_R   0.494470 0.320860 0.448390 -0.519304
O16   O     O_R   0.662580 0.357570 0.460050 -0.502097
O17   O     O_R   0.680900 0.502040 0.551870 -0.520315
O18   O     O_R   0.481990 0.666040 0.546870 -0.502540
O19   O     O_R   0.325370 0.678160 0.544080 -0.519263
O20   O     O_R   0.495910 0.323070 0.537100 -0.519676
O21   O     O_R   0.663920 0.359620 0.542290 -0.501735
O22   O     O_3   0.500010 0.500010 0.500010 -0.236319
O23   O     O_R   0.170070 0.978950 0.027680 -0.519522
O24   O     O_R   0.001760 0.175230 0.026640 -0.501361
O25   O     O_R   0.984760 0.333570 0.037150 -0.519574
O26   O     O_R   0.183410 0.309240 0.041890 -0.501515

loop_
_geom_bond_atom_site_label_1
_geom_bond_atom_site_label_2
_ccdc_geom_bond_type
C66   C68   A    
C63   C65   A    
C80   H30   S    
C22   C29   A    
C36   H6    S    
C18   C21   A    
C41   C42   A    
C34   H25   S    
C5    C56   A    
Cr5   O11   S    
C35   C36   A    
C28   O18   A    
C52   O21   A    
C4    O15   A    
C5    C67   A    
C78   H37   S    
C68   H22   S    
C29   H46   S    
C81   C82   A    
C81   H28   S    
Cr4   O23   S    
C7    C8    A    
C39   C41   A    
C53   C54   A    
Cr6   O11   S    
C12   C23   A    
C84   H32   S    
C58   H21   S    
C14   N8    A    
Cr4   O5    S    
C36   C37   A    
Cr3   O15   S    
C94   O7    A    
C21   C91   S    
Cr2   O12   S    
Cr1   O17   S    
C27   C29   A    
C27   H3    S    
Cr1   O4    S    
C74   H31   S    
C61   H19   S    
C18   C19   A    
C73   C74   A    
C42   H10   S    
Cr3   O20   S    
C63   H18   S    
C3    C12   S    
C96   O10   A    
C30   N3    A    
C66   C72   A    
C63   C69   A    
C45   C56   A    
C16   O16   A    
C8    C9    A    
Cr1   O1    S    
Cr5   O7    S    
C70   C71   T    
C10   H23   S    
C45   C89   A    
C43   C48   S    
C76   C88   A    
C13   N10   A    
C83   H33   S    
C72   C94   S    
C92   O2    A    
C48   N6    A    
C31   N12   A    
C93   O3    A    
C59   C60   A    
C16   O1    A    
C32   H4    S    
C61   C62   A    
C67   C78   A    
C28   C73   S    
C44   C46   A    
C17   H12   S    
N11   N12   A    
C40   O20   A    
C77   C79   A    
C78   C89   A    
Cr6   O10   S    
C15   C20   A    
C19   H44   S    
C74   C75   A    
C12   C88   A    
N1    N8    A    
C57   C62   A    
C35   C38   A    
C84   C85   A    
C13   N1    A    
Cr3   O16   S    
C55   C95   S    
C75   H35   S    
C94   O6    A    
C6    C11   A    
C15   H43   S    
C53   H16   S    
C68   C69   A    
Cr1   O18   S    
C60   C71   S    
C25   C26   A    
C85   C86   S    
C23   H13   S    
C17   C21   A    
C66   H24   S    
C30   C37   S    
C60   C61   A    
C51   C53   A    
C2    C89   S    
Cr4   O24   S    
C9    C14   S    
Cr2   O14   S    
C1    C22   S    
N9    N10   A    
C23   C34   A    
C79   H29   S    
C59   H26   S    
C34   C64   A    
C64   C76   A    
C96   O5    A    
Cr5   O8    S    
C8    H42   S    
C32   C37   A    
C24   C25   A    
C82   H27   S    
C18   H34   S    
C67   H38   S    
C75   C77   A    
N4    N5    A    
C47   C54   S    
C91   O24   A    
C47   N7    A    
C44   H11   S    
Cr6   O3    S    
C46   H8    S    
C43   C44   A    
C26   C27   A    
C22   C24   A    
C83   C84   A    
C42   C43   A    
C52   C57   S    
Cr5   O26   S    
C88   H39   S    
C62   H20   S    
Cr1   O22   S    
Cr3   O22   S    
C9    C10   A    
Cr6   O9    S    
C15   C17   A    
C83   C90   A    
C91   O25   A    
N6    N7    A    
C13   C20   S    
C86   C87   T    
Cr3   O21   S    
C48   N5    A    
C50   C55   A    
C56   H1    S    
C24   H45   S    
C92   O26   A    
C25   H2    S    
C90   C96   S    
C6    C7    A    
C47   N4    A    
C76   H36   S    
C65   C72   A    
C4    C64   S    
C33   C38   A    
C82   C90   A    
C14   N9    A    
Cr4   O6    S    
C32   C33   A    
C19   C20   A    
C2    C3    T    
C58   C59   A    
C52   O17   A    
C33   H47   S    
C40   O12   A    
C31   N2    A    
C45   H48   S    
C57   C58   A    
C11   H41   S    
C1    O4    A    
Cr2   O19   S    
C28   O19   A    
C38   C93   S    
C50   H9    S    
C51   H15   S    
C73   C80   A    
C39   C46   A    
C51   C55   A    
Cr2   O22   S    
C69   C70   S    
C95   O8    A    
C65   H17   S    
C5    C92   S    
C35   H5    S    
C10   C11   A    
C6    C16   S    
C79   C80   A    
C39   C40   S    
C26   C31   S    
C49   H14   S    
N2    N3    A    
C77   C87   S    
Cr6   O2    S    
C49   C50   A    
C4    O14   A    
Cr4   O11   S    
C41   H7    S    
C30   N11   A    
Cr5   O25   S    
C95   O9    A    
C7    H40   S    
C81   C85   A    
C49   C54   A    
Cr2   O13   S    
C1    O13   A    
C93   O23   A    
