data_mof_unit_5750.cif
_audit_creation_date              2013-03-05T15:53:05-0500
_audit_creation_method            fapswitch 2.2
_symmetry_space_group_name_H-M    P1
_symmetry_Int_Tables_number       1
_space_group_crystal_system       triclinic
_cell_length_a                    6.951816
_cell_length_b                    20.445704
_cell_length_c                    24.450961
_cell_angle_alpha                 89.452229
_cell_angle_beta                  90.465094
_cell_angle_gamma                 89.528268
_cell_volume                      3474.93842387

loop_
_atom_site_label
_atom_site_type_symbol
_atom_site_description
_atom_site_fract_x
_atom_site_fract_y
_atom_site_fract_z
_atom_type_partial_charge
O1    O     O_R   0.507320 0.423560 0.460500 -0.576805
O2    O     O_R   0.170760 0.556250 0.437010 -0.593581
O3    O     O_R   0.004030 0.576440 0.539500 -0.596686
C1    C     C_R   0.338840 0.576500 0.421099 1.032015
O4    O     O_R   0.177370 0.422820 0.454110 -0.591723
O5    O     O_R   0.010680 0.442050 0.556720 -0.595535
C2    C     C_R   0.346091 0.399029 0.443513 1.040787
O6    O     O_R   0.500680 0.557950 0.443280 -0.578291
O7    O     O_3   0.340380 0.506470 0.533650 -0.287360
V1    V     V_3+5 0.064130 0.498800 0.493760 1.193954
O8    O     O_R   0.681160 0.443750 0.562990 -0.593515
C3    C     C_R   0.850805 0.423659 0.578863 0.970151
O9    O     O_R   0.674560 0.577180 0.545890 -0.595628
C4    C     C_R   0.842690 0.600970 0.556786 0.911071
V2    V     V_3+5 0.564560 0.501200 0.506240 1.197483
O10   O     O_3   0.838180 0.493530 0.466350 -0.250896
C5    C     C_R   0.977479 0.838316 0.910851 -0.100204
C6    C     C_R   0.845897 0.661884 0.588827 -0.093144
C7    C     C_R   0.060669 0.723619 0.904240 -0.181834
C8    C     C_R   0.045682 0.780370 0.934902 -0.165187
C9    C     C_R   0.924471 0.839116 0.855113 -0.252758
C10   C     C_R   0.941975 0.781862 0.822373 0.153974
C11   C     C_R   0.011354 0.723915 0.848461 0.177136
C12   C     C_R   0.895991 0.780033 0.764868 -0.001358
C13   C     C_R   0.921540 0.720574 0.734773 0.057764
C14   C     C_R   0.990780 0.664734 0.763305 -0.169304
C15   C     C_R   0.033821 0.666521 0.818792 -0.242581
C16   C     C_R   0.825234 0.835667 0.736579 -0.381406
C17   C     C_R   0.776415 0.833961 0.681172 0.580035
C18   C     C_R   0.805121 0.776608 0.651038 -0.013853
C19   C     C_R   0.876856 0.718869 0.677223 0.047963
C20   C     C_R   0.758582 0.776208 0.594893 -0.122119
C21   C     C_R   0.776916 0.719439 0.564464 -0.189227
C22   C     C_R   0.897468 0.661591 0.644619 -0.193638
H1    H     H_    0.086954 0.622249 0.838717 0.134596
H2    H     H_    0.947155 0.615517 0.661373 0.096467
H3    H     H_    0.734387 0.720173 0.521719 0.109253
H4    H     H_    0.114352 0.679399 0.924087 0.118279
H5    H     H_    0.089425 0.779273 0.977545 0.108275
H6    H     H_    0.876161 0.885453 0.838539 0.107171
H7    H     H_    0.013980 0.618322 0.743951 0.130725
H8    H     H_    0.803917 0.881933 0.756338 0.163208
H9    H     H_    0.703686 0.819715 0.574294 0.160371
C23   C     C_3   0.772188 0.291055 0.760131 0.706200
C24   C     C_3   0.953357 0.282258 0.796314 -0.318247
H10   H     H_    0.986265 0.308864 0.834587 0.131076
H11   H     H_    0.214283 0.309547 0.738172 0.178271
C25   C     C_1   0.961183 0.121712 0.875253 -0.306229
C26   C     C_1   0.863169 0.378065 0.624607 -0.289305
C27   C     C_3   0.746265 0.216502 0.755554 -0.307066
C28   C     C_3   0.929926 0.207395 0.791066 0.168519
C29   C     C_3   0.872872 0.217227 0.703471 -0.214100
C30   C     C_3   0.895183 0.291947 0.708509 0.089589
C31   C     C_3   0.056103 0.207126 0.739482 -0.088937
C32   C     C_3   0.078200 0.282440 0.743888 -0.228063
C33   C     C_1   0.948304 0.160161 0.837193 -0.005104
C34   C     C_1   0.876285 0.339438 0.662540 0.041920
H12   H     H_    0.174707 0.171960 0.731300 0.115598
H13   H     H_    0.840918 0.190824 0.665035 0.142214
H14   H     H_    0.609597 0.189448 0.760531 0.132791
C35   C     C_3   0.570399 0.733700 0.221823 -0.162174
C36   C     C_3   0.392629 0.689360 0.229947 -0.134375
H15   H     H_    0.376228 0.639238 0.213569 0.133955
H16   H     H_    0.701453 0.720505 0.198578 0.118071
H17   H     H_    0.130698 0.747225 0.188879 0.117869
C37   C     C_1   0.348935 0.622055 0.375052 -0.248956
C38   C     C_1   0.475260 0.877890 0.124912 -0.245426
C39   C     C_3   0.566114 0.751462 0.283333 -0.160986
C40   C     C_3   0.388592 0.707717 0.290876 0.211646
C41   C     C_3   0.431538 0.810461 0.269941 -0.131636
C42   C     C_3   0.435577 0.792110 0.209011 0.212257
C43   C     C_3   0.253771 0.766124 0.278063 -0.161158
C44   C     C_3   0.258053 0.748362 0.216553 -0.162618
C45   C     C_1   0.364375 0.660496 0.336983 -0.019487
C46   C     C_1   0.459804 0.839385 0.162939 -0.020611
H18   H     H_    0.122717 0.779317 0.301309 0.118824
H19   H     H_    0.447930 0.860578 0.286328 0.131202
H20   H     H_    0.693468 0.752597 0.311008 0.118040
C47   C     C_R   0.472234 0.160527 0.089979 -0.248753
C48   C     C_R   0.350968 0.339421 0.410179 -0.297407
C49   C     C_R   0.513722 0.277475 0.094464 -0.109255
C50   C     C_R   0.528739 0.219365 0.065857 -0.220194
C51   C     C_R   0.411172 0.159175 0.145149 0.291426
C52   C     C_R   0.424582 0.217309 0.177467 -0.040580
C53   C     C_R   0.458788 0.277094 0.149429 0.080831
C54   C     C_R   0.405203 0.219288 0.236006 0.023066
C55   C     C_R   0.389849 0.281032 0.263294 -0.109346
C56   C     C_R   0.372855 0.338233 0.230099 0.651946
C57   C     C_R   0.427037 0.336467 0.175494 -0.355336
C58   C     C_R   0.408982 0.161957 0.268457 -0.044384
C59   C     C_R   0.365694 0.163598 0.323672 -0.213387
C60   C     C_R   0.345583 0.223036 0.350455 0.152091
C61   C     C_R   0.380326 0.282611 0.322163 -0.030565
C62   C     C_R   0.298598 0.222951 0.406001 -0.157176
C63   C     C_R   0.291537 0.281136 0.434710 -0.205050
C64   C     C_R   0.407889 0.340026 0.354569 0.326981
H21   H     H_    0.431510 0.381946 0.152362 0.160603
H22   H     H_    0.248767 0.280193 0.477239 0.128895
H23   H     H_    0.355621 0.117798 0.346149 0.131983
H24   H     H_    0.545286 0.323037 0.073487 0.114748
H25   H     H_    0.574758 0.220746 0.023618 0.119952
H26   H     H_    0.446059 0.114800 0.252273 0.169873
H27   H     H_    0.265327 0.177685 0.427202 0.124520
O11   O     O_R   0.323550 0.942140 0.056770 -0.579507
O12   O     O_R   0.647080 0.077200 0.045890 -0.586557
O13   O     O_R   0.813610 0.057920 0.943260 -0.596914
C65   C     C_R   0.478354 0.101129 0.056373 1.035071
O14   O     O_R   0.653470 0.943760 0.063000 -0.590336
O15   O     O_R   0.820050 0.923540 0.960490 -0.597495
C66   C     C_R   0.485380 0.923515 0.078909 1.038831
O16   O     O_R   0.317110 0.076520 0.039540 -0.577738
O17   O     O_3   0.483830 0.993580 0.966380 -0.291375
V3    V     V_3+5 0.760140 0.001190 0.006240 1.199030
O18   O     O_R   0.149510 0.922740 0.954070 -0.597769
C67   C     C_R   0.981306 0.898989 0.943187 0.914925
O19   O     O_R   0.143120 0.056170 0.936970 -0.598869
C68   C     C_R   0.973491 0.076267 0.921096 0.972904
V4    V     V_3+5 0.259690 0.998700 0.993700 1.192536
O20   O     O_3   0.986130 0.006420 0.033620 -0.246246
O21   O     O_3   0.623650 0.337320 0.768207 -0.623571
C69   C     C_3   0.533771 0.324506 0.818579 -0.294726
H28   H     H_    0.636485 0.329111 0.853404 0.141371
H29   H     H_    0.465655 0.275475 0.819065 0.142710
H30   H     H_    0.417726 0.361300 0.824356 0.179578
N1    N     N_R   0.519435 0.393992 0.334464 0.257833
O22   O     O_R   0.678065 0.382908 0.308145 -0.434500
O23   O     O_R   0.466676 0.454146 0.343375 -0.403186
N2    N     N_R   0.312325 0.102286 0.164746 0.213104
O24   O     O_R   0.391150 0.044529 0.161402 -0.447462
O25   O     O_R   0.139149 0.107942 0.184059 -0.393358
O26   O     O_3   0.297562 0.396303 0.249236 -0.602506
C70   C     C_3   0.095498 0.391337 0.250298 -0.118973
H31   H     H_    0.048718 0.352461 0.279308 0.152421
H32   H     H_    0.035477 0.382313 0.208706 0.118487
H33   H     H_    0.034932 0.438437 0.264677 0.203096
O27   O     O_3   0.708611 0.890431 0.655691 -0.622959
C71   C     C_3   0.510632 0.897123 0.666828 -0.251270
H34   H     H_    0.428342 0.853931 0.652468 0.138009
H35   H     H_    0.454165 0.940660 0.644315 0.178134
H36   H     H_    0.485308 0.905176 0.711144 0.144185

loop_
_geom_bond_atom_site_label_1
_geom_bond_atom_site_label_2
_geom_bond_distance
_ccdc_geom_bond_type
C13   C19   1.439385 A    
C42   C46   1.488818 S    
C55   C56   1.420740 A    
C40   C43   1.540226 S    
C4    C6    1.477894 S    
O2    C1    1.303962 A    
C7    C8    1.391100 A    
C51   N2    1.436149 S    
C1    O6    1.297274 A    
N2    O24   1.301286 A    
C3    C26   1.450731 S    
C63   H22   1.083893 S    
H17   C44   1.110475 S    
C24   H10   1.110075 S    
C29   C30   1.542823 S    
C71   H35   1.109441 S    
C5    C67   1.477710 S    
C14   C15   1.387835 A    
C17   C18   1.404567 A    
O16   V4    1.996108 S    
O12   V3    1.998467 S    
C16   C17   1.394770 A    
C29   H13   1.110059 S    
C52   C54   1.439674 A    
O5    C3    1.297122 A    
C18   C19   1.422295 A    
C23   O21   1.410963 S    
V2    O10   2.149935 S    
C37   C45   1.218490 T    
C5    C8    1.395410 A    
C26   C34   1.214787 T    
O19   C68   1.300619 A    
C28   C33   1.481833 S    
V4    O20   2.149976 S    
C58   H26   1.075858 S    
C69   H30   1.109303 S    
V3    O20   1.707293 S    
O8    V2    1.974098 S    
C23   C30   1.530333 S    
C50   H25   1.083861 S    
O19   V4    1.973914 S    
C39   C40   1.541331 S    
C47   C51   1.417545 A    
C27   C29   1.553936 S    
O4    C2    1.295153 A    
C36   C44   1.551337 S    
C41   C42   1.540212 S    
O1    V2    1.991510 S    
C11   C15   1.393824 A    
C48   C64   1.419168 A    
O7    V1    2.154403 S    
C43   H18   1.110469 S    
C35   C42   1.540270 S    
O9    C4    1.296334 A    
C41   H19   1.110189 S    
C62   C63   1.387795 A    
O17   V3    2.154345 S    
C29   C31   1.553859 S    
O18   C67   1.296427 A    
O11   V4    1.964392 S    
C30   C32   1.542621 S    
C39   H20   1.110477 S    
C71   H36   1.112768 S    
O13   V3    1.958852 S    
C18   C20   1.407943 A    
C12   C13   1.437559 A    
C54   C58   1.409122 A    
C59   C60   1.392524 A    
C42   C44   1.541368 S    
C8    H5    1.083699 S    
C53   C57   1.393236 A    
C54   C55   1.437117 A    
O27   C71   1.410952 S    
C15   H1    1.084547 S    
C13   C14   1.411409 A    
C49   C50   1.388068 A    
C36   C40   1.540220 S    
C57   H21   1.084529 S    
O14   V3    1.963316 S    
C35   H16   1.110469 S    
C7    C11   1.403516 A    
C36   H15   1.110208 S    
C7    H4    1.084099 S    
O12   C65   1.295650 A    
C38   C66   1.456948 S    
C51   C52   1.436814 A    
C60   C62   1.399448 A    
C27   C28   1.547181 S    
C19   C22   1.429843 A    
C47   C65   1.473319 S    
C40   C45   1.488734 S    
C52   C53   1.418472 A    
C48   C63   1.396071 A    
C6    C22   1.407615 A    
C69   H28   1.112000 S    
O18   V4    1.993471 S    
O3    C4    1.300259 A    
C39   C41   1.551277 S    
C62   H27   1.083995 S    
O6    V2    1.964587 S    
O9    V2    1.993547 S    
O13   C68   1.297115 A    
N1    O22   1.300690 A    
C10   C12   1.440319 A    
C38   C46   1.218545 T    
O26   C70   1.409643 S    
O2    V1    1.963282 S    
C23   C24   1.541563 S    
O11   C66   1.297227 A    
H11   C32   1.109480 S    
C31   H12   1.110153 S    
C23   C27   1.541402 S    
C25   C33   1.214708 T    
C31   C32   1.553422 S    
C30   C34   1.482582 S    
C1    C37   1.456844 S    
O1    C2    1.298465 A    
C65   O16   1.298003 A    
C10   C11   1.419279 A    
C12   C16   1.408701 A    
C43   C44   1.551056 S    
N2    O25   1.301421 A    
O5    V1    1.958681 S    
C47   C50   1.395454 A    
O8    C3    1.300671 A    
C25   C68   1.450619 S    
C49   H24   1.084010 S    
O15   V3    1.993973 S    
C61   C64   1.435818 A    
C71   H34   1.114157 S    
C28   C31   1.542168 S    
C27   H14   1.110263 S    
C20   C21   1.390198 A    
O7    V2    1.704449 S    
O4    V1    1.998480 S    
O3    V1    1.993946 S    
V1    O10   1.707381 S    
O17   V4    1.703133 S    
C35   C39   1.551059 S    
C58   C59   1.386227 A    
C9    H6    1.076930 S    
C70   H33   1.109256 S    
C55   C61   1.442114 A    
C16   H8    1.076012 S    
C60   C61   1.418450 A    
C20   H9    1.083182 S    
O14   C66   1.303978 A    
C64   N1    1.438857 S    
C70   H31   1.112628 S    
C22   H2    1.076787 S    
C35   C36   1.551632 S    
C6    C21   1.393645 A    
C21   H3    1.083778 S    
C69   H29   1.112221 S    
O15   C67   1.300058 A    
C17   O27   1.384162 S    
C56   C57   1.390940 A    
C24   C32   1.553855 S    
C70   H32   1.113680 S    
N1    O23   1.301377 A    
C24   C28   1.547048 S    
O21   C69   1.408899 S    
C41   C43   1.551569 S    
C56   O26   1.380903 S    
C59   H23   1.084298 S    
C9    C10   1.429357 A    
C49   C53   1.400112 A    
C14   H7    1.075979 S    
C2    C48   1.472942 S    
C5    C9    1.408807 A    
