data_mof_unit_63722.cif
_audit_creation_date              2013-03-05T16:30:07-0500
_audit_creation_method            fapswitch 2.2
_symmetry_space_group_name_H-M    P1
_symmetry_Int_Tables_number       1
_space_group_crystal_system       triclinic
_cell_length_a                    41.863589
_cell_length_b                    35.646605
_cell_length_c                    21.951719
_cell_angle_alpha                 90.215723
_cell_angle_beta                  121.710686
_cell_angle_gamma                 89.904796
_cell_volume                      27867.831372

loop_
_atom_site_label
_atom_site_type_symbol
_atom_site_description
_atom_site_fract_x
_atom_site_fract_y
_atom_site_fract_z
_atom_type_partial_charge
O1    O     O_R   0.445630 0.531460 0.945630 -0.591929
O2    O     O_R   0.554370 0.531460 0.054370 -0.588964
O3    O     O_R   0.945630 0.031460 0.945630 -0.591933
O4    O     O_R   0.054370 0.031460 0.054370 -0.588961
O5    O     O_R   0.445610 0.468530 0.945600 -0.589278
O6    O     O_R   0.554390 0.468530 0.054400 -0.592190
O7    O     O_R   0.945610 0.968530 0.945600 -0.589279
O8    O     O_R   0.054390 0.968530 0.054400 -0.592190
C1    C     C_R   0.427598 0.499985 0.927795 0.789686
C2    C     C_R   0.572401 0.499992 0.072202 0.789706
C3    C     C_R   0.927598 0.999985 0.927795 0.789680
C4    C     C_R   0.072401 0.999992 0.072202 0.789704
O9    O     O_R   0.500010 0.531460 0.910980 -0.587040
O10   O     O_R   0.499990 0.531460 0.089020 -0.578298
O11   O     O_R   0.000010 0.031460 0.910980 -0.587040
O12   O     O_R   0.999990 0.031460 0.089020 -0.578300
O13   O     O_R   0.499990 0.468530 0.910950 -0.578372
O14   O     O_R   0.500010 0.468530 0.089050 -0.587172
O15   O     O_R   0.999990 0.968530 0.910950 -0.578369
O16   O     O_R   0.000010 0.968530 0.089050 -0.587170
C5    C     C_R   0.501828 0.499926 0.884181 0.875763
C6    C     C_R   0.498171 0.500067 0.115819 0.875744
C7    C     C_R   0.001825 0.999927 0.884179 0.875765
C8    C     C_R   0.998170 0.000067 0.115818 0.875745
Cu1   Cu    Cu3+1 0.500000 0.537250 0.000000 0.935213
Cu2   Cu    Cu3+1 0.000000 0.037250 0.000000 0.935211
Cu3   Cu    Cu3+1 0.500000 0.462730 0.000000 0.935021
Cu4   Cu    Cu3+1 0.000000 0.962730 0.000000 0.935029
C9    C     C_R   0.465668 0.673098 0.463775 0.164988
C10   C     C_R   0.534329 0.673140 0.534490 0.163778
C11   C     C_R   0.965670 0.173098 0.463639 0.164993
C12   C     C_R   0.034327 0.173141 0.534623 0.163778
C13   C     C_R   0.999996 0.386349 0.499654 -0.036493
C14   C     C_R   0.499996 0.886349 0.499654 -0.036492
C15   C     C_1   0.499990 0.733448 0.498983 -0.029582
C16   C     C_1   0.999989 0.233448 0.498982 -0.029580
C17   C     C_R   0.500005 0.613859 0.499588 -0.123897
C18   C     C_R   0.000005 0.113859 0.499588 -0.123890
C19   C     C_2   0.527712 0.478492 0.744779 0.180686
C20   C     C_2   0.472305 0.521529 0.255247 0.180441
C21   C     C_2   0.027738 0.978525 0.744813 0.180713
C22   C     C_2   0.972314 0.021540 0.255258 0.180438
C23   C     C_2   0.499163 0.492655 0.682786 -0.368184
C24   C     C_2   0.500840 0.507330 0.317218 -0.368126
C25   C     C_2   0.999168 0.992642 0.682791 -0.368235
C26   C     C_2   0.000841 0.007326 0.317219 -0.368105
H1    H     H_    0.472247 0.497699 0.677786 0.132431
H2    H     H_    0.527749 0.502258 0.322208 0.132444
H3    H     H_    0.972242 0.997642 0.677776 0.132445
H4    H     H_    0.027748 0.002239 0.322205 0.132440
C27   C     C_2   0.521233 0.472058 0.803962 0.180982
C28   C     C_2   0.478786 0.527955 0.196063 0.180905
C29   C     C_2   0.021267 0.972084 0.804003 0.180954
C30   C     C_2   0.978797 0.027963 0.196076 0.180916
C31   C     C_2   0.507297 0.500695 0.823640 -0.368502
C32   C     C_2   0.492696 0.499305 0.176356 -0.368687
C33   C     C_2   0.007285 0.000699 0.823628 -0.368453
C34   C     C_2   0.992692 0.999307 0.176352 -0.368704
H5    H     H_    0.502432 0.527615 0.796959 0.132552
H6    H     H_    0.497542 0.472382 0.203019 0.132467
H7    H     H_    0.002375 0.027610 0.796898 0.132538
H8    H     H_    0.997524 0.972381 0.203000 0.132471
C35   C     C_R   0.172272 0.478131 0.710050 -0.206538
C36   C     C_R   0.827713 0.478114 0.289678 -0.206623
C37   C     C_R   0.672272 0.978132 0.710052 -0.206539
C38   C     C_R   0.327713 0.978117 0.289672 -0.206626
H9    H     H_    0.186840 0.458650 0.754163 0.151246
H10   H     H_    0.813132 0.458626 0.245324 0.150995
H11   H     H_    0.686840 0.958652 0.754167 0.151247
H12   H     H_    0.313132 0.958632 0.245314 0.150994
C39   C     C_R   0.133242 0.478641 0.670915 -0.244146
C40   C     C_R   0.866743 0.478627 0.328819 -0.244155
C41   C     C_R   0.633242 0.978642 0.670917 -0.244145
C42   C     C_R   0.366743 0.978630 0.328814 -0.244154
C43   C     C_R   0.113502 0.503417 0.613543 -0.066551
C44   C     C_R   0.886501 0.503411 0.386499 -0.066466
C45   C     C_R   0.613502 0.003416 0.613543 -0.066553
C46   C     C_R   0.386500 0.003411 0.386499 -0.066471
C47   C     C_R   0.133488 0.529200 0.596351 0.166463
C48   C     C_R   0.866532 0.529200 0.404011 0.166502
C49   C     C_R   0.633488 0.029198 0.596349 0.166466
C50   C     C_R   0.366532 0.029197 0.404016 0.166504
C51   C     C_R   0.173430 0.527518 0.634681 0.204147
C52   C     C_R   0.826588 0.527517 0.365658 0.204178
C53   C     C_R   0.673430 0.027517 0.634679 0.204146
C54   C     C_R   0.326588 0.027513 0.365664 0.204178
C55   C     C_R   0.192435 0.502052 0.692164 0.089412
C56   C     C_R   0.807566 0.502041 0.307860 0.089546
C57   C     C_R   0.692435 0.002052 0.692164 0.089412
C58   C     C_R   0.307566 0.002041 0.307860 0.089547
C59   C     C_1   0.232917 0.500487 0.734213 -0.034569
C60   C     C_1   0.767083 0.500475 0.265790 -0.034570
C61   C     C_1   0.732916 0.000487 0.734213 -0.034569
C62   C     C_1   0.267083 0.000475 0.265789 -0.034571
C63   C     C_1   0.266734 0.499876 0.768686 -0.068111
C64   C     C_1   0.733265 0.499867 0.231311 -0.068119
C65   C     C_1   0.766734 0.999876 0.768686 -0.068110
C66   C     C_1   0.233265 0.999867 0.231310 -0.068121
C67   C     C_R   0.326786 0.465863 0.828438 -0.159777
C68   C     C_R   0.673177 0.465873 0.170078 -0.159773
C69   C     C_R   0.826786 0.965863 0.828436 -0.159779
C70   C     C_R   0.173177 0.965873 0.170069 -0.159772
C71   C     C_R   0.366035 0.465884 0.867080 -0.189867
C72   C     C_R   0.633929 0.465899 0.131438 -0.194023
C73   C     C_R   0.866035 0.965884 0.867077 -0.189867
C74   C     C_R   0.133929 0.965899 0.131429 -0.194035
C75   C     C_R   0.386063 0.499930 0.886895 -0.034654
C76   C     C_R   0.613936 0.499940 0.113098 -0.034597
C77   C     C_R   0.886063 0.999930 0.886895 -0.034650
C78   C     C_R   0.113936 0.999940 0.113097 -0.034601
C79   C     C_R   0.365981 0.533907 0.867361 -0.195239
C80   C     C_R   0.634054 0.533909 0.134111 -0.191057
C81   C     C_R   0.865981 0.033907 0.867363 -0.195235
C82   C     C_R   0.134054 0.033909 0.134117 -0.191055
C83   C     C_R   0.326742 0.533802 0.828709 -0.157327
C84   C     C_R   0.673292 0.533799 0.172773 -0.157284
C85   C     C_R   0.826742 0.033802 0.828711 -0.157328
C86   C     C_R   0.173292 0.033799 0.172779 -0.157285
C87   C     C_R   0.307093 0.499806 0.809179 0.145364
C88   C     C_R   0.692906 0.499808 0.190824 0.145389
C89   C     C_R   0.807093 0.999806 0.809179 0.145364
C90   C     C_R   0.192906 0.999807 0.190822 0.145390
C91   C     C_R   0.499995 0.692917 0.499038 0.112163
C92   C     C_R   0.999995 0.192917 0.499036 0.112164
C93   C     C_R   0.466018 0.633756 0.464406 -0.197084
C94   C     C_R   0.533987 0.633797 0.534393 -0.192719
C95   C     C_R   0.966020 0.133755 0.464274 -0.197087
C96   C     C_R   0.033986 0.133798 0.534523 -0.192719
C97   C     C_1   0.999987 0.267217 0.499039 -0.069065
C98   C     C_1   0.499988 0.767217 0.499040 -0.069065
C99   C     C_R   0.999988 0.307496 0.499223 0.145792
C100  C     C_R   0.499989 0.807496 0.499224 0.145792
O17   O     O_R   0.531450 0.445630 0.531430 -0.592262
O18   O     O_R   0.468550 0.445630 0.468570 -0.589228
O19   O     O_R   0.031450 0.945630 0.531430 -0.592264
O20   O     O_R   0.968550 0.945630 0.468570 -0.589232
C101  C     C_R   0.499996 0.427611 0.500090 0.790091
C102  C     C_R   0.999996 0.927611 0.500089 0.790096
O21   O     O_R   0.531450 0.499990 0.620480 -0.578716
O22   O     O_R   0.468550 0.499990 0.379520 -0.578783
O23   O     O_R   0.031450 0.999990 0.620480 -0.578729
O24   O     O_R   0.968550 0.999990 0.379520 -0.578788
O25   O     O_R   0.468510 0.499990 0.557540 -0.587351
O26   O     O_R   0.531490 0.499990 0.442460 -0.587331
O27   O     O_R   0.968510 0.999990 0.557540 -0.587342
O28   O     O_R   0.031490 0.999990 0.442460 -0.587325
C103  C     C_R   0.500011 0.498147 0.617655 0.875755
C104  C     C_R   0.499989 0.501838 0.382347 0.875566
C105  C     C_R   0.000012 0.998144 0.617656 0.875752
C106  C     C_R   0.999989 0.001837 0.382347 0.875567
Cu5   Cu    Cu3+1 0.537260 0.499990 0.537250 0.935547
Cu6   Cu    Cu3+1 0.462740 0.499990 0.462750 0.935505
Cu7   Cu    Cu3+1 0.037260 0.999990 0.537250 0.935539
Cu8   Cu    Cu3+1 0.962740 0.999990 0.462750 0.935512
O29   O     O_R   0.531470 0.554350 0.531480 -0.589480
O30   O     O_R   0.468530 0.554350 0.468520 -0.592536
O31   O     O_R   0.031470 0.054350 0.531480 -0.589480
O32   O     O_R   0.968530 0.054350 0.468520 -0.592528
C107  C     C_R   0.500004 0.572359 0.499902 0.814905
C108  C     C_R   0.000004 0.072359 0.499902 0.814907
O33   O     O_R   0.999980 0.445730 0.448470 -0.586565
O34   O     O_R   0.000020 0.445730 0.551530 -0.586484
O35   O     O_R   0.499980 0.945730 0.448470 -0.586566
O36   O     O_R   0.500020 0.945730 0.551530 -0.586485
C109  C     C_R   0.999999 0.427826 0.499896 0.789469
C110  C     C_R   0.499999 0.927827 0.499896 0.789471
O37   O     O_R   0.054370 0.500090 0.502830 -0.574626
O38   O     O_R   0.945630 0.500090 0.497170 -0.574654
O39   O     O_R   0.554370 0.000090 0.502830 -0.574626
O40   O     O_R   0.445630 0.000090 0.497170 -0.574654
O41   O     O_R   0.054360 0.500110 0.605880 -0.581275
O42   O     O_R   0.945640 0.500110 0.394120 -0.581241
O43   O     O_R   0.554360 0.000110 0.605880 -0.581276
O44   O     O_R   0.445640 0.000110 0.394120 -0.581243
C111  C     C_R   0.072133 0.501279 0.572155 0.804470
C112  C     C_R   0.927868 0.501277 0.427860 0.804453
C113  C     C_R   0.572133 0.001279 0.572155 0.804471
C114  C     C_R   0.427868 0.001277 0.427860 0.804454
Cu9   Cu    Cu3+1 0.000000 0.500090 0.438970 0.941520
Cu10  Cu    Cu3+1 0.000000 0.500090 0.561030 0.941484
Cu11  Cu    Cu3+1 0.500000 0.000090 0.438970 0.941519
Cu12  Cu    Cu3+1 0.500000 0.000090 0.561030 0.941483
O45   O     O_R   0.000010 0.554450 0.448450 -0.589531
O46   O     O_R   0.999990 0.554450 0.551550 -0.589693
O47   O     O_R   0.500010 0.054450 0.448450 -0.589530
O48   O     O_R   0.499990 0.054450 0.551550 -0.589693
C115  C     C_R   0.000002 0.572355 0.500104 0.768983
C116  C     C_R   0.500002 0.072355 0.500104 0.768984
C117  C     C_R   0.002112 0.673072 0.447695 -0.158989
C118  C     C_R   0.997908 0.673119 0.553590 -0.159154
C119  C     C_R   0.502122 0.173072 0.447706 -0.158986
C120  C     C_R   0.497898 0.173119 0.553580 -0.159154
H13   H     H_    0.003764 0.688027 0.406552 0.132352
H14   H     H_    0.996256 0.688111 0.594879 0.132131
H15   H     H_    0.503781 0.188027 0.406572 0.132351
H16   H     H_    0.496238 0.188111 0.594861 0.132130
C121  C     C_R   0.002103 0.633866 0.447420 -0.191559
C122  C     C_R   0.997914 0.633908 0.553467 -0.191750
C123  C     C_R   0.502112 0.133867 0.447431 -0.191562
C124  C     C_R   0.497904 0.133908 0.553457 -0.191752
H17   H     H_    0.003805 0.619275 0.405862 0.154552
H18   H     H_    0.996209 0.619347 0.594872 0.154368
H19   H     H_    0.503823 0.119276 0.405882 0.154551
H20   H     H_    0.496192 0.119346 0.594853 0.154366
C125  C     C_R   0.000006 0.613849 0.500339 -0.033069
C126  C     C_R   0.500006 0.113849 0.500339 -0.033066
C127  C     C_R   0.000010 0.692754 0.500739 0.146157
C128  C     C_R   0.500010 0.192754 0.500739 0.146158
C129  C     C_1   0.000006 0.733084 0.500902 -0.065924
C130  C     C_1   0.500007 0.233084 0.500903 -0.065925
C131  C     C_1   0.500004 0.266881 0.500946 -0.066125
C132  C     C_1   0.000003 0.766881 0.500945 -0.066124
C133  C     C_R   0.466000 0.326852 0.466085 -0.159095
C134  C     C_R   0.533997 0.326888 0.535498 -0.159122
C135  C     C_R   0.966000 0.826852 0.466088 -0.159093
C136  C     C_R   0.033997 0.826888 0.535493 -0.159123
H21   H     H_    0.439526 0.311865 0.439129 0.132287
H22   H     H_    0.560473 0.311928 0.562605 0.131952
H23   H     H_    0.939526 0.811865 0.439135 0.132287
H24   H     H_    0.060473 0.811928 0.562597 0.131952
C137  C     C_R   0.465956 0.366061 0.465803 -0.191041
C138  C     C_R   0.534035 0.366096 0.535293 -0.195284
C139  C     C_R   0.965956 0.866061 0.465806 -0.191044
C140  C     C_R   0.034035 0.866096 0.535288 -0.195273
C141  C     C_R   0.499994 0.386115 0.500379 -0.034462
C142  C     C_R   0.999994 0.886115 0.500378 -0.034456
C143  C     C_R   0.500000 0.307211 0.500889 0.146439
C144  C     C_R   1.000000 0.807211 0.500888 0.146439
C145  C     C_R   0.000169 0.327143 0.554673 -0.159269
C146  C     C_R   0.999811 0.327109 0.443983 -0.159394
C147  C     C_R   0.500174 0.827143 0.554679 -0.159269
C148  C     C_R   0.499807 0.827109 0.443979 -0.159394
H25   H     H_    0.000308 0.312172 0.597681 0.131482
H26   H     H_    0.999670 0.312111 0.400816 0.131263
H27   H     H_    0.500317 0.812172 0.597690 0.131482
H28   H     H_    0.499662 0.812111 0.400809 0.131263
C149  C     C_R   0.000171 0.366335 0.554957 -0.191951
C150  C     C_R   0.999816 0.366305 0.444128 -0.192079
C151  C     C_R   0.500176 0.866335 0.554963 -0.191951
C152  C     C_R   0.499812 0.866305 0.444124 -0.192079
H29   H     H_    0.000316 0.380916 0.598464 0.153892
H30   H     H_    0.999674 0.380864 0.400784 0.153728
H31   H     H_    0.500325 0.880916 0.598473 0.153892
H32   H     H_    0.499666 0.880865 0.400775 0.153728
C153  C     C_3   0.428620 0.693536 0.425450 -0.872657
H33   H     H_    0.404460 0.673821 0.400643 0.227515
H34   H     H_    0.426061 0.711642 0.463947 0.237254
H35   H     H_    0.426968 0.711271 0.382404 0.236183
C154  C     C_3   0.571372 0.693625 0.572505 -0.871019
H36   H     H_    0.595538 0.673941 0.597471 0.227861
H37   H     H_    0.573888 0.711373 0.533764 0.236838
H38   H     H_    0.573056 0.711724 0.615384 0.236649
C155  C     C_3   0.928623 0.193534 0.425163 -0.872661
H39   H     H_    0.904465 0.173818 0.400259 0.227513
H40   H     H_    0.926000 0.211641 0.463585 0.237263
H41   H     H_    0.927036 0.211269 0.382174 0.236174
C156  C     C_3   0.071369 0.193626 0.572788 -0.871021
H42   H     H_    0.095533 0.173942 0.597852 0.227860
H43   H     H_    0.073949 0.211375 0.534122 0.236847
H44   H     H_    0.072989 0.211725 0.615611 0.236640
H45   H     H_    0.311818 0.439395 0.813467 0.131273
H46   H     H_    0.688117 0.439407 0.183883 0.130912
H47   H     H_    0.811818 0.939395 0.813463 0.131274
H48   H     H_    0.188117 0.939407 0.183867 0.130913
H49   H     H_    0.380656 0.439256 0.881332 0.153280
H50   H     H_    0.619279 0.439278 0.115982 0.152307
H51   H     H_    0.880656 0.939257 0.881328 0.153282
H52   H     H_    0.119279 0.939278 0.115967 0.152309
H53   H     H_    0.380549 0.560575 0.881842 0.152319
H54   H     H_    0.619513 0.560572 0.120828 0.153178
H55   H     H_    0.880549 0.060575 0.881845 0.152318
H56   H     H_    0.119513 0.060572 0.120841 0.153178
H57   H     H_    0.311728 0.560236 0.813927 0.131024
H58   H     H_    0.688335 0.560225 0.188720 0.131323
H59   H     H_    0.811728 0.060236 0.813931 0.131024
H60   H     H_    0.188336 0.060224 0.188732 0.131323
H61   H     H_    0.439635 0.618619 0.437290 0.162386
H62   H     H_    0.560374 0.618692 0.561671 0.163226
H63   H     H_    0.939638 0.118618 0.437053 0.162374
H64   H     H_    0.060371 0.118693 0.561907 0.163220
H65   H     H_    0.439286 0.380632 0.438479 0.153379
H66   H     H_    0.560704 0.380695 0.562457 0.152458
H67   H     H_    0.939286 0.880632 0.438485 0.153380
H68   H     H_    0.060704 0.880695 0.562449 0.152456
C157  C     C_3   0.565523 0.468356 0.755930 -0.792368
H69   H     H_    0.584806 0.457269 0.810604 0.218134
H70   H     H_    0.562151 0.446563 0.716673 0.230081
H71   H     H_    0.579160 0.493703 0.750435 0.240418
C158  C     C_3   0.434513 0.531717 0.244132 -0.791903
H72   H     H_    0.415239 0.542833 0.189477 0.218297
H73   H     H_    0.420842 0.506388 0.249594 0.240182
H74   H     H_    0.437921 0.553503 0.283427 0.230424
C159  C     C_3   0.065573 0.968464 0.756004 -0.792311
H75   H     H_    0.084875 0.957420 0.810707 0.218119
H76   H     H_    0.062251 0.946659 0.716804 0.230115
H77   H     H_    0.079162 0.993837 0.750458 0.240392
C160  C     C_3   0.934530 0.031753 0.244157 -0.791934
H78   H     H_    0.915263 0.042884 0.189513 0.218302
H79   H     H_    0.920842 0.006433 0.249602 0.240192
H80   H     H_    0.937955 0.053535 0.283472 0.230401
C161  C     C_3   0.531076 0.434197 0.840263 -0.792962
H81   H     H_    0.505611 0.420798 0.834060 0.240175
H82   H     H_    0.541960 0.414833 0.815609 0.218083
H83   H     H_    0.552965 0.437376 0.897891 0.230212
C162  C     C_3   0.468980 0.565826 0.159802 -0.792464
H84   H     H_    0.494457 0.579198 0.166005 0.240089
H85   H     H_    0.447082 0.562670 0.102175 0.230363
H86   H     H_    0.458124 0.585203 0.184488 0.218224
C163  C     C_3   0.031185 0.934246 0.840395 -0.792994
H87   H     H_    0.005745 0.920797 0.834214 0.240190
H88   H     H_    0.042112 0.914900 0.815794 0.218093
H89   H     H_    0.053063 0.937475 0.898018 0.230176
C164  C     C_3   0.969015 0.065842 0.159844 -0.792456
H90   H     H_    0.994500 0.079198 0.166053 0.240086
H91   H     H_    0.947113 0.062702 0.102215 0.230373
H92   H     H_    0.958173 0.085225 0.184546 0.218220
H93   H     H_    0.118288 0.459158 0.684928 0.158457
H94   H     H_    0.881684 0.459139 0.314565 0.158324
H95   H     H_    0.618288 0.959160 0.684932 0.158458
H96   H     H_    0.381684 0.959145 0.314555 0.158327
C165  C     C_3   0.112967 0.559662 0.541118 -0.858891
H97   H     H_    0.125780 0.587377 0.564222 0.229748
H98   H     H_    0.114553 0.553961 0.493026 0.236917
H99   H     H_    0.083078 0.562512 0.524159 0.233548
C166  C     C_3   0.887074 0.559669 0.459624 -0.858906
H100  H     H_    0.874283 0.587382 0.436863 0.229862
H101  H     H_    0.885479 0.553979 0.507641 0.236865
H102  H     H_    0.916967 0.562515 0.476628 0.233607
C167  C     C_3   0.612967 0.059660 0.541114 -0.858892
H103  H     H_    0.625781 0.087375 0.564215 0.229748
H104  H     H_    0.614552 0.053957 0.493021 0.236917
H105  H     H_    0.583079 0.062512 0.524157 0.233547
C168  C     C_3   0.387074 0.059664 0.459634 -0.858905
H106  H     H_    0.374280 0.087377 0.436880 0.229861
H107  H     H_    0.385482 0.053969 0.507653 0.236865
H108  H     H_    0.416965 0.062513 0.476633 0.233605
C169  C     C_3   0.196446 0.552507 0.616217 -0.877139
H109  H     H_    0.179481 0.569470 0.567340 0.238620
H110  H     H_    0.213782 0.571926 0.661535 0.231556
H111  H     H_    0.215336 0.534926 0.606678 0.234112
C170  C     C_3   0.803589 0.552514 0.384429 -0.877011
H112  H     H_    0.820566 0.569487 0.433514 0.238645
H113  H     H_    0.786266 0.571925 0.339350 0.231682
H114  H     H_    0.784688 0.534938 0.393753 0.234035
C171  C     C_3   0.696446 0.052504 0.616212 -0.877139
H115  H     H_    0.679481 0.069465 0.567332 0.238620
H116  H     H_    0.713782 0.071925 0.661526 0.231557
H117  H     H_    0.715337 0.034921 0.606675 0.234113
C172  C     C_3   0.303589 0.052506 0.384442 -0.877009
H118  H     H_    0.320566 0.069474 0.433533 0.238644
H119  H     H_    0.286267 0.071920 0.339369 0.231681
H120  H     H_    0.284687 0.034927 0.393760 0.234035

loop_
_geom_bond_atom_site_label_1
_geom_bond_atom_site_label_2
_geom_bond_distance
_ccdc_geom_bond_type
C67   C71   1.397874 A    
O17   C101  1.291083 A    
C31   H5    1.087905 S    
C167  H104  1.110075 S    
O37   Cu9   1.947195 S    
O17   Cu5   1.948690 S    
C169  H109  1.106176 S    
C139  C142  1.407097 A    
C168  H106  1.110380 S    
C37   C57   1.395382 A    
C94   H62   1.083405 S    
O40   C114  1.296397 A    
C48   C166  1.516249 S    
C16   C92   1.444797 S    
Cu8   O32   1.948616 S    
O26   Cu5   1.964611 S    
C55   C59   1.443169 S    
C161  H83   1.110610 S    
C137  C141  1.407095 A    
C152  H32   1.082812 S    
C135  C144  1.399051 A    
C102  C142  1.479222 S    
C134  C138  1.397688 A    
O28   C106  1.286722 A    
Cu6   O30   1.948616 S    
C29   C163  1.512399 S    
O4    C4    1.292725 A    
C14   C152  1.407150 A    
O22   Cu6   1.965809 S    
Cu9   O45   1.948090 S    
C138  H66   1.082844 S    
C163  H88   1.110108 S    
C153  H33   1.110794 S    
C54   C58   1.414278 A    
C5    C31   1.462712 S    
C6    C32   1.462766 S    
O16   Cu4   1.964711 S    
C63   C87   1.437334 S    
O38   Cu10  1.947199 S    
O13   C5    1.287066 A    
O7    Cu4   1.948124 S    
C30   C164  1.512404 S    
O15   C7    1.287077 A    
C136  C140  1.397688 A    
O34   C109  1.298278 A    
C83   H57   1.083605 S    
O9    C5    1.287326 A    
C20   C158  1.512445 S    
C171  H117  1.110600 S    
C99   C146  1.398638 A    
C40   H94   1.083702 S    
C35   C39   1.390118 A    
O43   Cu12  1.947503 S    
O31   C108  1.291700 A    
O8    Cu4   1.947966 S    
C145  C149  1.397063 A    
C169  H111  1.110600 S    
C168  H108  1.106667 S    
C117  C121  1.397544 A    
Cu11  O47   1.948090 S    
O3    Cu2   1.947223 S    
C52   C56   1.414281 A    
O11   Cu2   1.964457 S    
C18   C96   1.403343 A    
C33   H7    1.087914 S    
C22   C160  1.512447 S    
C157  H70   1.110617 S    
C140  H68   1.082843 S    
C146  H26   1.083553 S    
C27   C31   1.352251 D    
C120  C124  1.397714 A    
O3    C3    1.292570 A    
C67   C87   1.398788 A    
C160  H78   1.110097 S    
C67   H45   1.083510 S    
C165  H97   1.110382 S    
C153  H35   1.110422 S    
C21   C25   1.352299 D    
C71   C75   1.407492 A    
C43   C47   1.422787 A    
O33   C109  1.298526 A    
Cu10  O46   1.949646 S    
C21   C159  1.512436 S    
C19   C27   1.478810 S    
C172  H118  1.106178 S    
C9    C93   1.402520 A    
O35   Cu11  1.949771 S    
C2    C76   1.479304 S    
C47   C165  1.516249 S    
C11   C95   1.402524 A    
C85   H59   1.083605 S    
C158  H74   1.110631 S    
C86   H60   1.083608 S    
C38   H12   1.083835 S    
C19   C157  1.512431 S    
C154  H36   1.110790 S    
C136  C144  1.399048 A    
C36   H10   1.083834 S    
C22   C26   1.352240 D    
C155  H39   1.110792 S    
C164  H91   1.110608 S    
C38   C42   1.390117 A    
C60   C64   1.204648 T    
C156  H42   1.110789 S    
C86   C90   1.399172 A    
C166  H101  1.110075 S    
C101  C141  1.479222 S    
C13   C150  1.407153 A    
O5    Cu3   1.948124 S    
C162  H85   1.110614 S    
C122  H18   1.082823 S    
O33   Cu9   1.949771 S    
C78   C82   1.406788 A    
O34   Cu10  1.948207 S    
O8    C4    1.291833 A    
C71   H49   1.082822 S    
O40   Cu12  1.947199 S    
C160  H79   1.109862 S    
C41   H95   1.083699 S    
C123  H19   1.082822 S    
C145  H25   1.083566 S    
C42   H96   1.083701 S    
O39   C113  1.296395 A    
O7    C3    1.291996 A    
C170  H113  1.110411 S    
O29   C107  1.291700 A    
O13   Cu3   1.966261 S    
C13   C149  1.407110 A    
C134  H22   1.083533 S    
C27   C161  1.512399 S    
C138  C141  1.407128 A    
C45   C113  1.475242 S    
C84   C88   1.399172 A    
O5    C1    1.291996 A    
C159  H75   1.110108 S    
O15   Cu4   1.966261 S    
C124  H20   1.082822 S    
C165  H99   1.106666 S    
C115  C125  1.479110 S    
C158  H72   1.110099 S    
O24   Cu8   1.965809 S    
C134  C143  1.399046 A    
C15   C98   1.203739 T    
C21   C29   1.478800 S    
C81   C85   1.397509 A    
O27   Cu8   1.964614 S    
C172  H120  1.110601 S    
C83   C87   1.399162 A    
C172  H119  1.110413 S    
C100  C147  1.398602 A    
C61   C65   1.204645 T    
C80   C84   1.397521 A    
O37   C111  1.296395 A    
C17   C94   1.403342 A    
C66   C90   1.437339 S    
C73   C77   1.407494 A    
C154  H38   1.110420 S    
C49   C167  1.516248 S    
O14   C6    1.287360 A    
C75   C79   1.406832 A    
C50   C168  1.516249 S    
C13   C109  1.478529 S    
C81   H55   1.082844 S    
C82   H56   1.082829 S    
C155  H41   1.110425 S    
C151  H31   1.082814 S    
C1    C75   1.479316 S    
C74   H52   1.082832 S    
Cu5   O29   1.948764 S    
O46   C115  1.299523 A    
C149  H29   1.082812 S    
C156  H44   1.110426 S    
C17   C107  1.479355 S    
C15   C91   1.444797 S    
C18   C108  1.479355 S    
C14   C110  1.478532 S    
C39   H93   1.083699 S    
O23   Cu7   1.965812 S    
C23   H1    1.087887 S    
O21   Cu5   1.965812 S    
C160  H80   1.110632 S    
C57   C61   1.443166 S    
C119  H15   1.083536 S    
C59   C63   1.204645 T    
C117  H13   1.083535 S    
C118  C127  1.399043 A    
C20   C24   1.352252 D    
C10   C91   1.411859 A    
C127  C129  1.437636 S    
C28   C162  1.512397 S    
C147  H27   1.083565 S    
C95   H63   1.083417 S    
C96   H64   1.083402 S    
C49   C53   1.424267 A    
O42   C112  1.297222 A    
C34   H8    1.087903 S    
C51   C55   1.414276 A    
C121  C125  1.407115 A    
C48   C52   1.424270 A    
O18   C101  1.291255 A    
C38   C58   1.395384 A    
Cu11  Cu12  2.679427 S    
C116  C126  1.479106 S    
C120  H16   1.083522 S    
C11   C92   1.411847 A    
C159  H77   1.109886 S    
C74   C78   1.407530 A    
C163  H89   1.110622 S    
C62   C66   1.204648 T    
C129  C132  1.204727 T    
O38   C112  1.296397 A    
Cu12  O48   1.949646 S    
C41   C45   1.400309 A    
C133  C137  1.397702 A    
Cu5   Cu6   2.653952 S    
C171  H116  1.110412 S    
O44   C114  1.297222 A    
C12   C96   1.402547 A    
C99   C145  1.398602 A    
C168  H107  1.110076 S    
C122  C125  1.407144 A    
O32   C108  1.291529 A    
C51   C169  1.517326 S    
C4    C78   1.479304 S    
C169  H110  1.110413 S    
C58   C62   1.443169 S    
C139  H67   1.082833 S    
C161  H82   1.110100 S    
O12   Cu2   1.966003 S    
C11   C155  1.507703 S    
C43   C111  1.475242 S    
C44   C48   1.422787 A    
C44   C112  1.475241 S    
O35   C110  1.298526 A    
O1    C1    1.292570 A    
C80   H54   1.082831 S    
C53   C57   1.414276 A    
C50   C54   1.424267 A    
C123  C126  1.407117 A    
C69   C89   1.398789 A    
C76   C80   1.406788 A    
C135  C139  1.397702 A    
C98   C100  1.435818 S    
C157  H69   1.110097 S    
C133  C143  1.399053 A    
C135  H23   1.083534 S    
O20   Cu8   1.948842 S    
C25   H3    1.087895 S    
O18   Cu6   1.948842 S    
C14   C151  1.407107 A    
O39   Cu11  1.947195 S    
O25   Cu6   1.964614 S    
C153  H34   1.110429 S    
C73   H51   1.082819 S    
C79   H53   1.082839 S    
O48   C116  1.299523 A    
C72   C76   1.407527 A    
C118  C122  1.397710 A    
C26   H4    1.087893 S    
C29   C33   1.352234 D    
C46   C114  1.475244 S    
C9    C153  1.507704 S    
C161  H81   1.109861 S    
C72   H50   1.082831 S    
O6    C2    1.291834 A    
O4    Cu2   1.947374 S    
C10   C154  1.507711 S    
O24   C106  1.286420 A    
C16   C97   1.203732 T    
C22   C30   1.478848 S    
C47   C51   1.424270 A    
O10   C6    1.287062 A    
C164  H90   1.109872 S    
O28   Cu7   1.964611 S    
C93   H61   1.083417 S    
C117  C127  1.398979 A    
C37   H11   1.083835 S    
C9    C91   1.411846 A    
C137  H65   1.082832 S    
O2    Cu1   1.947374 S    
O10   Cu1   1.966003 S    
Cu7   O31   1.948764 S    
C166  H100  1.110382 S    
O36   Cu12  1.948207 S    
Cu9   Cu10  2.679427 S    
C132  C144  1.437650 S    
C32   H6    1.087908 S    
C8    C34   1.462780 S    
C162  H84   1.109877 S    
C42   C46   1.400309 A    
C70   C90   1.398787 A    
C36   C56   1.395378 A    
O27   C105  1.286795 A    
O19   C102  1.291082 A    
C24   H2    1.087895 S    
C10   C94   1.402544 A    
C54   C172  1.517331 S    
C3    C77   1.479316 S    
C167  H103  1.110382 S    
C12   C92   1.411857 A    
C148  H28   1.083554 S    
O26   C104  1.286735 A    
O22   C104  1.286414 A    
C18   C95   1.403381 A    
O23   C105  1.286382 A    
C163  H87   1.109881 S    
O25   C103  1.286757 A    
O21   C103  1.286400 A    
C12   C156  1.507709 S    
C119  C123  1.397544 A    
C157  H71   1.109855 S    
O45   C115  1.299239 A    
C37   C41   1.390119 A    
C147  C151  1.397063 A    
C46   C50   1.422786 A    
C85   C89   1.399165 A    
C158  H73   1.109871 S    
C68   C72   1.397867 A    
C56   C60   1.443172 S    
C165  H98   1.110075 S    
C65   C89   1.437334 S    
C121  H17   1.082823 S    
C68   C88   1.398786 A    
C45   C49   1.422790 A    
C77   C81   1.406829 A    
O11   C7    1.287293 A    
O12   C8    1.287056 A    
C131  C143  1.437654 S    
O1    Cu1   1.947223 S    
C120  C128  1.399041 A    
O9    Cu1   1.964457 S    
C100  C148  1.398639 A    
O44   Cu11  1.947510 S    
C17   C93   1.403384 A    
C69   C73   1.397874 A    
C35   H9    1.083838 S    
C154  H37   1.110435 S    
O16   C8    1.287373 A    
O20   C102  1.291255 A    
C155  H40   1.110432 S    
C133  H21   1.083533 S    
O47   C116  1.299239 A    
C19   C23   1.352257 D    
C20   C28   1.478847 S    
O41   C111  1.297227 A    
C156  H43   1.110436 S    
C166  H102  1.106668 S    
O6    Cu3   1.947966 S    
O43   C113  1.297227 A    
C162  H86   1.110105 S    
C40   C44   1.400309 A    
C84   H58   1.083609 S    
C82   C86   1.397524 A    
C7    C33   1.462669 S    
C26   C106  1.462601 S    
C68   H46   1.083507 S    
C69   H47   1.083505 S    
C167  H105  1.106666 S    
C70   H48   1.083505 S    
O41   Cu10  1.947503 S    
C146  C150  1.397203 A    
O2    C2    1.292726 A    
C53   C171  1.517328 S    
O42   Cu9   1.947510 S    
C30   C34   1.352310 D    
C170  H114  1.110599 S    
C124  C126  1.407142 A    
C35   C55   1.395376 A    
C64   C88   1.437339 S    
O30   C107  1.291529 A    
O14   Cu3   1.964711 S    
C140  C142  1.407129 A    
Cu1   Cu3   2.656389 S    
C150  H30   1.082810 S    
Cu2   Cu4   2.656389 S    
O19   Cu7   1.948690 S    
O36   C110  1.298275 A    
Cu7   Cu8   2.653952 S    
C159  H76   1.110623 S    
C164  H92   1.110100 S    
C39   C43   1.400308 A    
C24   C104  1.462611 S    
C70   C74   1.397867 A    
C25   C105  1.462663 S    
C119  C128  1.398978 A    
C36   C40   1.390117 A    
C23   C103  1.462624 S    
C118  H14   1.083523 S    
C52   C170  1.517333 S    
C128  C130  1.437640 S    
C130  C131  1.204727 T    
C148  C152  1.397203 A    
C170  H112  1.106174 S    
C79   C83   1.397509 A    
C171  H115  1.106175 S    
C136  H24   1.083532 S    
C28   C32   1.352304 D    
C97   C99   1.435818 S    
