data_mof_unit_54250.cif
_audit_creation_date              2012-12-10T19:47:58-0500
_audit_creation_method            fapswitch 2.2
_symmetry_space_group_name_H-M    P1
_symmetry_Int_Tables_number       1
_space_group_crystal_system       triclinic
_cell_length_a                    15.006794
_cell_length_b                    14.140969
_cell_length_c                    10.393129
_cell_angle_alpha                 91.130868
_cell_angle_beta                  90.415058
_cell_angle_gamma                 89.952621
_cell_volume                      2205.04427331

loop_
_atom_site_label
_atom_site_type_symbol
_atom_type_description
_atom_site_fract_x
_atom_site_fract_y
_atom_site_fract_z
_atom_type_partial_charge
C1    C     C_R   0.327725 0.500035 0.499417 0.902236
C2    C     C_R   0.672349 0.499950 0.498413 0.913539
C3    C     C_R   0.048283 0.501214 0.478435 0.100967
C4    C     C_R   0.951927 0.499679 0.477949 0.100312
C5    C     C_R   0.428893 0.106158 0.553429 -0.206101
C6    C     C_R   0.457649 0.896243 0.597824 -0.197040
C7    C     C_R   0.570462 0.104289 0.445696 -0.193505
C8    C     C_R   0.540957 0.893259 0.400576 -0.199560
C9    C     C_R   0.430652 0.205463 0.553221 0.086570
C10   C     C_R   0.458602 0.796886 0.596224 0.100611
C11   C     C_R   0.569155 0.203636 0.446509 0.096684
C12   C     C_R   0.540717 0.793970 0.403038 0.078196
C13   C     C_R   0.499538 0.053361 0.499366 0.154623
C14   C     C_R   0.499348 0.946610 0.499210 0.124253
C15   C     C_R   0.483872 0.498889 0.259883 0.944064
C16   C     C_R   0.515399 0.501024 0.740479 0.948866
C17   C     C_R   0.421465 0.665030 0.105008 0.318795
C18   C     C_R   0.577269 0.334351 0.895873 0.325200
C19   C     C_R   0.547714 0.678067 0.908452 0.316813
C20   C     C_R   0.453354 0.320896 0.095194 0.329302
C21   C     C_R   0.444326 0.753934 0.057386 0.157448
C22   C     C_R   0.556786 0.245564 0.946048 0.170864
C23   C     C_R   0.511730 0.760755 0.964872 0.141476
C24   C     C_R   0.491834 0.238450 0.042057 0.164822
C25   C     C_R   0.517024 0.588379 0.947210 -0.134901
C26   C     C_R   0.481562 0.410836 0.053715 -0.134788
C27   C     C_R   0.465342 0.582908 0.057978 -0.134114
C28   C     C_R   0.532773 0.416289 0.942426 -0.132994
C29   C     C_R   0.535353 0.503417 0.878909 -0.000864
C30   C     C_R   0.463008 0.495967 0.121705 -0.003136
C31   C     C_R   0.093181 0.580060 0.530383 -0.138527
C32   C     C_R   0.907389 0.418462 0.517604 -0.153773
C33   C     C_R   0.904330 0.580470 0.443106 -0.143727
C34   C     C_R   0.095557 0.422341 0.432418 -0.153017
C35   C     C_R   0.185096 0.579862 0.536734 -0.134455
C36   C     C_R   0.815543 0.418217 0.523168 -0.129124
C37   C     C_R   0.812514 0.580809 0.450865 -0.148968
C38   C     C_R   0.187392 0.421471 0.440917 -0.136888
C39   C     C_R   0.232080 0.500212 0.493119 -0.027639
C40   C     C_R   0.768102 0.499807 0.491529 -0.034723
H1    H     H_    0.057203 0.640764 0.568403 0.150141
H2    H     H_    0.943607 0.356034 0.546696 0.151304
H3    H     H_    0.938164 0.643140 0.410428 0.152559
H4    H     H_    0.061463 0.361545 0.390474 0.152636
H5    H     H_    0.219268 0.640962 0.577755 0.162441
H6    H     H_    0.781935 0.354924 0.554011 0.200431
H7    H     H_    0.776387 0.643881 0.424035 0.167542
H8    H     H_    0.223347 0.359925 0.405580 0.202073
H9    H     H_    0.371766 0.071377 0.594135 0.147613
H10   H     H_    0.425672 0.932980 0.677253 0.175312
H11   H     H_    0.627385 0.068039 0.404685 0.147856
H12   H     H_    0.572334 0.927560 0.320559 0.177846
H13   H     H_    0.376097 0.245025 0.595321 0.130629
H14   H     H_    0.426457 0.759134 0.672583 0.126577
H15   H     H_    0.623818 0.241763 0.404484 0.126962
H16   H     H_    0.572840 0.753964 0.326653 0.128840
N1    N     N_R   0.500000 0.252470 0.500000 -0.087369
N2    N     N_R   0.500000 0.747530 0.500000 -0.088573
O1    O     O_R   0.369060 0.579480 0.500010 -0.595457
O2    O     O_R   0.630940 0.420520 0.499990 -0.616041
O3    O     O_R   0.630940 0.579480 0.499990 -0.601465
O4    O     O_R   0.369060 0.420520 0.500010 -0.621421
O5    O     O_R   0.499990 0.579480 0.316780 -0.618242
O6    O     O_R   0.500010 0.420520 0.683220 -0.603873
O7    O     O_R   0.500010 0.579480 0.683220 -0.611382
O8    O     O_R   0.499990 0.420520 0.316780 -0.599194
Zn1   Zn    Zn3+2 0.500000 0.606140 0.500000 1.019487
Zn2   Zn    Zn3+2 0.500000 0.393860 0.500000 1.015377
Br1   Br    Br    0.458192 0.116642 0.105041 -0.307715
Br2   Br    Br    0.554386 0.882730 0.915015 -0.318877
Br3   Br    Br    0.615214 0.134067 0.878893 -0.306976
Br4   Br    Br    0.385562 0.865786 0.122717 -0.316908
Cl1   Cl    Cl    0.331481 0.655490 0.213186 -0.535325
Cl2   Cl    Cl    0.666865 0.344280 0.787305 -0.568344
Cl3   Cl    Cl    0.640182 0.686914 0.804368 -0.519846
Cl4   Cl    Cl    0.361221 0.310799 0.199574 -0.556414

loop_
_geom_bond_atom_site_label_1
_geom_bond_atom_site_label_2
_ccdc_geom_bond_type
O8    Zn2   S    
C19   C23   A    
C1    O4    A    
C7    C11   A    
C32   C36   A    
C28   C29   A    
C10   N2    A    
C37   C40   A    
C1    O1    A    
C38   C39   A    
C2    O2    A    
C20   Cl4   S    
O1    Zn1   S    
C20   C24   A    
O7    Zn1   S    
C8    C14   A    
C36   H6    S    
C37   H7    S    
C8    H12   S    
C5    C13   A    
C2    O3    A    
C12   N2    A    
C18   Cl2   S    
C34   C38   A    
C13   C14   S    
C27   C30   A    
C17   Cl1   S    
C23   Br2   S    
C5    H9    S    
C10   H14   S    
C24   Br1   S    
C25   C29   A    
O5    Zn1   S    
C21   Br4   S    
C17   C27   A    
C36   C40   A    
C34   H4    S    
C3    C34   A    
C16   C29   S    
C15   O8    A    
C33   C37   A    
C33   H3    S    
C35   C39   A    
C5    C9    A    
C6    C14   A    
O3    Zn1   S    
C8    C12   A    
C18   C28   A    
C12   H16   S    
C6    H10   S    
C3    C31   A    
C4    C32   A    
C26   C30   A    
C21   C23   A    
C22   C24   A    
C9    H13   S    
N1    Zn2   S    
C3    C4    S    
C35   H5    S    
O6    Zn2   S    
C22   Br3   S    
C11   H15   S    
C15   C30   S    
C4    C33   A    
C32   H2    S    
C31   H1    S    
C18   C22   A    
C38   H8    S    
C6    C10   A    
C25   C27   A    
C26   C28   A    
O4    Zn2   S    
C19   Cl3   S    
C7    H11   S    
C20   C26   A    
C31   C35   A    
C9    N1    A    
C19   C25   A    
C17   C21   A    
C1    C39   S    
C2    C40   S    
N2    Zn1   S    
C7    C13   A    
O2    Zn2   S    
C15   O5    A    
C16   O7    A    
C16   O6    A    
C11   N1    A    
