data_mof_unit_14140.cif
_audit_creation_date              2012-12-10T20:31:55-0500
_audit_creation_method            fapswitch 2.2
_symmetry_space_group_name_H-M    P1
_symmetry_Int_Tables_number       1
_space_group_crystal_system       triclinic
_cell_length_a                    9.878907
_cell_length_b                    10.678566
_cell_length_c                    15.482257
_cell_angle_alpha                 90.167421
_cell_angle_beta                  67.932165
_cell_angle_gamma                 89.730945
_cell_volume                      1513.5735446

loop_
_atom_site_label
_atom_site_type_symbol
_atom_type_description
_atom_site_fract_x
_atom_site_fract_y
_atom_site_fract_z
_atom_type_partial_charge
C1    C     C_R   0.501752 0.740019 0.496625 0.878050
C2    C     C_R   0.395809 0.554748 0.917819 0.099744
C3    C     C_R   0.253858 0.510542 0.971510 0.171841
C4    C     C_R   0.495423 0.583068 0.961350 0.066179
C5    C     C_R   0.458637 0.548759 0.055552 0.068873
C6    C     C_R   0.312795 0.513777 0.108839 -0.219815
C7    C     C_R   0.211657 0.496844 0.067364 -0.242180
C8    C     C_R   0.631803 0.641097 0.913514 -0.228429
C9    C     C_R   0.734669 0.653595 0.954257 -0.232852
C10   C     C_R   0.705770 0.607342 0.043305 0.172398
C11   C     C_R   0.568579 0.552120 0.093612 0.096812
C12   C     C_R   0.408242 0.502334 0.676025 0.868181
C13   C     C_R   0.811236 0.617193 0.083642 -0.220447
C14   C     C_R   0.779746 0.575585 0.174474 -0.199867
C15   C     C_R   0.546202 0.499928 0.180259 -0.248275
C16   C     C_R   0.395926 0.936618 0.470498 0.108434
C17   C     C_R   0.511668 0.871166 0.480357 -0.128438
C18   C     C_R   0.640467 0.934418 0.471484 -0.209939
C19   C     C_R   0.640508 0.063740 0.472237 -0.204035
C20   C     C_R   0.511912 0.128493 0.481647 -0.104152
C21   C     C_R   0.395948 0.064592 0.471862 0.107084
C22   C     C_3   0.235261 0.072988 0.527113 -0.516066
C23   C     C_R   0.502009 0.259926 0.497157 0.887658
C24   C     C_3   0.234813 0.930527 0.525116 -0.212410
C25   C     C_R   0.898109 0.585171 0.552361 0.228523
C26   C     C_R   0.963949 0.425195 0.440453 0.001649
C27   C     C_R   0.107601 0.424817 0.440998 -0.174371
C28   C     C_R   0.040610 0.585508 0.552002 0.240702
C29   C     C_3   0.988012 0.601703 0.654767 -0.519930
C30   C     C_3   0.834076 0.599151 0.655674 -0.533071
C31   C     C_R   0.591169 0.500650 0.323975 0.874377
C32   C     C_R   0.348316 0.512480 0.777545 -0.057756
C33   C     C_R   0.645119 0.519198 0.223461 -0.053681
C34   C     C_R   0.157887 0.475966 0.927996 -0.212091
C35   C     C_R   0.205504 0.475739 0.831098 -0.202038
C36   C     C_R   0.438571 0.557610 0.821029 -0.270172
H1    H     H_    0.102132 0.466920 0.109850 0.156245
H2    H     H_    0.915542 0.661095 0.046275 0.148899
H3    H     H_    0.736716 0.885272 0.471415 0.183841
H4    H     H_    0.736597 0.111622 0.472760 0.180551
H5    H     H_    0.209816 0.112210 0.598165 0.196442
H6    H     H_    0.176005 0.118953 0.487085 0.205725
H7    H     H_    0.205353 0.886178 0.594647 0.145898
H8    H     H_    0.190279 0.362547 0.394897 0.148829
H9    H     H_    0.014104 0.519877 0.690055 0.214113
H10   H     H_    0.449477 0.446395 0.217215 0.148213
H11   H     H_    0.018679 0.694187 0.674824 0.195121
H12   H     H_    0.773448 0.514405 0.690581 0.222296
H13   H     H_    0.775081 0.689789 0.677243 0.193776
H14   H     H_    0.857465 0.591741 0.207362 0.160499
H15   H     H_    0.837871 0.698397 0.915419 0.151219
H16   H     H_    0.048855 0.443132 0.968586 0.151576
H17   H     H_    0.133006 0.442591 0.798250 0.150051
H18   H     H_    0.545357 0.588078 0.777304 0.147748
H19   H     H_    0.272935 0.500655 0.183294 0.151841
H20   H     H_    0.660305 0.681536 0.845426 0.149921
N1    N     N_R   0.856900 0.500860 0.500610 -0.128801
N2    N     N_R   0.142540 0.500820 0.500610 -0.109640
O1    O     O_R   0.385310 0.683210 0.499990 -0.612987
O2    O     O_R   0.614650 0.683240 0.500000 -0.619742
O3    O     O_R   0.319830 0.499970 0.632240 -0.618996
O4    O     O_R   0.549170 0.500000 0.632250 -0.614171
O5    O     O_R   0.385350 0.316760 0.500000 -0.616564
O6    O     O_R   0.614690 0.316790 0.500010 -0.615170
O7    O     O_R   0.450830 0.500000 0.367750 -0.615926
O8    O     O_R   0.680170 0.500030 0.367760 -0.610150
Zn1   Zn    Zn3+2 0.346870 0.499980 0.499990 0.944593
Zn2   Zn    Zn3+2 0.653130 0.500020 0.500010 0.954638
C37   C     C_1   0.156168 0.879457 0.468973 0.231053
N3    N     N_1   0.094379 0.839649 0.424656 -0.232094
C38   C     C_1   0.931706 0.344357 0.376373 0.202650
N4    N     N_1   0.906573 0.279365 0.324392 -0.221988

loop_
_geom_bond_atom_site_label_1
_geom_bond_atom_site_label_2
_ccdc_geom_bond_type
C8    C9    A    
C31   O8    A    
C2    C4    A    
C18   H3    S    
C31   C33   S    
C16   C21   A    
C29   C30   S    
C26   C38   S    
C28   N2    A    
C35   H17   S    
C12   O4    A    
C9    C10   A    
O3    Zn1   S    
O8    Zn2   S    
C19   C20   A    
C9    H15   S    
C20   C23   S    
O4    Zn2   S    
C6    H19   S    
C4    C8    A    
C8    H20   S    
C14   C33   A    
C23   O5    A    
C17   C18   A    
C7    H1    S    
C38   N4    T    
C16   C24   S    
C14   H14   S    
C13   C14   A    
C12   C32   S    
C25   C28   A    
C12   O3    A    
C13   H2    S    
C22   H6    S    
C25   N1    A    
C29   H11   S    
O6    Zn2   S    
C22   C24   S    
C30   H12   S    
C28   C29   S    
C30   H13   S    
C24   C37   S    
C5    C11   A    
C6    C7    A    
C2    C3    A    
C37   N3    T    
C1    O1    A    
C26   C27   A    
C5    C6    A    
C27   N2    A    
C26   N1    A    
O5    Zn1   S    
C22   H5    S    
C36   H18   S    
C19   H4    S    
N1    Zn2   S    
C32   C35   A    
C32   C36   A    
N2    Zn1   S    
C18   C19   A    
C20   C21   A    
O2    Zn2   S    
C11   C15   A    
C34   C35   A    
C10   C11   A    
C1    O2    A    
C2    C36   A    
C25   C30   S    
C31   O7    A    
C24   H7    S    
C23   O6    A    
C34   H16   S    
C3    C7    A    
O1    Zn1   S    
C3    C34   A    
C21   C22   S    
C15   H10   S    
C1    C17   S    
C27   H8    S    
C15   C33   A    
C16   C17   A    
C29   H9    S    
C4    C5    A    
O7    Zn1   S    
C10   C13   A    
