data_mof_unit_58315.cif
_audit_creation_date              2013-03-05T15:50:46-0500
_audit_creation_method            fapswitch 2.2
_symmetry_space_group_name_H-M    P1
_symmetry_Int_Tables_number       1
_space_group_crystal_system       triclinic
_cell_length_a                    14.352719
_cell_length_b                    14.790689
_cell_length_c                    33.170482
_cell_angle_alpha                 97.591668
_cell_angle_beta                  90.29904
_cell_angle_gamma                 118.938761
_cell_volume                      6088.95936199

loop_
_atom_site_label
_atom_site_type_symbol
_atom_site_description
_atom_site_fract_x
_atom_site_fract_y
_atom_site_fract_z
_atom_type_partial_charge
O1    O     O_R   0.318160 0.824460 0.443680 -0.515884
O2    O     O_R   0.525040 0.857250 0.449830 -0.502102
C1    C     C_R   0.616870 0.910439 0.436959 0.543604
O3    O     O_R   0.684760 0.998800 0.456360 -0.512240
O4    O     O_R   0.647540 0.166310 0.470260 -0.500067
C2    C     C_R   0.594175 0.205699 0.456680 0.544598
O5    O     O_R   0.500960 0.181750 0.467450 -0.515663
O6    O     O_R   0.331100 0.981120 0.457080 -0.501544
C3    C     C_R   0.295657 0.892821 0.434391 0.543429
O7    O     O_R   0.315560 0.821140 0.532010 -0.515876
O8    O     O_R   0.522630 0.854180 0.531710 -0.501288
C4    C     C_R   0.613922 0.904675 0.551519 0.541803
O9    O     O_R   0.682160 0.995480 0.544690 -0.518397
O10   O     O_R   0.645130 0.163230 0.552140 -0.501553
C5    C     C_R   0.589881 0.199817 0.570785 0.540963
O11   O     O_R   0.498360 0.178430 0.555780 -0.519900
O12   O     O_R   0.328690 0.978040 0.538950 -0.501439
C6    C     C_R   0.289116 0.886800 0.548559 0.548268
Cr1   Cr    Cr6+3 0.424820 0.846020 0.489780 1.020680
Cr2   Cr    Cr6+3 0.657880 0.078580 0.505700 1.022481
Cr3   Cr    Cr6+3 0.417280 0.075360 0.504550 1.014565
O13   O     O_3   0.499990 0.999990 0.500010 -0.238055
C7    C     C_R   0.734559 0.442882 0.104131 0.018928
C8    C     C_R   0.640355 0.410438 0.124312 -0.122351
C9    C     C_R   0.637702 0.387580 0.163756 -0.103189
C10   C     C_R   0.728735 0.396005 0.183398 0.071661
C11   C     C_R   0.821040 0.422546 0.162671 -0.069125
C12   C     C_R   0.823914 0.445614 0.123139 -0.120318
C13   C     C_R   0.744819 0.308212 0.241238 0.225534
C14   C     C_R   0.743211 0.303781 0.283183 -0.102878
C15   C     C_R   0.725837 0.374481 0.310279 -0.037849
C16   C     C_R   0.712917 0.452378 0.295665 -0.129880
C17   C     C_R   0.715259 0.458464 0.254237 -0.160265
C18   C     C_R   0.729610 0.386287 0.226753 0.005357
C19   C     C_R   0.604327 0.333599 0.365233 -0.123461
C20   C     C_R   0.570451 0.291337 0.400840 -0.130926
C21   C     C_R   0.742233 0.302382 0.413916 -0.089442
C22   C     C_R   0.777703 0.345763 0.378180 0.020459
C23   C     C_R   0.705525 0.356299 0.352635 -0.006254
C24   C     C_R   0.637250 0.270697 0.424365 -0.007658
H1    H     H_    0.570199 0.407264 0.110394 0.131536
H2    H     H_    0.897668 0.470609 0.108340 0.129878
H3    H     H_    0.749599 0.241443 0.294563 0.155285
H4    H     H_    0.565851 0.366788 0.179556 0.113585
H5    H     H_    0.698380 0.506707 0.316237 0.124682
H6    H     H_    0.704436 0.519014 0.243393 0.119435
H7    H     H_    0.548354 0.341469 0.345914 0.121068
H8    H     H_    0.489439 0.268362 0.408384 0.134550
H9    H     H_    0.891975 0.429708 0.177731 0.124735
H10   H     H_    0.795181 0.289526 0.432837 0.171043
H11   H     H_    0.185312 0.731565 0.102392 0.127600
H12   H     H_    0.235739 0.770413 0.175758 0.112985
H13   H     H_    0.191372 0.723840 0.301024 0.111694
H14   H     H_    0.234002 0.727469 0.372984 0.134368
C25   C     C_R   0.245092 0.878264 0.393360 0.019585
C26   C     C_R   0.233396 0.959771 0.380746 -0.126115
C27   C     C_R   0.209861 0.957629 0.339609 -0.112342
C28   C     C_R   0.197062 0.873851 0.310694 0.038902
C29   C     C_R   0.201589 0.789271 0.323241 -0.112970
C30   C     C_R   0.225229 0.791225 0.364355 -0.124572
C31   C     C_R   0.196969 0.808641 0.162976 -0.105849
C32   C     C_R   0.168579 0.786991 0.121124 -0.121058
C33   C     C_R   0.090459 0.900917 0.129620 -0.127376
C34   C     C_R   0.118444 0.921994 0.171590 -0.112845
C35   C     C_R   0.168205 0.872801 0.188436 0.040803
C36   C     C_1   0.179258 0.878088 0.231844 -0.024555
C37   C     C_1   0.186639 0.877434 0.267949 -0.025318
C38   C     C_R   0.110816 0.829236 0.104303 0.020381
H15   H     H_    0.248373 0.028040 0.402257 0.128078
H16   H     H_    0.095785 0.971741 0.191103 0.112396
H17   H     H_    0.045171 0.933886 0.117652 0.126651
H18   H     H_    0.206089 0.023263 0.330179 0.113482
H19   H     H_    0.866600 0.963270 0.121923 0.129137
H20   H     H_    0.837687 0.989208 0.194287 0.145409
H21   H     H_    0.822631 0.981043 0.326686 0.125805
H22   H     H_    0.803066 0.001524 0.400034 0.140660
C39   C     C_R   0.636948 0.879761 0.395192 0.017379
C40   C     C_R   0.551860 0.801799 0.368117 -0.127819
C41   C     C_R   0.563352 0.791044 0.326287 -0.116169
C42   C     C_R   0.659986 0.857394 0.311255 0.036086
C43   C     C_R   0.747324 0.929880 0.338153 -0.104989
C44   C     C_R   0.736068 0.940923 0.379960 -0.119755
C45   C     C_R   0.775140 0.924335 0.173853 -0.075511
C46   C     C_R   0.791118 0.909701 0.132550 -0.115592
C47   C     C_R   0.617603 0.753006 0.121292 -0.122812
C48   C     C_R   0.601770 0.767964 0.162507 -0.114352
C49   C     C_R   0.682131 0.851345 0.189018 0.047982
C50   C     C_1   0.673793 0.855203 0.232099 -0.009099
C51   C     C_1   0.667527 0.855948 0.268207 -0.017392
C52   C     C_R   0.714397 0.821206 0.106288 0.020439
H23   H     H_    0.474408 0.753887 0.378848 0.130852
H24   H     H_    0.529407 0.711323 0.174062 0.107305
H25   H     H_    0.556935 0.684405 0.101750 0.124940
H26   H     H_    0.495518 0.734333 0.305566 0.110020
H27   H     H_    0.848037 0.394785 0.903581 0.125226
H28   H     H_    0.832238 0.351733 0.829244 0.106013
H29   H     H_    0.795076 0.279724 0.691621 0.111102
H30   H     H_    0.763868 0.232071 0.617376 0.128218
C53   C     C_R   0.624465 0.252902 0.613354 0.022542
C54   C     C_R   0.559997 0.285241 0.635786 -0.125479
C55   C     C_R   0.578213 0.312239 0.678122 -0.113431
C56   C     C_R   0.661067 0.307542 0.698377 0.047753
C57   C     C_R   0.730485 0.283154 0.676109 -0.090371
C58   C     C_R   0.712665 0.256395 0.633748 -0.112385
C59   C     C_R   0.765087 0.350197 0.844553 -0.114279
C60   C     C_R   0.773440 0.373886 0.887003 -0.127818
C61   C     C_R   0.595014 0.352966 0.884453 -0.125628
C62   C     C_R   0.586912 0.329267 0.842015 -0.114040
C63   C     C_R   0.673394 0.331670 0.822018 0.041802
C64   C     C_1   0.671047 0.323376 0.778475 -0.029464
C65   C     C_1   0.668102 0.317582 0.741976 -0.028393
C66   C     C_R   0.690361 0.380332 0.907255 0.022173
H31   H     H_    0.491748 0.283780 0.620983 0.125018
H32   H     H_    0.515409 0.314519 0.824712 0.103577
H33   H     H_    0.529749 0.357549 0.899012 0.127162
H34   H     H_    0.524449 0.331629 0.695203 0.098837
C67   C     C_R   0.066139 0.752732 0.907727 0.021863
C68   C     C_R   0.100297 0.850666 0.895590 -0.141166
C69   C     C_R   0.117393 0.862810 0.854876 -0.128521
C70   C     C_R   0.101307 0.777359 0.825894 0.032384
C71   C     C_R   0.074968 0.681627 0.838664 -0.114596
C72   C     C_R   0.057869 0.669479 0.879311 -0.121014
C73   C     C_R   0.155482 0.740368 0.757196 -0.109408
C74   C     C_R   0.157845 0.746246 0.715708 -0.065452
C75   C     C_R   0.109072 0.796021 0.698364 0.081561
C76   C     C_R   0.058923 0.841036 0.723122 -0.099701
C77   C     C_R   0.057703 0.836305 0.764793 -0.110301
C78   C     C_R   0.105832 0.785733 0.782136 0.029641
C79   C     C_R   0.178808 0.916832 0.648334 -0.152075
C80   C     C_R   0.225763 0.940462 0.611908 -0.134942
C81   C     C_R   0.156944 0.755875 0.587860 -0.156694
C82   C     C_R   0.106734 0.730746 0.623963 0.019761
C83   C     C_R   0.124627 0.812979 0.655673 0.044600
C84   C     C_R   0.220334 0.860553 0.582500 0.012369
H35   H     H_    0.107716 0.916096 0.917087 0.118552
H36   H     H_    0.030788 0.592865 0.887798 0.124530
H37   H     H_    0.200197 0.714247 0.697253 0.106896
H38   H     H_    0.194539 0.702421 0.769963 0.101114
H39   H     H_    0.139799 0.937952 0.845796 0.103567
H40   H     H_    0.022478 0.881248 0.710289 0.102190
H41   H     H_    0.019079 0.872111 0.783350 0.091926
H42   H     H_    0.192898 0.980642 0.672196 0.105435
H43   H     H_    0.273467 0.021816 0.608236 0.132336
H44   H     H_    0.061565 0.614403 0.816832 0.109127
H45   H     H_    0.149077 0.693769 0.564315 0.115331
C85   C     C_R   0.727939 0.701696 0.901119 0.016588
C86   C     C_R   0.629441 0.634405 0.878628 -0.123955
C87   C     C_R   0.619952 0.633418 0.836315 -0.116353
C88   C     C_R   0.709211 0.698526 0.816447 0.033764
C89   C     C_R   0.808589 0.757784 0.838725 -0.112104
C90   C     C_R   0.817459 0.760179 0.880422 -0.122710
C91   C     C_R   0.749340 0.819949 0.766060 -0.116049
C92   C     C_R   0.742484 0.840909 0.726919 -0.116170
C93   C     C_R   0.685001 0.759198 0.694735 0.034995
C94   C     C_R   0.634464 0.655331 0.702704 -0.102383
C95   C     C_R   0.641341 0.634188 0.742276 -0.104513
C96   C     C_R   0.699176 0.716656 0.774243 0.033188
C97   C     C_R   0.571489 0.733106 0.632154 -0.119106
C98   C     C_R   0.554232 0.769439 0.597668 -0.125799
C99   C     C_R   0.738952 0.906781 0.605081 -0.127595
C100  C     C_R   0.756457 0.869769 0.639356 -0.115241
C101  C     C_R   0.671910 0.784917 0.654118 0.035404
C102  C     C_R   0.636878 0.858743 0.584584 0.018832
H46   H     H_    0.559522 0.586843 0.893833 0.123069
H47   H     H_    0.894378 0.811491 0.896893 0.136710
H48   H     H_    0.835402 0.909907 0.655207 0.103106
H49   H     H_    0.779475 0.921774 0.722191 0.100212
H50   H     H_    0.792427 0.885284 0.790295 0.103049
H51   H     H_    0.542337 0.586491 0.819646 0.101455
H52   H     H_    0.589720 0.590722 0.678403 0.105386
H53   H     H_    0.602523 0.553898 0.747838 0.103349
H54   H     H_    0.504590 0.668226 0.642914 0.101527
H55   H     H_    0.474610 0.730362 0.582430 0.130472
H56   H     H_    0.878934 0.806864 0.824196 0.105459
H57   H     H_    0.804493 0.974774 0.595381 0.126606
O14   O     O_R   0.828710 0.851830 0.052170 -0.511804
O15   O     O_R   0.005980 0.823990 0.047210 -0.500255
C103  C     C_R   0.052195 0.781363 0.063760 0.544051
O16   O     O_R   0.031900 0.688850 0.050170 -0.514480
O17   O     O_R   0.830940 0.518420 0.048680 -0.497205
C104  C     C_R   0.743534 0.485941 0.065972 0.547612
O18   O     O_R   0.668160 0.499860 0.053480 -0.516535
O19   O     O_R   0.689170 0.693840 0.050110 -0.495873
C105  C     C_R   0.742757 0.789333 0.066340 0.554071
O20   O     O_R   0.803860 0.812940 0.962540 -0.508482
O21   O     O_R   0.982950 0.787950 0.964120 -0.527379
C106  C     C_R   0.021509 0.732087 0.947295 0.532864
O22   O     O_R   0.007050 0.649970 0.960540 -0.515580
O23   O     O_R   0.807910 0.482370 0.965590 -0.503455
C107  C     C_R   0.712432 0.438117 0.949131 0.534544
O24   O     O_R   0.643310 0.460980 0.963840 -0.525415
O25   O     O_R   0.666140 0.657800 0.967020 -0.498290
C108  C     C_R   0.743499 0.716477 0.945919 0.566848
Cr4   Cr    Cr6+3 0.903360 0.812540 0.006510 1.010075
Cr5   Cr    Cr6+3 0.914630 0.587050 0.006280 1.009588
Cr6   Cr    Cr6+3 0.673560 0.582680 0.008540 1.012432
O26   O     O_3   0.830520 0.660760 0.007110 -0.263618
C109  C     C_2   0.888821 0.378208 0.367568 0.215806
H58   H     H_    0.919339 0.418457 0.341579 0.118587
O27   O     O_2   0.948147 0.361180 0.387938 -0.515323
C110  C     C_2   0.038738 0.618557 0.627479 0.207844
H59   H     H_    0.041689 0.559064 0.605398 0.095791
O28   O     O_2   0.976321 0.590902 0.653976 -0.495711
N1    N     N_R   0.756555 0.230493 0.214088 0.071635
O29   O     O_R   0.807110 0.185677 0.227224 -0.362784
O30   O     O_R   0.706637 0.195175 0.177860 -0.325166

loop_
_geom_bond_atom_site_label_1
_geom_bond_atom_site_label_2
_geom_bond_distance
_ccdc_geom_bond_type
C91   C96   1.404727 A    
C45   C49   1.398704 A    
C49   C50   1.430559 S    
C76   C77   1.392995 A    
C8    H1    1.083016 S    
C63   C64   1.432133 S    
C16   H5    1.083392 S    
C19   C20   1.388925 A    
H20   C45   1.083603 S    
H28   C59   1.083628 S    
C81   C84   1.402747 A    
C19   H7    1.083700 S    
C79   C80   1.388648 A    
C100  C101  1.407876 A    
H13   C29   1.083645 S    
C88   C89   1.398841 A    
C73   C74   1.389910 A    
O4    Cr2   1.917101 S    
O16   Cr5   2.040158 S    
C39   C40   1.407040 A    
C26   C27   1.396579 A    
C4    O9    1.274393 A    
C73   H38   1.083226 S    
C76   H40   1.083609 S    
C10   C11   1.399823 A    
C55   C56   1.397984 A    
C45   C46   1.396207 A    
C61   H33   1.082952 S    
O4    C2    1.275363 A    
O25   Cr6   1.913089 S    
C11   C12   1.393835 A    
C95   C96   1.403732 A    
C21   C22   1.402545 A    
C7    C104  1.469557 S    
C21   C24   1.405409 A    
H12   C31   1.083721 S    
C77   H41   1.080850 S    
C14   C15   1.403508 A    
C42   C43   1.397067 A    
Cr4   O26   1.968204 S    
C5    O11   1.273864 A    
C104  O18   1.271942 A    
C62   C63   1.397868 A    
C110  H59   1.085659 S    
C62   H32   1.083667 S    
C42   C51   1.430726 S    
C68   C69   1.393286 A    
C64   C65   1.201448 T    
C47   H25   1.083146 S    
C10   C18   1.464609 S    
C86   C87   1.406907 A    
O22   Cr5   2.031500 S    
C15   C23   1.469525 S    
C82   C83   1.417216 A    
C7    C8    1.404613 A    
C22   C109  1.485783 S    
C77   C78   1.406136 A    
C81   H45   1.084272 S    
C109  H58   1.084731 S    
C3    C25   1.478679 S    
C34   H16   1.083530 S    
O20   Cr4   2.038492 S    
H19   C46   1.082968 S    
C100  H48   1.083096 S    
C87   H51   1.082761 S    
C36   C37   1.203466 T    
C70   C71   1.403336 A    
C29   C30   1.396805 A    
C92   C93   1.402102 A    
C13   N1    1.440921 S    
C25   C30   1.406755 A    
C92   H49   1.083003 S    
C17   H6    1.083855 S    
C110  O28   1.221046 D    
C71   H44   1.083155 S    
C56   C65   1.432092 S    
C56   C57   1.397697 A    
H11   C32   1.083198 S    
C46   C52   1.406598 A    
C9    H4    1.083538 S    
C91   H50   1.083386 S    
O21   Cr4   1.923025 S    
C43   C44   1.394259 A    
O1    Cr1   2.039079 S    
O19   Cr6   1.922499 S    
O15   Cr4   1.923041 S    
C99   C102  1.402865 A    
C103  O16   1.268984 A    
C74   H37   1.083509 S    
C20   C24   1.399878 A    
Cr1   O13   1.969669 S    
O1    C3    1.272345 A    
C8    C9    1.390154 A    
C41   H26   1.083626 S    
C67   C106  1.466821 S    
C5    C53   1.476237 S    
C40   C41   1.395425 A    
O6    C3    1.274434 A    
C60   C66   1.408426 A    
C79   H42   1.083684 S    
C9    C10   1.399747 A    
C47   C48   1.393402 A    
C13   C18   1.414752 A    
O12   Cr3   1.915369 S    
C41   C42   1.398076 A    
C85   C90   1.400347 A    
C97   C98   1.395344 A    
O18   Cr6   2.029897 S    
C19   C23   1.403019 A    
C67   C72   1.403402 A    
O19   C105  1.272698 A    
C13   C14   1.401295 A    
H27   C60   1.083021 S    
O10   Cr2   1.920702 S    
O23   Cr5   1.922569 S    
C15   C16   1.396503 A    
O7    Cr1   2.038989 S    
O8    C4    1.273066 A    
O8    Cr1   1.921212 S    
C25   C26   1.408903 A    
C70   C78   1.472080 S    
O12   C6    1.272447 A    
C82   C110  1.484808 S    
C69   C70   1.403255 A    
C61   C66   1.407456 A    
C7    C12   1.406641 A    
N1    O29   1.301608 A    
C85   C108  1.472886 S    
C80   H43   1.083435 S    
C72   H36   1.083342 S    
C93   C94   1.409618 A    
H29   C57   1.083598 S    
O17   Cr5   1.914719 S    
C79   C83   1.402951 A    
C89   H56   1.080186 S    
Cr2   O13   1.977518 S    
C26   H15   1.082994 S    
C75   C76   1.400451 A    
C99   H57   1.083028 S    
C98   C102  1.407370 A    
C14   H3    1.083691 S    
C107  O24   1.273865 A    
C61   C62   1.395159 A    
H22   C44   1.083043 S    
C1    O3    1.269054 A    
C1    C39   1.474081 S    
C57   C58   1.395638 A    
O17   C104  1.276983 A    
C85   C86   1.406011 A    
C75   C83   1.470039 S    
O23   C107  1.278331 A    
O14   C105  1.270666 A    
C59   C63   1.397294 A    
C33   C38   1.407746 A    
C53   C58   1.407604 A    
C12   H2    1.082993 S    
O9    Cr2   2.033380 S    
O2    Cr1   1.923424 S    
C48   C49   1.396738 A    
C93   C101  1.482274 S    
H21   C43   1.083679 S    
C54   H31   1.082953 S    
O24   Cr6   2.039318 S    
O20   C108  1.296577 A    
Cr6   O26   1.977093 S    
O6    Cr3   1.919238 S    
C47   C52   1.406746 A    
C71   C72   1.391099 A    
O11   Cr3   2.035681 S    
C2    O5    1.273911 A    
C40   H23   1.083084 S    
C59   C60   1.395380 A    
C95   H53   1.083226 S    
C67   C68   1.403390 A    
C89   C90   1.382515 A    
C53   C54   1.407138 A    
C32   C38   1.406303 A    
H14   C30   1.082980 S    
C69   H39   1.083028 S    
O25   C108  1.308431 A    
O2    C1    1.276524 A    
C28   C29   1.399432 A    
C52   C105  1.473115 S    
C106  O22   1.268569 A    
C48   H24   1.083715 S    
C81   C82   1.399644 A    
C16   C17   1.388483 A    
C4    C102  1.477421 S    
N1    O30   1.301257 A    
C21   H10   1.083502 S    
C94   H52   1.082829 S    
C97   H54   1.082853 S    
C27   C28   1.397483 A    
C22   C23   1.413308 A    
C39   C44   1.407248 A    
O7    C6    1.267506 A    
H30   C58   1.082980 S    
O5    Cr3   2.032533 S    
C34   C35   1.399240 A    
C38   C103  1.475764 S    
C54   C55   1.395284 A    
C17   C18   1.403842 A    
C86   H46   1.082661 S    
C20   H8    1.083130 S    
C6    C84   1.465923 S    
C2    C24   1.469508 S    
C87   C88   1.409071 A    
C35   C36   1.435407 S    
C27   H18   1.083561 S    
C31   C32   1.395066 A    
C80   C84   1.400016 A    
C99   C100  1.396403 A    
C97   C101  1.402874 A    
C66   C107  1.476492 S    
C33   C34   1.398202 A    
O3    Cr2   2.038795 S    
C31   C35   1.398301 A    
C28   C37   1.435552 S    
C90   H47   1.080090 S    
C50   C51   1.200564 T    
O15   C103  1.277189 A    
C98   H55   1.083089 S    
C73   C78   1.401657 A    
C94   C95   1.402684 A    
C55   H34   1.083753 S    
O10   C5    1.279111 A    
C109  O27   1.221274 D    
C91   C92   1.387820 A    
O14   Cr4   2.041206 S    
O21   C106  1.274501 A    
Cr3   O13   1.978089 S    
C88   C96   1.478827 S    
C33   H17   1.083093 S    
C68   H35   1.083289 S    
C11   H9    1.083346 S    
C74   C75   1.403380 A    
Cr5   O26   1.978076 S    
