data_mof_unit_56134.cif
_audit_creation_date              2012-12-10T17:29:12-0500
_audit_creation_method            fapswitch 2.2
_symmetry_space_group_name_H-M    P1
_symmetry_Int_Tables_number       1
_space_group_crystal_system       triclinic
_cell_length_a                    18.313451
_cell_length_b                    18.326247
_cell_length_c                    51.396753
_cell_angle_alpha                 89.921111
_cell_angle_beta                  90.005615
_cell_angle_gamma                 89.807346
_cell_volume                      17249.5011777

loop_
_atom_site_label
_atom_site_type_symbol
_atom_type_description
_atom_site_fract_x
_atom_site_fract_y
_atom_site_fract_z
_atom_type_partial_charge
C1    C     C_R   0.999980 0.500166 0.179939 0.811605
C2    C     C_R   0.374736 0.046075 0.985880 0.374250
C3    C     C_R   0.610269 0.282205 0.270986 -0.136983
C4    C     C_R   0.723830 0.616160 0.724009 -0.156177
C5    C     C_R   0.128804 0.236841 0.215934 -0.142107
C6    C     C_R   0.764098 0.128588 0.783957 -0.127222
C7    C     C_R   0.390165 0.717024 0.270481 -0.137978
C8    C     C_R   0.628601 0.264216 0.716221 -0.127154
C9    C     C_R   0.216980 0.890205 0.229541 -0.138427
C10   C     C_R   0.884989 0.777012 0.775319 -0.157150
C11   C     C_R   0.263979 0.371229 0.283809 -0.143124
C12   C     C_R   0.235531 0.871530 0.783734 -0.127143
C13   C     C_R   0.960664 0.632594 0.013140 0.414277
C14   C     C_R   0.782178 0.110922 0.228602 -0.138326
C15   C     C_R   0.114380 0.222252 0.774797 -0.156621
C16   C     C_R   0.735341 0.627775 0.283437 -0.142624
C17   C     C_R   0.628029 0.736002 0.283606 -0.162025
C18   C     C_R   0.221619 0.114042 0.774436 -0.144442
C19   C     C_R   0.889143 0.218656 0.228316 -0.152646
C20   C     C_R   0.128622 0.763606 0.784033 -0.139514
C21   C     C_R   0.371183 0.262898 0.284011 -0.161111
C22   C     C_R   0.777611 0.885099 0.775020 -0.143985
C23   C     C_R   0.109831 0.782685 0.229350 -0.155422
C24   C     C_R   0.010062 0.369566 0.987206 0.382192
C25   C     C_R   0.736488 0.371145 0.715976 -0.138017
C26   C     C_R   0.351833 0.594457 0.280505 -0.147052
C27   C     C_R   0.876773 0.176866 0.800966 -0.135437
C28   C     C_R   0.176629 0.123302 0.199337 -0.155497
C29   C     C_R   0.603337 0.657125 0.711855 -0.133331
C30   C     C_R   0.648617 0.404587 0.281145 -0.147209
C31   C     C_R   0.323809 0.622524 0.699660 -0.135010
C32   C     C_R   0.824189 0.878040 0.199822 -0.153814
C33   C     C_R   0.398245 0.344599 0.713095 -0.132722
C34   C     C_R   0.344172 0.397937 0.712782 -0.131687
C35   C     C_R   0.377205 0.051867 0.013323 0.365930
C36   C     C_R   0.877815 0.824198 0.199767 -0.141990
C37   C     C_R   0.377854 0.675554 0.699905 -0.131810
C38   C     C_R   0.595111 0.351059 0.281141 -0.129893
C39   C     C_R   0.657473 0.603849 0.711531 -0.131610
C40   C     C_R   0.123016 0.177171 0.199283 -0.141817
C41   C     C_R   0.823503 0.123021 0.800810 -0.132757
C42   C     C_R   0.405432 0.647890 0.280447 -0.130703
C43   C     C_R   0.622930 0.323783 0.699445 -0.133005
C44   C     C_R   0.147852 0.905481 0.219559 -0.133633
C45   C     C_R   0.897870 0.843799 0.787369 -0.139014
C46   C     C_R   0.629325 0.964175 0.985386 0.400998
C47   C     C_R   0.323973 0.376914 0.300359 -0.147788
C48   C     C_R   0.175985 0.877129 0.800512 -0.133015
C49   C     C_R   0.850762 0.096367 0.218037 -0.134129
C50   C     C_R   0.101153 0.155087 0.786590 -0.138659
C51   C     C_R   0.675001 0.621591 0.299801 -0.145583
C52   C     C_R   0.621508 0.675540 0.299890 -0.154263
C53   C     C_R   0.154554 0.101073 0.786348 -0.135384
C54   C     C_R   0.904068 0.150108 0.217870 -0.146029
C55   C     C_R   0.122724 0.823285 0.800684 -0.134271
C56   C     C_R   0.377370 0.322863 0.300487 -0.153680
C57   C     C_R   0.005448 0.370080 0.014464 0.368300
C58   C     C_R   0.844400 0.897751 0.787160 -0.135634
C59   C     C_R   0.094409 0.851885 0.219484 -0.145781
C60   C     C_R   0.676749 0.377059 0.699303 -0.133281
C61   C     C_R   0.320474 0.733827 0.260006 0.073501
C62   C     C_R   0.756657 0.189025 0.766953 0.074870
C63   C     C_R   0.189113 0.243756 0.233018 0.075646
C64   C     C_R   0.737137 0.682633 0.737224 0.070577
C65   C     C_R   0.679735 0.265807 0.260268 0.073696
C66   C     C_R   0.311172 0.743114 0.733327 0.075809
C67   C     C_R   0.811175 0.756703 0.233187 0.075573
C68   C     C_R   0.965157 0.632742 0.985808 0.400623
C69   C     C_R   0.263418 0.317978 0.737641 0.070282
C70   C     C_R   0.318053 0.263562 0.737738 0.072924
C71   C     C_R   0.756685 0.811287 0.233200 0.074672
C72   C     C_R   0.256515 0.688957 0.733218 0.074538
C73   C     C_R   0.734134 0.320209 0.260296 0.078387
C74   C     C_R   0.682437 0.736982 0.737341 0.072918
C75   C     C_R   0.243625 0.189200 0.233007 0.074913
C76   C     C_R   0.810911 0.243604 0.767042 0.074619
C77   C     C_R   0.266037 0.679461 0.260026 0.078845
C78   C     C_R   0.743654 0.310913 0.733107 0.074189
C79   C     C_R   0.127767 0.461647 0.512594 0.414404
C80   C     C_R   0.179445 0.766045 0.239925 0.074558
C81   C     C_R   0.763493 0.817883 0.762399 0.073653
C82   C     C_R   0.310867 0.256066 0.266929 0.075013
C83   C     C_R   0.188872 0.756477 0.766925 0.074269
C84   C     C_R   0.820064 0.234585 0.239434 0.075681
C85   C     C_R   0.236114 0.181674 0.762090 0.073545
C86   C     C_R   0.688742 0.743393 0.266734 0.074410
C87   C     C_R   0.743116 0.688697 0.266676 0.075595
C88   C     C_R   0.181737 0.236351 0.762200 0.073102
C89   C     C_R   0.765780 0.180067 0.239514 0.074587
C90   C     C_R   0.874922 0.551779 0.485842 0.384196
C91   C     C_R   0.243158 0.811019 0.766840 0.075127
C92   C     C_R   0.256501 0.310763 0.266879 0.075908
C93   C     C_R   0.817937 0.763273 0.762479 0.072923
C94   C     C_R   0.233782 0.820511 0.239999 0.074829
C95   C     C_R   0.689129 0.256619 0.733164 0.075287
C96   C     C_R   0.303848 0.803911 0.250019 -0.154647
C97   C     C_R   0.696210 0.196032 0.750025 -0.148708
C98   C     C_R   0.196069 0.303945 0.249977 -0.150666
C99   C     C_R   0.804099 0.696137 0.749959 -0.152342
C100  C     C_R   0.696119 0.196124 0.249967 -0.154522
C101  C     C_R   0.438700 0.117623 0.514008 0.370120
C102  C     C_R   0.303858 0.803857 0.750046 -0.148983
C103  C     C_R   0.803881 0.696001 0.249952 -0.150130
C104  C     C_R   0.195987 0.303959 0.749998 -0.152397
C105  C     C_R   0.303849 0.195958 0.749962 -0.150934
C106  C     C_R   0.696103 0.804104 0.250001 -0.152167
C107  C     C_R   0.195943 0.696095 0.750043 -0.146653
C108  C     C_R   0.803873 0.304016 0.249958 -0.152162
C109  C     C_R   0.696118 0.804002 0.749974 -0.150741
C110  C     C_R   0.303904 0.195920 0.249973 -0.152545
C111  C     C_R   0.803992 0.303945 0.750067 -0.146277
C112  C     C_R   0.999990 0.500065 0.820098 0.809634
C113  C     C_R   0.549152 0.873513 0.487495 0.387445
C114  C     C_R   0.196055 0.696040 0.249958 -0.152457
C115  C     C_R   0.440213 0.022613 0.054573 0.566693
C116  C     C_R   0.558131 0.972542 0.944514 0.556729
C117  C     C_R   0.004892 0.440370 0.055460 0.566901
C118  C     C_R   0.991866 0.565744 0.944995 0.564616
C119  C     C_R   0.563628 0.980703 0.054436 0.562729
C120  C     C_R   0.441000 0.029143 0.944527 0.570362
C121  C     C_R   0.985910 0.569063 0.054856 0.552130
C122  C     C_R   0.001092 0.436012 0.945389 0.567069
C123  C     C_R   0.939495 0.523857 0.554505 0.571286
C124  C     C_R   0.877682 0.555881 0.513302 0.342976
C125  C     C_R   0.055625 0.470556 0.444314 0.559081
C126  C     C_R   0.533745 0.944400 0.555750 0.572886
C127  C     C_R   0.474251 0.057496 0.445505 0.567682
C128  C     C_R   0.061689 0.478652 0.554304 0.559006
C129  C     C_R   0.939506 0.529404 0.444380 0.572033
C130  C     C_R   0.465999 0.055540 0.555558 0.563923
C131  C     C_R   0.529038 0.939269 0.445758 0.555605
C132  C     C_R   0.566156 0.983304 0.026926 -0.164666
C133  C     C_R   0.438609 0.027154 0.971987 -0.126797
C134  C     C_R   0.978602 0.568757 0.027439 -0.178648
C135  C     C_R   0.126131 0.458644 0.485243 0.395700
C136  C     C_R   0.000733 0.435042 0.972893 -0.160242
C137  C     C_R   0.439585 0.027314 0.027134 -0.137375
C138  C     C_R   0.563998 0.980849 0.971760 -0.175213
C139  C     C_R   0.000025 0.437003 0.028065 -0.167720
C140  C     C_R   0.982465 0.567432 0.972284 -0.173865
C141  C     C_R   0.064257 0.481607 0.526787 -0.169769
C142  C     C_R   0.937518 0.528770 0.471879 -0.135704
C143  C     C_R   0.466460 0.057261 0.528084 -0.151699
C144  C     C_R   0.524809 0.935621 0.473252 -0.165538
C145  C     C_R   0.939010 0.528606 0.527054 -0.141464
C146  C     C_R   0.553292 0.876065 0.514889 0.409644
C147  C     C_R   0.061429 0.477677 0.471604 -0.176207
C148  C     C_R   0.528011 0.938480 0.528428 -0.158633
C149  C     C_R   0.469048 0.057387 0.472916 -0.150234
C150  C     C_R   0.502772 0.005767 0.013253 -0.149768
C151  C     C_R   0.502069 0.005371 0.985688 -0.148218
C152  C     C_R   0.989398 0.502409 0.013956 -0.137964
C153  C     C_R   0.990070 0.501512 0.986371 -0.141624
C154  C     C_R   0.001304 0.505143 0.513127 -0.144555
C155  C     C_R   0.000332 0.504520 0.485550 -0.146381
C156  C     C_R   0.496108 0.996981 0.514446 -0.147427
C157  C     C_R   0.437987 0.116795 0.486672 0.365543
C158  C     C_R   0.496116 0.996384 0.486864 -0.141001
C159  C     C_3   0.741080 0.997393 0.030214 0.150344
C160  C     C_3   0.818829 0.971236 0.024447 -0.337115
C161  C     C_3   0.874301 0.032505 0.027307 -0.985900
C162  C     C_3   0.253877 0.012461 0.980276 0.161447
C163  C     C_3   0.206337 0.991953 0.956905 -0.359079
C164  C     C_3   0.243343 0.935546 0.939447 -0.797331
C165  C     C_3   0.865240 0.690534 0.032976 0.120003
C166  C     C_3   0.835623 0.766660 0.038976 -0.330045
C167  C     C_3   0.756743 0.763842 0.048502 -0.895629
C168  C     C_R   0.952730 0.451407 0.389609 -0.207767
C169  C     C_3   0.098833 0.291653 0.973647 0.158463
C170  C     C_3   0.114709 0.228326 0.955150 -0.346890
C171  C     C_3   0.196640 0.214100 0.952837 -0.923955
C172  C     C_3   0.308744 0.153841 0.023141 0.112914
C173  C     C_3   0.340895 0.194601 0.046439 -0.324544
C174  C     C_3   0.328437 0.276700 0.044086 -0.961134
C175  C     C_3   0.727353 0.003235 0.961353 0.119560
C176  C     C_3   0.787018 0.976572 0.942849 -0.301429
C177  C     C_3   0.828190 0.040208 0.930622 -0.980281
C178  C     C_3   0.935593 0.281811 0.032937 0.157258
C179  C     C_R   0.019275 0.436844 0.609676 -0.196612
C180  C     C_3   0.937066 0.221212 0.053419 -0.292667
C181  C     C_3   0.860389 0.203990 0.063287 -1.013473
C182  C     C_3   0.885372 0.705644 0.963068 0.144080
C183  C     C_3   0.883591 0.766329 0.942600 -0.305372
C184  C     C_3   0.807484 0.775460 0.930920 -0.959758
C185  C     C_3   0.235126 0.501686 0.530543 0.142472
C186  C     C_3   0.315369 0.478438 0.529915 -0.313262
C187  C     C_3   0.366148 0.543290 0.533822 -1.009658
C188  C     C_3   0.750157 0.535007 0.480062 0.173016
C189  C     C_3   0.697798 0.526919 0.457007 -0.360155
C190  C     C_R   0.566432 0.986478 0.390291 -0.196601
C191  C     C_3   0.721221 0.465836 0.438599 -0.802742
C192  C     C_3   0.463303 0.231491 0.529290 0.154766
C193  C     C_3   0.431565 0.295275 0.544758 -0.301048
C194  C     C_3   0.486931 0.356680 0.547868 -1.003524
C195  C     C_3   0.515871 0.766530 0.467993 0.131738
C196  C     C_3   0.546019 0.692667 0.459196 -0.294988
C197  C     C_3   0.484826 0.639254 0.452987 -1.020118
C198  C     C_3   0.827570 0.662126 0.527541 0.118956
C199  C     C_3   0.762696 0.695122 0.542095 -0.342281
C200  C     C_3   0.768760 0.777985 0.543936 -0.864784
C201  C     C_R   0.534071 0.057067 0.610457 -0.202245
C202  C     C_3   0.228134 0.488621 0.461572 0.126903
C203  C     C_3   0.283114 0.456957 0.442229 -0.283147
C204  C     C_3   0.330319 0.516653 0.430297 -1.002847
C205  C     C_3   0.537762 0.761588 0.532815 0.128478
C206  C     C_3   0.551583 0.728107 0.559687 -0.298748
C207  C     C_3   0.508192 0.657968 0.563429 -1.011788
C208  C     C_3   0.335465 0.172464 0.471078 0.147108
C209  C     C_3   0.307130 0.241754 0.457863 -0.336279
C210  C     C_3   0.224434 0.239988 0.454352 -0.879304
C211  C     C_3   0.840655 0.441314 0.342312 0.101775
C212  C     C_R   0.042973 0.547604 0.389896 -0.216474
C213  C     C_3   0.781633 0.427974 0.362894 -0.338746
C214  C     C_3   0.709290 0.463274 0.355156 -0.970688
C215  C     C_3   0.120819 0.383518 0.657506 0.133511
C216  C     C_3   0.173742 0.358425 0.636222 -0.363617
C217  C     C_3   0.252688 0.361129 0.645679 -0.947091
C218  C     C_3   0.631848 0.890929 0.344055 0.132850
C219  C     C_3   0.672264 0.847516 0.365125 -0.371586
C220  C     C_3   0.681697 0.767737 0.357302 -0.914537
C221  C     C_3   0.507347 0.168852 0.656805 0.083246
C222  C     C_3   0.496882 0.223700 0.634524 -0.350628
C223  C     C_R   0.500098 0.000038 0.179824 0.813101
C224  C     C_R   0.981539 0.563215 0.609620 -0.224778
C225  C     C_3   0.443853 0.284378 0.642111 -0.954268
C226  C     C_3   0.156932 0.557677 0.342837 0.106278
C227  C     C_3   0.216311 0.570307 0.363323 -0.345914
C228  C     C_3   0.288293 0.534669 0.355368 -0.975087
C229  C     C_3   0.880516 0.619352 0.656456 0.139494
C230  C     C_3   0.831019 0.650683 0.635138 -0.374294
C231  C     C_3   0.751292 0.651732 0.643747 -0.944256
C232  C     C_3   0.369372 0.108643 0.345348 0.142150
C233  C     C_3   0.330213 0.150848 0.366998 -0.382063
C234  C     C_3   0.320179 0.231043 0.359743 -0.922666
C235  C     C_R   0.436940 0.011402 0.390651 -0.228150
C236  C     C_3   0.491614 0.832123 0.657597 0.087156
C237  C     C_3   0.511589 0.782354 0.634656 -0.368045
C238  C     C_3   0.559362 0.718537 0.643364 -0.958693
C239  C     C_3   0.330630 0.992319 0.843549 0.084627
C240  C     C_3   0.274506 0.999186 0.865574 -0.351324
C241  C     C_3   0.214194 0.053457 0.858657 -0.951474
C242  C     C_3   0.613545 0.871355 0.155100 0.134660
C243  C     C_3   0.656183 0.831445 0.133731 -0.378314
C244  C     C_3   0.736315 0.821774 0.141139 -0.921485
C245  C     C_3   0.095782 0.361700 0.842821 0.125953
C246  C     C_R   0.466803 0.943638 0.610454 -0.218346
C247  C     C_3   0.113638 0.306366 0.864315 -0.366357
C248  C     C_3   0.102954 0.228216 0.854870 -0.955532
C249  C     C_3   0.084883 0.645271 0.159234 0.114578
C250  C     C_3   0.100214 0.705028 0.139118 -0.349721
C251  C     C_3   0.083528 0.780595 0.150087 -0.950211
C252  C     C_3   0.669015 0.006697 0.843955 0.087102
C253  C     C_3   0.724965 0.000270 0.866062 -0.349129
C254  C     C_3   0.784781 0.945110 0.859570 -0.965196
C255  C     C_3   0.387693 0.129134 0.154750 0.141272
C256  C     C_3   0.345619 0.168780 0.133136 -0.387097
C257  C     C_R   0.443170 0.965310 0.889533 -0.201455
C258  C     C_3   0.265390 0.178860 0.140326 -0.911233
C259  C     C_3   0.903976 0.639551 0.842641 0.126919
C260  C     C_3   0.886166 0.693843 0.864438 -0.369758
C261  C     C_3   0.896452 0.772461 0.855382 -0.957399
C262  C     C_3   0.917707 0.355238 0.156995 0.119061
C263  C     C_3   0.902895 0.299423 0.135455 -0.359175
C264  C     C_3   0.923825 0.222454 0.144110 -0.958313
C265  C     C_R   0.516624 0.936272 0.109510 -0.197775
C266  C     C_R   0.057315 0.469079 0.890350 -0.204716
C267  C     C_R   0.052944 0.540994 0.109987 -0.192304
C268  C     C_R   0.555709 0.034132 0.889587 -0.212967
C269  C     C_R   0.485876 0.064462 0.109511 -0.226546
C270  C     C_R   0.940983 0.531740 0.889996 -0.219295
C271  C     C_R   0.499933 0.999942 0.819955 0.853540
C272  C     C_R   0.942933 0.468349 0.110009 -0.231628
C273  C     C_R   0.951810 0.452313 0.362365 0.419926
C274  C     C_R   0.023432 0.437445 0.636879 0.409581
C275  C     C_R   0.565676 0.982873 0.363087 0.406918
C276  C     C_R   0.531818 0.058796 0.637679 0.413751
C277  C     C_R   0.045413 0.546963 0.362687 0.423239
C278  C     C_R   0.977796 0.562821 0.636813 0.419357
C279  C     C_R   0.436339 0.015699 0.363462 0.418110
C280  C     C_R   0.468744 0.941681 0.637664 0.419274
C281  C     C_R   0.441322 0.967804 0.862311 0.413243
C282  C     C_R   0.500013 0.000186 0.680050 0.848311
C283  C     C_R   0.519451 0.936181 0.136747 0.408953
C284  C     C_R   0.057116 0.466372 0.863102 0.416615
C285  C     C_R   0.053516 0.541033 0.137259 0.409779
C286  C     C_R   0.558003 0.031630 0.862384 0.416182
C287  C     C_R   0.482110 0.064246 0.136712 0.419343
C288  C     C_R   0.942142 0.534377 0.862787 0.422002
C289  C     C_R   0.944817 0.464042 0.137167 0.426111
C290  C     C_R   0.998993 0.499724 0.348677 -0.250992
C291  C     C_R   0.000425 0.500108 0.650914 -0.266722
C292  C     C_R   0.500629 0.999436 0.349171 -0.269053
C293  C     C_R   0.500090 0.999907 0.320178 0.812621
C294  C     C_R   0.500155 0.000217 0.651466 -0.240685
C295  C     C_R   0.499739 0.999797 0.848554 -0.243686
C296  C     C_R   0.500512 0.000134 0.150827 -0.266759
C297  C     C_R   0.999824 0.500306 0.848955 -0.257930
C298  C     C_R   0.999656 0.501576 0.151148 -0.254953
C299  C     C_R   0.997421 0.499505 0.403399 0.176706
C300  C     C_R   0.000345 0.500025 0.595771 0.148607
C301  C     C_R   0.501995 0.998672 0.404320 0.152480
C302  C     C_R   0.500433 0.000422 0.596733 0.167427
C303  C     C_R   0.499281 0.999813 0.903332 0.163157
C304  C     C_R   0.000027 0.500045 0.679860 0.805286
C305  C     C_R   0.501535 0.000484 0.095718 0.161579
C306  C     C_R   0.998878 0.500484 0.903965 0.164600
C307  C     C_R   0.997306 0.505629 0.096268 0.162746
C308  C     C_R   0.859891 0.640057 0.249990 0.796671
C309  C     C_R   0.140068 0.359932 0.750009 0.785544
C310  C     C_R   0.359850 0.859870 0.250011 0.797548
C311  C     C_R   0.640193 0.140073 0.750017 0.803882
C312  C     C_R   0.140105 0.359918 0.250004 0.797447
C313  C     C_R   0.859978 0.640135 0.750013 0.787038
C314  C     C_R   0.640174 0.140126 0.249983 0.798577
C315  C     C_R   0.999755 0.499930 0.319997 0.824911
C316  C     C_R   0.359840 0.859857 0.750012 0.804551
C317  C     C_R   0.859941 0.359855 0.750040 0.799336
C318  C     C_R   0.140101 0.640124 0.249976 0.785455
C319  C     C_R   0.359868 0.140034 0.750001 0.791990
C320  C     C_R   0.640132 0.860012 0.249983 0.791630
C321  C     C_R   0.140033 0.640184 0.750038 0.800169
C322  C     C_R   0.859832 0.359917 0.250011 0.788223
C323  C     C_R   0.640103 0.859915 0.750000 0.792715
C324  C     C_R   0.359852 0.139998 0.249963 0.793030
C325  C     C_R   0.282668 0.609849 0.270597 -0.147156
C326  C     C_R   0.630074 0.964434 0.012778 0.412314
C327  C     C_R   0.871000 0.236525 0.784237 -0.140181
C328  C     C_R   0.236497 0.128991 0.215942 -0.163246
C329  C     C_R   0.615472 0.723266 0.724445 -0.147990
C330  C     C_R   0.717633 0.389527 0.271056 -0.147520
C331  C     C_R   0.263781 0.628678 0.716173 -0.138997
C332  C     C_R   0.764079 0.871939 0.216292 -0.162227
C333  C     C_R   0.385515 0.277829 0.725239 -0.146143
C334  C     C_R   0.277288 0.385057 0.724830 -0.155973
C335  C     C_R   0.871771 0.764085 0.216258 -0.143745
C336  C     C_R   0.372049 0.735218 0.716576 -0.128762
H1    H     H_    0.040949 0.863780 0.211545 0.139015
H2    H     H_    0.669718 0.574777 0.312472 0.129221
H3    H     H_    0.737623 0.819796 0.053247 0.310380
H4    H     H_    0.752693 0.729771 0.066334 0.253918
H5    H     H_    0.119938 0.277466 0.993346 0.151751
H6    H     H_    0.128290 0.340777 0.966268 0.122375
H7    H     H_    0.087427 0.178150 0.962391 0.221903
H8    H     H_    0.092512 0.241462 0.935554 0.255570
H9    H     H_    0.225293 0.264136 0.946230 0.266375
H10   H     H_    0.206675 0.170411 0.938337 0.284887
H11   H     H_    0.219284 0.196531 0.971895 0.268515
H12   H     H_    0.249372 0.166136 0.022026 0.156751
H13   H     H_    0.171208 0.923315 0.813481 0.121045
H14   H     H_    0.333302 0.174915 0.004734 0.133231
H15   H     H_    0.314855 0.174819 0.064655 0.258019
H16   H     H_    0.400533 0.183683 0.047626 0.212922
H17   H     H_    0.355154 0.298058 0.026243 0.266095
H18   H     H_    0.352234 0.304572 0.061264 0.274031
H19   H     H_    0.269051 0.289105 0.043306 0.275307
H20   H     H_    0.753124 0.036730 0.976722 0.114559
H21   H     H_    0.689161 0.039006 0.950243 0.132359
H22   H     H_    0.826258 0.941523 0.953686 0.217881
H23   H     H_    0.761970 0.943449 0.927145 0.254856
H24   H     H_    0.862470 0.043287 0.209813 0.133088
H25   H     H_    0.790135 0.075379 0.919329 0.267552
H26   H     H_    0.870790 0.018894 0.917244 0.267871
H27   H     H_    0.855049 0.073336 0.945947 0.273498
H28   H     H_    0.909729 0.260620 0.014868 0.137427
H29   H     H_    0.901537 0.327629 0.040630 0.123334
H30   H     H_    0.961862 0.171247 0.044890 0.219698
H31   H     H_    0.971119 0.238436 0.070211 0.263867
H32   H     H_    0.836138 0.252685 0.072861 0.272651
H33   H     H_    0.863196 0.159137 0.077797 0.269708
H34   H     H_    0.824737 0.186840 0.046930 0.267313
H35   H     H_    0.949441 0.853637 0.796994 0.132931
H36   H     H_    0.847722 0.721250 0.979013 0.128231
H37   H     H_    0.865457 0.654197 0.953948 0.117561
H38   H     H_    0.900494 0.818632 0.951681 0.217235
H39   H     H_    0.922698 0.753390 0.926731 0.260218
H40   H     H_    0.789430 0.723716 0.921751 0.267416
H41   H     H_    0.808662 0.818598 0.915743 0.265648
H42   H     H_    0.767792 0.791627 0.946227 0.296631
H43   H     H_    0.222572 0.522694 0.550291 0.184074
H44   H     H_    0.226478 0.547948 0.516751 0.065646
H45   H     H_    0.325377 0.437820 0.545598 0.233899
H46   H     H_    0.329081 0.423445 0.313128 0.130024
H47   H     H_    0.328020 0.452232 0.510947 0.229939
H48   H     H_    0.358378 0.583955 0.518003 0.261230
H49   H     H_    0.423745 0.524222 0.533470 0.276527
H50   H     H_    0.355178 0.569547 0.552894 0.273108
H51   H     H_    0.720685 0.566746 0.495190 0.145339
H52   H     H_    0.762923 0.479779 0.488124 0.121114
H53   H     H_    0.642321 0.514111 0.464485 0.166835
H54   H     H_    0.694250 0.579293 0.446125 0.247907
H55   H     H_    0.776664 0.475970 0.430836 0.300810
H56   H     H_    0.682489 0.462903 0.422018 0.239757
H57   H     H_    0.576688 0.328595 0.686465 0.120349
H58   H     H_    0.720935 0.412548 0.448919 0.237000
H59   H     H_    0.480591 0.251826 0.509816 0.157723
H60   H     H_    0.511934 0.209802 0.539876 0.131167
H61   H     H_    0.382490 0.316713 0.534531 0.227883
H62   H     H_    0.414705 0.275828 0.564352 0.250717
H63   H     H_    0.536436 0.336452 0.558118 0.274115
H64   H     H_    0.462410 0.401483 0.559511 0.274526
H65   H     H_    0.502686 0.378680 0.528523 0.269548
H66   H     H_    0.483899 0.790849 0.451766 0.170699
H67   H     H_    0.477349 0.757969 0.484444 0.068293
H68   H     H_    0.135833 0.959022 0.211715 0.135424
H69   H     H_    0.580357 0.700429 0.441578 0.243278
H70   H     H_    0.580926 0.669040 0.474793 0.209644
H71   H     H_    0.451108 0.629183 0.470594 0.263022
H72   H     H_    0.508649 0.586559 0.446467 0.272483
H73   H     H_    0.449588 0.661251 0.437206 0.276776
H74   H     H_    0.828997 0.685717 0.507543 0.157376
H75   H     H_    0.878790 0.676730 0.538022 0.137054
H76   H     H_    0.711379 0.680958 0.531733 0.227960
H77   H     H_    0.760241 0.671812 0.562061 0.241654
H78   H     H_    0.819907 0.793434 0.554125 0.248992
H79   H     H_    0.828171 0.076838 0.813842 0.121709
H80   H     H_    0.721722 0.800040 0.555089 0.303329
H81   H     H_    0.768338 0.802654 0.524181 0.281122
H82   H     H_    0.259033 0.517126 0.476982 0.117065
H83   H     H_    0.193438 0.529575 0.451273 0.128867
H84   H     H_    0.319022 0.417113 0.452399 0.212144
H85   H     H_    0.253742 0.427925 0.426432 0.256724
H86   H     H_    0.295773 0.556950 0.419783 0.269544
H87   H     H_    0.369578 0.492069 0.416348 0.273695
H88   H     H_    0.361424 0.545013 0.445773 0.274532
H89   H     H_    0.548146 0.718498 0.518136 0.156092
H90   H     H_    0.458976 0.635828 0.288279 0.133478
H91   H     H_    0.479132 0.778533 0.531810 0.086159
H92   H     H_    0.610588 0.715854 0.562124 0.231442
H93   H     H_    0.534864 0.767196 0.575013 0.248999
H94   H     H_    0.448822 0.669300 0.561540 0.272546
H95   H     H_    0.518823 0.635449 0.583138 0.274946
H96   H     H_    0.524748 0.616636 0.548764 0.271826
H97   H     H_    0.308565 0.167329 0.490440 0.160701
H98   H     H_    0.320867 0.124424 0.458883 0.134086
H99   H     H_    0.321802 0.289814 0.469930 0.232135
H100  H     H_    0.333436 0.247749 0.438483 0.240765
H101  H     H_    0.648035 0.552793 0.701555 0.128566
H102  H     H_    0.208490 0.192741 0.442112 0.251574
H103  H     H_    0.206020 0.290919 0.444589 0.302837
H104  H     H_    0.196898 0.235996 0.473556 0.278342
H105  H     H_    0.821771 0.418070 0.323527 0.161178
H106  H     H_    0.847646 0.501135 0.338926 0.106248
H107  H     H_    0.773533 0.368299 0.365407 0.238887
H108  H     H_    0.799167 0.451246 0.381805 0.224385
H109  H     H_    0.715688 0.523380 0.353704 0.267502
H110  H     H_    0.667392 0.451226 0.370155 0.268402
H111  H     H_    0.690253 0.441406 0.336208 0.262131
H112  H     H_    0.672242 0.423134 0.686198 0.123046
H113  H     H_    0.076804 0.172787 0.186256 0.125067
H114  H     H_    0.129161 0.348627 0.674966 0.182880
H115  H     H_    0.134144 0.440373 0.663614 0.093057
H116  H     H_    0.160376 0.301658 0.630366 0.245797
H117  H     H_    0.168151 0.394372 0.618914 0.251001
H118  H     H_    0.267258 0.417469 0.651658 0.259718
H119  H     H_    0.289640 0.344125 0.629664 0.278118
H120  H     H_    0.260647 0.323576 0.662440 0.272448
H121  H     H_    0.662192 0.885127 0.325442 0.185906
H122  H     H_    0.576633 0.867037 0.340603 0.095518
H123  H     H_    0.726950 0.871949 0.368423 0.245217
H124  H     H_    0.424353 0.670470 0.687073 0.116935
H125  H     H_    0.641075 0.849882 0.383634 0.251297
H126  H     H_    0.627540 0.741870 0.354426 0.257713
H127  H     H_    0.711162 0.737808 0.372917 0.278893
H128  H     H_    0.713880 0.763538 0.339039 0.275563
H129  H     H_    0.525435 0.198981 0.674349 0.150671
H130  H     H_    0.454074 0.143246 0.662034 0.121973
H131  H     H_    0.550391 0.248123 0.629296 0.234924
H132  H     H_    0.474720 0.195422 0.617158 0.243644
H133  H     H_    0.390608 0.260916 0.648116 0.276649
H134  H     H_    0.434819 0.321130 0.625210 0.270034
H135  H     H_    0.541704 0.362841 0.289135 0.133220
H136  H     H_    0.466541 0.316960 0.658359 0.252300
H137  H     H_    0.175690 0.581039 0.324032 0.160902
H138  H     H_    0.149578 0.497932 0.339439 0.104961
H139  H     H_    0.224856 0.629892 0.365857 0.235508
H140  H     H_    0.198823 0.546915 0.382262 0.224519
H141  H     H_    0.281768 0.474524 0.354288 0.267394
H142  H     H_    0.330925 0.547233 0.370026 0.272715
H143  H     H_    0.306519 0.555817 0.336188 0.261978
H144  H     H_    0.872327 0.651704 0.674503 0.181344
H145  H     H_    0.863845 0.562322 0.661257 0.094812
H146  H     H_    0.354069 0.449475 0.703143 0.129285
H147  H     H_    0.848352 0.707245 0.630424 0.240171
H148  H     H_    0.835831 0.616996 0.617268 0.247941
H149  H     H_    0.732481 0.595586 0.648313 0.264451
H150  H     H_    0.717010 0.674108 0.627790 0.273305
H151  H     H_    0.744402 0.686689 0.661229 0.271739
H152  H     H_    0.337964 0.115574 0.327000 0.183299
H153  H     H_    0.424402 0.132678 0.341641 0.098167
H154  H     H_    0.275782 0.126149 0.370587 0.239655
H155  H     H_    0.362524 0.147576 0.385248 0.247231
H156  H     H_    0.374088 0.257135 0.356521 0.260980
H157  H     H_    0.924210 0.828952 0.186851 0.124025
H158  H     H_    0.291840 0.260061 0.375807 0.270715
H159  H     H_    0.286704 0.236225 0.341801 0.276612
H160  H     H_    0.468967 0.797959 0.673461 0.157309
H161  H     H_    0.541657 0.858263 0.665647 0.117253
H162  H     H_    0.461030 0.760822 0.625536 0.237490
H163  H     H_    0.542151 0.814222 0.619877 0.235916
H164  H     H_    0.608787 0.738757 0.653555 0.277278
H165  H     H_    0.576632 0.686448 0.626113 0.269082
H166  H     H_    0.528337 0.682155 0.656577 0.253669
H167  H     H_    0.301634 0.975894 0.825544 0.148508
H168  H     H_    0.828940 0.924527 0.186931 0.125910
H169  H     H_    0.355567 0.046575 0.839277 0.123019
H170  H     H_    0.249801 0.944957 0.869495 0.232329
H171  H     H_    0.301789 0.018340 0.883584 0.247623
H172  H     H_    0.237744 0.108108 0.854640 0.277865
H173  H     H_    0.175514 0.058201 0.875210 0.267419
H174  H     H_    0.183615 0.034592 0.841312 0.251582
H175  H     H_    0.620897 0.841186 0.173696 0.184095
H176  H     H_    0.636873 0.926880 0.158335 0.095704
H177  H     H_    0.631603 0.776879 0.130397 0.241764
H178  H     H_    0.653166 0.863036 0.115309 0.246487
H179  H     H_    0.450236 0.354961 0.703854 0.124850
H180  H     H_    0.762280 0.875790 0.144150 0.260308
H181  H     H_    0.765622 0.792996 0.125242 0.271895
H182  H     H_    0.741257 0.788848 0.159223 0.276865
H183  H     H_    0.128679 0.348016 0.825312 0.177087
H184  H     H_    0.037360 0.356703 0.836892 0.093150
H185  H     H_    0.171221 0.313359 0.870652 0.241278
H186  H     H_    0.077464 0.315945 0.881329 0.240660
H187  H     H_    0.045991 0.220137 0.848043 0.259802
H188  H     H_    0.113905 0.189699 0.871109 0.273273
H189  H     H_    0.141343 0.215916 0.838719 0.275533
H190  H     H_    0.636693 0.457919 0.289114 0.132381
H191  H     H_    0.115930 0.657719 0.177265 0.175039
H192  H     H_    0.025926 0.646011 0.164777 0.092315
H193  H     H_    0.158568 0.702636 0.133225 0.243335
H194  H     H_    0.065908 0.696015 0.121592 0.240416
H195  H     H_    0.025511 0.784157 0.156257 0.254845
H196  H     H_    0.093577 0.822549 0.134912 0.277102
H197  H     H_    0.119405 0.792088 0.167001 0.272311
H198  H     H_    0.698176 0.022694 0.825917 0.147309
H199  H     H_    0.644054 0.952369 0.839863 0.124186
H200  H     H_    0.750186 0.054423 0.869620 0.233695
H201  H     H_    0.328377 0.576450 0.686605 0.121404
H202  H     H_    0.697402 0.982239 0.884177 0.242459
H203  H     H_    0.760711 0.890541 0.855871 0.278526
H204  H     H_    0.823252 0.940610 0.876196 0.266457
H205  H     H_    0.815712 0.962982 0.842152 0.255529
H206  H     H_    0.379895 0.159546 0.173242 0.182653
H207  H     H_    0.364271 0.073660 0.158054 0.098098
H208  H     H_    0.370451 0.223190 0.129666 0.240351
H209  H     H_    0.348878 0.136807 0.114836 0.239574
H210  H     H_    0.239179 0.124990 0.143450 0.261367
H211  H     H_    0.236479 0.207469 0.124271 0.273611
H212  H     H_    0.172029 0.077075 0.186363 0.128214
H213  H     H_    0.260232 0.212106 0.158296 0.275616
H214  H     H_    0.871096 0.654156 0.825206 0.176901
H215  H     H_    0.962403 0.644691 0.836734 0.093754
H216  H     H_    0.828704 0.686348 0.870841 0.240207
H217  H     H_    0.922614 0.683663 0.881337 0.239944
H218  H     H_    0.953180 0.780967 0.848375 0.260106
H219  H     H_    0.886004 0.810142 0.871867 0.272435
H220  H     H_    0.857514 0.785505 0.839461 0.276962
H221  H     H_    0.888004 0.338064 0.174827 0.170935
H222  H     H_    0.976927 0.355048 0.162175 0.097132
H223  H     H_    0.423710 0.327310 0.313454 0.127230
H224  H     H_    0.551778 0.647213 0.702265 0.126325
H225  H     H_    0.843966 0.300547 0.130286 0.236661
H226  H     H_    0.935033 0.313604 0.117840 0.238849
H227  H     H_    0.982745 0.219940 0.149187 0.260279
H228  H     H_    0.913228 0.183485 0.128033 0.271845
H229  H     H_    0.890909 0.205923 0.161274 0.269892
H230  H     H_    0.363780 0.540943 0.288380 0.133283
H231  H     H_    0.922720 0.172463 0.814131 0.121797
H232  H     H_    0.242561 0.566712 0.271472 0.120221
H233  H     H_    0.913866 0.276987 0.785010 0.107566
H234  H     H_    0.276988 0.085881 0.215220 0.107463
H235  H     H_    0.571978 0.763360 0.723867 0.114048
H236  H     H_    0.757685 0.432720 0.271884 0.118845
H237  H     H_    0.223215 0.585921 0.715362 0.108900
H238  H     H_    0.723582 0.915049 0.215572 0.107276
H239  H     H_    0.854686 0.949600 0.796467 0.125093
H240  H     H_    0.428980 0.237715 0.724646 0.114732
H241  H     H_    0.236742 0.428075 0.723909 0.116582
H242  H     H_    0.914871 0.723575 0.215537 0.106810
H243  H     H_    0.415566 0.774978 0.716190 0.102120
H244  H     H_    0.567043 0.242172 0.271751 0.122785
H245  H     H_    0.764446 0.573213 0.723086 0.115360
H246  H     H_    0.085706 0.277360 0.215226 0.107060
H247  H     H_    0.724131 0.085270 0.784430 0.103823
H248  H     H_    0.433450 0.756983 0.271247 0.123353
H249  H     H_    0.585257 0.224283 0.715761 0.103194
H250  H     H_    0.957091 0.138772 0.209481 0.136309
H251  H     H_    0.256942 0.933491 0.228798 0.123923
H252  H     H_    0.928061 0.736510 0.776199 0.115747
H253  H     H_    0.223772 0.414622 0.284424 0.105999
H254  H     H_    0.275485 0.914853 0.784189 0.103339
H255  H     H_    0.742265 0.067580 0.227926 0.122078
H256  H     H_    0.071358 0.262790 0.775714 0.116823
H257  H     H_    0.775595 0.584422 0.284069 0.105907
H258  H     H_    0.585129 0.776704 0.284409 0.107655
H259  H     H_    0.261731 0.070578 0.775047 0.114459
H260  H     H_    0.932143 0.258914 0.227384 0.119827
H261  H     H_    0.076699 0.827702 0.813804 0.121156
H262  H     H_    0.085745 0.723149 0.784809 0.107570
H263  H     H_    0.414057 0.222161 0.284818 0.107751
H264  H     H_    0.737437 0.928502 0.775645 0.113673
H265  H     H_    0.066742 0.742539 0.228415 0.122471
H266  H     H_    0.776908 0.414054 0.715226 0.109301
H267  H     H_    0.918050 0.413747 0.400106 0.157617
H268  H     H_    0.032959 0.387215 0.599328 0.193760
H269  H     H_    0.617430 0.978033 0.400544 0.189618
H270  H     H_    0.560663 0.100771 0.599926 0.165229
H271  H     H_    0.077351 0.584976 0.400618 0.152161
H272  H     H_    0.574911 0.670701 0.312720 0.126504
H273  H     H_    0.967854 0.612800 0.599186 0.174349
H274  H     H_    0.386526 0.020001 0.401246 0.170080
H275  H     H_    0.440453 0.899872 0.599912 0.162033
H276  H     H_    0.399914 0.937842 0.899991 0.162145
H277  H     H_    0.527633 0.886235 0.099012 0.179621
H278  H     H_    0.102649 0.445379 0.900979 0.172199
H279  H     H_    0.095685 0.569067 0.099444 0.177953
H280  H     H_    0.598948 0.061427 0.900113 0.159396
H281  H     H_    0.475046 0.114603 0.098993 0.163566
H282  H     H_    0.895229 0.555490 0.900361 0.165188
H283  H     H_    0.144012 0.048946 0.795466 0.125581
H284  H     H_    0.899769 0.440983 0.099461 0.160328
H285  H     H_    0.738080 0.012578 0.051092 0.188236
H286  H     H_    0.729095 0.048017 0.018895 0.071296
H287  H     H_    0.833368 0.926730 0.038198 0.225762
H288  H     H_    0.821809 0.949152 0.004367 0.241421
H289  H     H_    0.860589 0.078596 0.014101 0.265311
H290  H     H_    0.929542 0.011841 0.022228 0.276035
H291  H     H_    0.875272 0.051927 0.047736 0.277077
H292  H     H_    0.218328 0.041464 0.994423 0.142457
H293  H     H_    0.273967 0.961222 0.989721 0.127403
H294  H     H_    0.049364 0.145007 0.796042 0.133596
H295  H     H_    0.154125 0.968629 0.964093 0.178178
H296  H     H_    0.193090 0.041454 0.945336 0.235339
H297  H     H_    0.295616 0.956750 0.931783 0.290465
H298  H     H_    0.207161 0.922796 0.922734 0.238251
H299  H     H_    0.253990 0.884432 0.950468 0.246184
H300  H     H_    0.860010 0.656219 0.050706 0.173815
H301  H     H_    0.830707 0.665549 0.017526 0.072439
H302  H     H_    0.870002 0.792448 0.054212 0.240026
H303  H     H_    0.838327 0.800684 0.021087 0.225244
H304  H     H_    0.720815 0.740908 0.033162 0.269526
N1    N     N_R   0.501799 0.001004 0.067582 -0.333071
N2    N     N_R   0.499205 0.000140 0.931414 -0.335891
N3    N     N_R   0.996713 0.505308 0.068201 -0.331435
N4    N     N_R   0.997917 0.500712 0.932092 -0.332312
N5    N     N_R   0.000474 0.500507 0.567559 -0.331092
N6    N     N_R   0.997175 0.499324 0.431375 -0.339108
N7    N     N_R   0.500257 0.000327 0.568693 -0.335544
N8    N     N_R   0.502181 0.998522 0.432504 -0.330268
O1    O     O_3   0.000000 0.500000 0.250000 -0.495708
O2    O     O_R   0.060810 0.500000 0.807590 -0.606692
O3    O     O_3   0.890785 0.425015 0.149818 -0.612888
O4    O     O_R   0.500000 0.939190 0.192410 -0.605529
O5    O     O_R   0.500000 0.060810 0.807590 -0.621351
O6    O     O_R   0.560810 1.000000 0.692410 -0.621554
O7    O     O_R   0.439190 1.000000 0.307590 -0.608032
O8    O     O_R   0.000000 0.560810 0.692410 -0.607764
O9    O     O_R   0.000000 0.439190 0.307590 -0.609760
O10   O     O_R   0.439190 1.000000 0.692410 -0.621368
O11   O     O_R   0.560810 1.000000 0.307590 -0.607152
O12   O     O_R   0.000000 0.439190 0.692410 -0.607169
O13   O     O_3   0.000000 0.500000 0.750000 -0.494296
O14   O     O_R   0.000000 0.560810 0.307590 -0.609634
O15   O     O_R   0.853910 0.585600 0.235240 -0.635521
O16   O     O_R   0.146090 0.414400 0.764760 -0.635210
O17   O     O_R   0.414400 0.853910 0.235240 -0.632269
O18   O     O_R   0.585600 0.146090 0.764760 -0.629192
O19   O     O_R   0.146090 0.414400 0.235240 -0.634711
O20   O     O_R   0.853910 0.585600 0.764760 -0.634231
O21   O     O_R   0.585600 0.146090 0.235240 -0.633164
O22   O     O_R   0.414400 0.853910 0.764760 -0.628932
O23   O     O_R   0.853910 0.414400 0.764760 -0.632919
O24   O     O_3   0.500000 1.000000 0.250000 -0.491352
O25   O     O_R   0.146090 0.585600 0.235240 -0.638413
O26   O     O_R   0.414400 0.146090 0.764760 -0.638425
O27   O     O_R   0.585600 0.853910 0.235240 -0.642583
O28   O     O_R   0.146090 0.585600 0.764760 -0.632473
O29   O     O_R   0.853910 0.414400 0.235240 -0.636575
O30   O     O_R   0.585600 0.853910 0.764760 -0.638244
O31   O     O_R   0.414400 0.146090 0.235240 -0.642663
O32   O     O_R   0.353910 0.085600 0.735240 -0.639385
O33   O     O_R   0.646090 0.914400 0.264760 -0.644751
O34   O     O_R   0.914400 0.353910 0.735240 -0.630781
O35   O     O_3   0.500000 1.000000 0.750000 -0.495485
O36   O     O_R   0.085600 0.646090 0.264760 -0.629640
O37   O     O_R   0.646090 0.914400 0.735240 -0.639521
O38   O     O_R   0.353910 0.085600 0.264760 -0.643719
O39   O     O_R   0.085600 0.646090 0.735240 -0.631596
O40   O     O_R   0.914400 0.353910 0.264760 -0.629307
O41   O     O_R   0.353910 0.914400 0.264760 -0.632586
O42   O     O_R   0.646090 0.085600 0.735240 -0.629143
O43   O     O_R   0.914400 0.646090 0.264760 -0.636189
O44   O     O_R   0.085600 0.353910 0.735240 -0.642523
O45   O     O_R   0.646090 0.085600 0.264760 -0.631156
O46   O     O_R   0.060810 0.500000 0.192410 -0.607884
O47   O     O_R   0.353910 0.914400 0.735240 -0.629610
O48   O     O_R   0.085600 0.353910 0.264760 -0.636443
O49   O     O_R   0.914400 0.646090 0.735240 -0.642876
O50   O     O_2   0.379107 0.037355 0.068272 -0.534042
O51   O     O_2   0.610069 0.936057 0.931165 -0.545964
O52   O     O_2   0.019863 0.379669 0.069369 -0.545687
O53   O     O_2   0.996171 0.628489 0.931371 -0.550520
O54   O     O_2   0.622330 0.958052 0.068086 -0.572418
O55   O     O_2   0.386594 0.061309 0.930983 -0.532995
O56   O     O_2   0.983594 0.632501 0.068110 -0.543251
O57   O     O_R   0.939190 0.500000 0.807590 -0.605769
O58   O     O_2   0.003555 0.372896 0.931945 -0.545007
O59   O     O_2   0.878659 0.540291 0.568126 -0.537057
O60   O     O_2   0.107266 0.434585 0.430671 -0.551108
O61   O     O_2   0.573630 0.895735 0.569398 -0.557872
O62   O     O_2   0.453218 0.116841 0.431828 -0.543376
O63   O     O_2   0.119665 0.453583 0.567809 -0.564732
O64   O     O_2   0.885079 0.560677 0.430605 -0.518097
O65   O     O_2   0.431295 0.108146 0.569161 -0.537193
O66   O     O_2   0.560529 0.884488 0.432295 -0.560737
O67   O     O_3   0.692113 0.939200 0.025386 -0.590594
O68   O     O_R   0.500000 0.060810 0.192410 -0.607468
O69   O     O_3   0.310422 0.060371 0.972359 -0.589673
O70   O     O_3   0.939498 0.696391 0.025456 -0.569877
O71   O     O_3   0.022584 0.303855 0.974708 -0.585637
O72   O     O_3   0.316535 0.077464 0.026675 -0.605468
O73   O     O_3   0.691914 0.941898 0.972393 -0.585064
O74   O     O_3   0.007978 0.304102 0.027582 -0.596594
O75   O     O_3   0.957391 0.698677 0.972787 -0.569002
O76   O     O_3   0.191210 0.439950 0.525124 -0.572168
O77   O     O_3   0.812998 0.574490 0.472293 -0.577273
O78   O     O_3   0.409139 0.177255 0.526775 -0.594919
O79   O     O_R   0.500000 0.939190 0.807590 -0.621306
O80   O     O_3   0.575257 0.811834 0.474999 -0.577250
O81   O     O_3   0.819133 0.585604 0.526630 -0.610482
O82   O     O_3   0.186748 0.430895 0.472382 -0.585159
O83   O     O_3   0.587319 0.819472 0.528275 -0.582634
O84   O     O_3   0.412041 0.177761 0.473655 -0.597537
O85   O     O_3   0.906167 0.404826 0.349268 -0.612420
O86   O     O_3   0.047343 0.374803 0.649396 -0.606168
O87   O     O_3   0.630236 0.966205 0.350382 -0.606414
O88   O     O_3   0.562514 0.117264 0.650653 -0.622352
O89   O     O_3   0.091814 0.594573 0.349950 -0.613688
O90   O     O_R   0.939190 0.500000 0.192410 -0.607674
O91   O     O_3   0.954984 0.625757 0.649310 -0.609866
O92   O     O_3   0.371327 0.032987 0.351142 -0.611020
O93   O     O_3   0.437041 0.883450 0.650528 -0.622536
O94   O     O_3   0.382800 0.937270 0.849287 -0.622335
O95   O     O_3   0.537837 0.871909 0.149343 -0.607532
O96   O     O_3   0.115329 0.433194 0.850587 -0.609047
O97   O     O_3   0.109578 0.576654 0.150027 -0.609191
O98   O     O_3   0.616855 0.061921 0.849445 -0.624322
O99   O     O_3   0.463536 0.128454 0.149251 -0.610578
O100  O     O_3   0.884417 0.567656 0.849983 -0.609724
Zn1   Zn    Zn3+2 1.000000 0.586890 0.272200 0.974823
Zn2   Zn    Zn3+2 0.500000 0.913110 0.227800 0.969960
Zn3   Zn    Zn3+2 0.913110 0.500000 0.772200 0.974799
Zn4   Zn    Zn3+2 0.086890 0.500000 0.227800 0.970368
Zn5   Zn    Zn3+2 0.500000 0.913110 0.772200 0.978525
Zn6   Zn    Zn3+2 0.500000 0.086890 0.227800 0.969265
Zn7   Zn    Zn3+2 0.086890 0.500000 0.772200 0.974071
Zn8   Zn    Zn3+2 0.913110 0.500000 0.227800 0.971037
Zn9   Zn    Zn3+2 1.000000 0.413110 0.727800 0.969330
Zn10  Zn    Zn3+2 0.413110 1.000000 0.272200 0.968387
Zn11  Zn    Zn3+2 0.586890 1.000000 0.727800 0.977306
Zn12  Zn    Zn3+2 0.000000 0.413110 0.272200 0.976099
Zn13  Zn    Zn3+2 0.000000 0.586890 0.727800 0.968569
Zn14  Zn    Zn3+2 0.586890 1.000000 0.272200 0.969195
Zn15  Zn    Zn3+2 0.413110 1.000000 0.727800 0.976990
Zn16  Zn    Zn3+2 0.500000 0.086890 0.772200 0.977780

loop_
_geom_bond_atom_site_label_1
_geom_bond_atom_site_label_2
_ccdc_geom_bond_type
C236  H161  S    
C2    C35   A    
C206  H93   S    
C193  H61   S    
C132  C150  A    
C12   C91   A    
C133  C151  A    
C184  H41   S    
C218  O87   S    
C278  C291  A    
C264  H227  S    
C304  O8    A    
C25   H266  S    
C315  O9    A    
C188  H51   S    
C166  H302  S    
C289  O3    S    
C189  H54   S    
C109  C323  S    
C63   C98   A    
C330  H236  S    
O45   Zn14  S    
C308  O15   A    
C118  O53   S    
C141  C154  A    
O39   Zn13  S    
C172  H14   S    
C28   C40   A    
C211  O85   S    
C309  O44   A    
O35   Zn15  S    
C284  C297  A    
C320  O33   A    
C169  H5    S    
C30   C38   A    
C186  H45   S    
C120  C133  A    
C7    C42   A    
C300  N5    S    
C202  H82   S    
C131  O66   S    
C182  C183  S    
C252  H198  S    
C11   H253  S    
C88   C104  A    
C10   H252  S    
C197  H73   S    
C59   H1    S    
C212  H271  S    
C191  H55   S    
C32   C332  A    
C43   H57   S    
C25   C60   A    
C165  H300  S    
C147  C155  A    
C105  C319  S    
C106  C320  S    
C234  H159  S    
C224  H273  S    
C308  O43   A    
C199  C200  S    
C50   H294  S    
C223  O4    A    
C171  H9    S    
C244  H180  S    
C162  H293  S    
C118  C140  A    
C291  C304  S    
C304  O12   A    
C17   C52   A    
C122  N4    A    
C232  H153  S    
C37   H124  S    
C250  H194  S    
O13   Zn13  S    
C3    C65   A    
C191  H58   S    
C18   C85   A    
C202  C203  S    
C29   H224  S    
C51   C52   A    
C1    C298  S    
O16   Zn7   S    
C131  N8    A    
C120  O55   S    
C7    H248  S    
O1    Zn12  S    
C206  C207  S    
C257  C303  A    
C73   C108  A    
C129  C142  A    
C282  O6    A    
C245  H184  S    
C168  C299  A    
C31   C37   A    
C215  H114  S    
O35   Zn11  S    
C258  H211  S    
C311  O18   A    
C215  C216  S    
O41   Zn10  S    
C229  C230  S    
C262  H221  S    
C112  O2    A    
C242  H176  S    
C73   C330  A    
C249  H191  S    
O90   Zn8   S    
C15   H256  S    
C200  H80   S    
C38   H135  S    
O31   Zn6   S    
C224  C278  A    
C164  H297  S    
C185  O76   S    
C14   H255  S    
C216  C217  S    
C94   C96   A    
C255  H206  S    
C122  C136  A    
C154  C155  A    
C269  C305  A    
C126  O61   S    
O19   Zn4   S    
C232  O92   S    
C290  C315  S    
C68   C140  A    
C220  H126  S    
C19   H260  S    
C266  C306  A    
C265  C283  A    
C115  N1    A    
C266  C284  A    
C58   H239  S    
C217  H120  S    
O13   Zn9   S    
C223  O68   A    
C271  O5    A    
C196  C197  S    
C70   C105  A    
C22   C58   A    
C309  O16   A    
C95   C97   A    
C187  H50   S    
C317  O34   A    
C138  C151  A    
C185  H43   S    
C83   C91   A    
C216  H116  S    
C313  O49   A    
C113  C144  A    
O10   Zn15  S    
C235  C279  A    
C202  O82   S    
C156  C158  A    
C261  H219  S    
C259  H215  S    
O43   Zn1   S    
C128  N5    A    
C35   C137  A    
C217  H118  S    
C135  O82   S    
C322  O40   A    
C161  H290  S    
C241  H172  S    
O12   Zn9   S    
C33   C34   A    
C249  O97   S    
C175  O73   S    
C110  C324  S    
C69   C70   A    
O47   Zn15  S    
C277  O89   S    
C194  H64   S    
C48   H13   S    
C237  H163  S    
O49   Zn13  S    
C195  C196  S    
C173  H15   S    
C325  H232  S    
C266  H278  S    
C244  H182  S    
C204  H87   S    
C269  H281  S    
C193  C194  S    
C71   C106  A    
O30   Zn5   S    
O23   Zn3   S    
O24   Zn6   S    
C186  C187  S    
O28   Zn7   S    
C247  C248  S    
C252  C253  S    
C125  N6    A    
C299  N6    S    
C200  H81   S    
C251  H197  S    
C211  H106  S    
C177  H26   S    
C136  C153  A    
C226  O89   S    
C207  H95   S    
C285  C298  A    
C45   H35   S    
C82   C92   A    
C31   C331  A    
C16   C51   A    
C212  C299  A    
C238  H166  S    
C69   C334  A    
C61   C96   A    
C67   C103  A    
C222  H131  S    
O40   Zn12  S    
C293  O11   A    
C23   C59   A    
C233  H155  S    
C51   H2    S    
C178  O74   S    
C249  C250  S    
C306  N4    S    
C201  H270  S    
C123  N5    A    
C32   C36   A    
C219  H125  S    
C275  C292  A    
C253  C254  S    
C199  H77   S    
C311  O42   A    
C170  C171  S    
C44   C59   A    
C197  H71   S    
C258  H210  S    
C164  H299  S    
C253  H202  S    
C181  H32   S    
C288  O100  S    
C315  O14   A    
C326  O67   S    
C189  C191  S    
C239  O94   S    
C27   C41   A    
C16   H257  S    
C119  N1    A    
C54   H250  S    
C64   C99   A    
O57   Zn3   S    
C115  C137  A    
C61   C77   A    
C203  H84   S    
C256  C258  S    
C216  H117  S    
C16   C87   A    
C280  C294  A    
C174  H19   S    
C4    C39   A    
O34   Zn9   S    
C78   C111  A    
C220  H128  S    
C179  H268  S    
C149  C158  A    
C283  C296  A    
C322  O29   A    
C310  O41   A    
C259  C260  S    
O36   Zn1   S    
C24   C136  A    
C195  H66   S    
C132  C326  A    
C237  C238  S    
C34   C334  A    
C243  H178  S    
C257  C281  A    
C123  O59   S    
C86   C106  A    
C8    C95   A    
C122  O58   S    
C268  C303  A    
C4    H245  S    
C44   H68   S    
C227  H139  S    
C167  H4    S    
C111  C317  S    
C225  H134  S    
C221  H129  S    
C79   O76   S    
C274  O86   S    
C102  C316  S    
O79   Zn5   S    
C273  O85   S    
C25   C78   A    
C123  C145  A    
C107  C321  S    
C118  N4    A    
C65   C73   A    
O29   Zn8   S    
C115  O50   S    
C214  H109  S    
C241  H174  S    
C160  H288  S    
C222  C225  S    
C198  H74   S    
C190  C301  A    
C36   C335  A    
C209  H100  S    
O22   Zn5   S    
C254  H204  S    
C55   H261  S    
C319  O26   A    
O21   Zn6   S    
C221  C222  S    
C130  C143  A    
C272  C289  A    
C239  H169  S    
C62   C97   A    
C125  O60   S    
C208  H97   S    
C10   C45   A    
O4    Zn2   S    
C209  C210  S    
C215  H115  S    
C248  H187  S    
C271  C295  S    
O27   Zn2   S    
C314  O45   A    
C199  H76   S    
C168  C273  A    
C19   C54   A    
C230  H147  S    
C252  H199  S    
C251  H195  S    
C280  O93   S    
C135  C147  A    
C317  O23   A    
C162  O69   S    
C121  C134  A    
C137  C150  A    
C318  O25   A    
C29   C329  A    
C145  C154  A    
C215  O86   S    
C238  H164  S    
C66   C336  A    
C112  O57   A    
C26   C42   A    
C205  H89   S    
C165  O70   S    
C226  H137  S    
C201  C302  A    
C282  O10   A    
C57   O74   S    
C75   C110  A    
C307  N3    S    
C42   H90   S    
O9    Zn12  S    
C31   H201  S    
C41   H79   S    
C247  H186  S    
C159  H286  S    
C219  H123  S    
C181  H33   S    
C260  C261  S    
C192  H59   S    
C184  H42   S    
C169  O71   S    
C100  C314  S    
C262  C263  S    
C228  H142  S    
C46   O73   S    
C148  C156  A    
C264  H228  S    
C24   O71   S    
C234  H158  S    
C139  C152  A    
C188  H52   S    
C166  H303  S    
C128  O63   S    
C189  H53   S    
C327  H233  S    
C127  C149  A    
C328  H234  S    
C270  C306  A    
C234  H156  S    
C312  O19   A    
C240  C241  S    
C174  H17   S    
C202  H83   S    
C313  O20   A    
C267  C307  A    
C131  C144  A    
C303  N2    S    
C162  H292  S    
O42   Zn11  S    
C254  H203  S    
C35   O72   S    
C67   C335  A    
C21   C82   A    
C267  C285  A    
C229  H145  S    
O6    Zn11  S    
C324  O38   A    
C150  C151  A    
C194  H65   S    
C196  H69   S    
C183  H38   S    
C103  C308  S    
C305  N1    S    
C9    C94   A    
C236  H160  S    
C96   C310  S    
C47   C56   A    
C225  H136  S    
C1    O90   A    
C208  O84   S    
C48   C55   A    
C21   H263  S    
C204  H86   S    
C175  H21   S    
C255  H207  S    
C318  O36   A    
C11   C47   A    
C239  C240  S    
C8    C43   A    
O8    Zn13  S    
C218  H121  S    
C62   C76   A    
C213  H108  S    
C255  O99   S    
C79   C141  A    
C143  C156  A    
C263  C264  S    
C279  C292  A    
C117  C139  A    
C213  C214  S    
C172  C173  S    
C256  H208  S    
C163  H296  S    
C39   H101  S    
O17   Zn2   S    
C120  N2    A    
C119  C132  A    
C283  O95   S    
C319  O32   A    
C329  H235  S    
C71   C332  A    
C243  H177  S    
C190  H269  S    
C332  H238  S    
C248  H189  S    
C243  C244  S    
C245  H183  S    
C235  H274  S    
C221  H130  S    
C27   C327  A    
C57   C139  A    
C18   H259  S    
C17   H258  S    
C13   C134  A    
C192  O78   S    
C36   H157  S    
C7    C61   A    
C301  N8    S    
C170  H7    S    
C262  H222  S    
C18   C53   A    
C210  H103  S    
C163  C164  S    
C263  H226  S    
C208  C209  S    
C314  O21   A    
C12   H254  S    
C264  H229  S    
C164  H298  S    
C288  C297  A    
C119  O54   S    
C23   C80   A    
C128  C141  A    
C93   C99   A    
C229  O91   S    
C140  C153  A    
C205  H91   S    
O44   Zn9   S    
C206  H92   S    
C187  H48   S    
C101  C157  A    
C203  H85   S    
C75   C328  A    
O35   Zn5   S    
C169  H6    S    
O48   Zn12  S    
C258  H213  S    
C33   H179  S    
C121  N3    A    
C26   H230  S    
C321  O28   A    
C116  O51   S    
C146  C148  A    
C195  H67   S    
C45   C58   A    
C2    C133  A    
C272  H284  S    
C89   C100  A    
C167  H3    S    
C17   C86   A    
C50   C53   A    
C22   C81   A    
C172  O72   S    
C240  H171  S    
C265  H277  S    
C231  H149  S    
C125  C147  A    
C270  C288  A    
C219  C220  S    
C26   C325  A    
C126  C148  A    
C86   C87   A    
C282  C294  S    
C267  H279  S    
C244  H181  S    
C10   C93   A    
C250  C251  S    
C173  C174  S    
C333  H240  S    
O35   Zn16  S    
C157  O84   S    
C286  O98   S    
O33   Zn14  S    
C261  H218  S    
C324  O31   A    
C14   C89   A    
C229  H144  S    
C74   C329  A    
C5    C63   A    
C231  H150  S    
C159  O67   S    
C159  C160  S    
C30   H190  S    
C99   C313  S    
C78   C95   A    
O13   Zn7   S    
C134  C152  A    
C191  H56   S    
C279  O92   S    
C12   C48   A    
C2    O69   S    
C178  H28   S    
C193  H62   S    
C250  H193  S    
C90   C142  A    
C228  H141  S    
C32   H168  S    
C81   C109  A    
C204  H88   S    
C236  O93   S    
C245  C247  S    
C168  H267  S    
C211  C213  S    
C171  H10   S    
C273  C290  A    
C246  H275  S    
C80   C94   A    
C77   C114  A    
C180  C181  S    
O38   Zn10  S    
C162  C163  S    
C310  O17   A    
O32   Zn15  S    
C284  O96   S    
C124  O81   S    
C205  O83   S    
C177  H25   S    
C180  H31   S    
C302  N7    S    
C90   C124  A    
C178  H29   S    
C187  H49   S    
C65   C100  A    
C312  O48   A    
C176  H23   S    
C117  O52   S    
C211  H105  S    
C21   C56   A    
C178  C180  S    
C188  O77   S    
C222  H132  S    
C167  H304  S    
C79   C135  A    
C233  H154  S    
C4    C64   A    
C323  O30   A    
C56   H223  S    
C176  H22   S    
C6    C62   A    
C316  O47   A    
C321  O39   A    
C70   C333  A    
C242  H175  S    
C249  H192  S    
C185  C186  S    
O18   Zn16  S    
C320  O27   A    
C207  H96   S    
C257  H276  S    
C232  C233  S    
O13   Zn3   S    
C286  C295  A    
C52   H272  S    
C67   C71   A    
C230  C231  S    
C117  N3    A    
C281  O94   S    
C129  O64   S    
C214  H110  S    
C92   C98   A    
C84   C108  A    
C275  O87   S    
C246  C302  A    
C271  O79   A    
C5    C40   A    
O5    Zn16  S    
C64   C74   A    
C235  C301  A    
C113  O80   S    
C68   O75   S    
C149  C157  A    
C281  C295  A    
O2    Zn7   S    
C49   C54   A    
C113  C146  A    
C203  C204  S    
O11   Zn14  S    
C165  C166  S    
C253  H200  S    
C259  O100  S    
C169  C170  S    
C66   C102  A    
C245  O96   S    
C3    H244  S    
C272  C307  A    
C60   H112  S    
C74   C109  A    
C276  O88   S    
C15   C50   A    
O46   Zn4   S    
O25   Zn4   S    
C225  H133  S    
C205  C206  S    
C236  C237  S    
C185  H44   S    
C207  H94   S    
C285  O97   S    
O24   Zn2   S    
C289  C298  A    
C82   C110  A    
C179  C300  A    
C261  H220  S    
C221  O88   S    
C76   C111  A    
C231  H151  S    
C217  H119  S    
C27   H231  S    
C161  H291  S    
C14   C49   A    
C241  H173  S    
C198  H75   S    
C262  O3    S    
C255  C256  S    
C276  C294  A    
C287  C296  A    
C209  H99   S    
C47   H46   S    
C254  H205  S    
C227  C228  S    
C210  H102  S    
C8    H249  S    
O26   Zn16  S    
C194  H63   S    
C293  O7    A    
C228  H143  S    
O15   Zn8   S    
C173  H16   S    
C161  H289  S    
C11   C92   A    
C175  C176  S    
C3    C38   A    
C66   C72   A    
C6    C41   A    
C20   H262  S    
C152  C153  A    
C23   H265  S    
C198  C199  S    
C248  H188  S    
C192  C193  S    
C22   H264  S    
C142  C155  A    
C274  C291  A    
C46   C138  A    
O37   Zn11  S    
C230  H148  S    
C292  C293  S    
C177  H27   S    
C183  H39   S    
C223  C296  S    
O1    Zn8   S    
C33   C333  A    
C335  H242  S    
C323  O37   A    
C20   C55   A    
C85   C105  A    
C238  H165  S    
C9    H251  S    
C242  C243  S    
C116  C138  A    
C226  H138  S    
O20   Zn3   S    
C46   C326  A    
C232  H152  S    
C108  C322  S    
C247  H185  S    
O24   Zn14  S    
C270  H282  S    
C265  C305  A    
C127  N8    A    
C192  H60   S    
C24   C57   A    
C277  C290  A    
C179  C274  A    
C182  H37   S    
C197  H72   S    
C129  N6    A    
C121  O56   S    
C208  H98   S    
C188  C189  S    
C182  H36   S    
C246  C280  A    
C183  C184  S    
C240  H170  S    
C5    H246  S    
C81   C93   A    
C53   H283  S    
C172  H12   S    
C72   C107  A    
C101  O78   S    
O14   Zn1   S    
C252  O98   S    
C29   C39   A    
C49   H24   S    
C104  C309  S    
C174  H18   S    
C116  N2    A    
C186  H47   S    
C226  C227  S    
C220  H127  S    
C181  H34   S    
C130  N7    A    
C184  H40   S    
C263  H225  S    
C195  O80   S    
C130  O65   S    
C43   C60   A    
C316  O22   A    
C114  C318  S    
C146  O83   S    
C237  H162  S    
C256  H209  S    
C176  C177  S    
C34   H146  S    
C80   C114  A    
C126  N7    A    
C97   C311  S    
C190  C275  A    
C98   C312  S    
C166  C167  S    
C30   C330  A    
C87   C103  A    
C6    H247  S    
C198  O81   S    
C196  H70   S    
C84   C89   A    
C91   C102  A    
C144  C158  A    
C19   C84   A    
C127  O62   S    
C227  H140  S    
C85   C88   A    
C239  H167  S    
C233  C234  S    
C69   C104  A    
C242  O95   S    
C9    C44   A    
C268  C286  A    
C331  H237  S    
C13   O70   S    
C212  C277  A    
C77   C325  A    
C269  C287  A    
C171  H11   S    
C175  H20   S    
C260  H216  S    
C259  H214  S    
O24   Zn10  S    
C218  H122  S    
C213  H107  S    
O68   Zn6   S    
C1    O46   A    
C268  H280  S    
C278  O91   S    
C160  H287  S    
C124  C145  A    
C163  H295  S    
C112  C297  S    
O7    Zn10  S    
C180  H30   S    
C160  C161  S    
O1    Zn4   S    
C165  H301  S    
C224  C300  A    
O1    Zn1   S    
C101  C143  A    
C218  C219  S    
C28   C328  A    
C214  H111  S    
C72   C331  A    
C182  O75   S    
C83   C107  A    
C40   H113  S    
C159  H285  S    
C63   C75   A    
C37   C336  A    
C334  H241  S    
C170  H8    S    
C201  C276  A    
C210  H104  S    
C200  H78   S    
C251  H196  S    
C28   H212  S    
C260  H217  S    
C20   C83   A    
C336  H243  S    
C15   C88   A    
C287  O99   S    
C13   C68   A    
C90   O77   S    
C76   C327  A    
