data_mof_unit_66509.cif
_audit_creation_date              2012-10-26T20:44:56-0400
_audit_creation_method            fapswitch 2.2
_symmetry_space_group_name_H-M    P1
_symmetry_Int_Tables_number       1
_space_group_crystal_system       triclinic
_cell_length_a                    12.737921
_cell_length_b                    13.90302
_cell_length_c                    23.553512
_cell_angle_alpha                 90.209023
_cell_angle_beta                  93.085498
_cell_angle_gamma                 97.975442
_cell_volume                      4124.62797662

loop_
_atom_site_label
_atom_site_type_symbol
_atom_type_description
_atom_site_fract_x
_atom_site_fract_y
_atom_site_fract_z
_atom_type_partial_charge
C1    C     C_R   0.483542 0.315788 0.499408 0.544939
C2    C     C_R   0.594405 0.506768 0.706006 0.368140
C3    C     C_R   0.407888 0.492831 0.234908 -0.009633
C4    C     C_R   0.592112 0.507212 0.765090 -0.009626
C5    C     C_R   0.504602 0.498536 0.208807 0.175509
C6    C     C_R   0.495401 0.501468 0.791193 0.175488
C7    C     C_1   0.525906 0.787557 0.500934 0.015248
C8    C     C_1   0.474094 0.212443 0.499066 0.015241
C9    C     C_2   0.543594 0.978436 0.501570 -0.105211
C10   C     C_2   0.456406 0.021563 0.498430 -0.105211
C11   C     C_1   0.465541 0.125383 0.498758 -0.023705
C12   C     C_R   0.516458 0.684212 0.500592 0.544948
C13   C     C_1   0.534459 0.874617 0.501242 -0.023701
C14   C     C_2   0.027345 0.473321 0.483203 0.250841
C15   C     C_2   0.972655 0.526679 0.516797 0.250840
C16   C     C_R   0.500312 0.499887 0.390635 0.565585
C17   C     C_R   0.499688 0.500114 0.609365 0.565592
C18   C     C_1   0.854670 0.519244 0.511799 0.218767
C19   C     C_1   0.145330 0.480756 0.488200 0.218769
C20   C     C_R   0.536946 0.583976 0.881900 0.407237
C21   C     C_R   0.463054 0.416028 0.118101 0.407239
C22   C     C_R   0.452817 0.419148 0.879096 0.410380
C23   C     C_R   0.599645 0.504894 0.242194 -0.071401
C24   C     C_R   0.547190 0.580855 0.120905 0.410380
C25   C     C_R   0.454029 0.416801 0.938670 0.029800
C26   C     C_R   0.545977 0.583202 0.061331 0.029798
C27   C     C_R   0.498554 0.500443 0.970012 -0.027049
C28   C     C_R   0.501450 0.499560 0.029989 -0.027049
C29   C     C_R   0.540285 0.584937 0.941524 0.030217
C30   C     C_R   0.459717 0.415067 0.058477 0.030215
C31   C     C_R   0.412703 0.332895 0.967524 -0.115251
C32   C     C_R   0.587302 0.667108 0.032477 -0.115252
C33   C     C_R   0.415536 0.332031 0.026812 -0.114670
C34   C     C_R   0.400361 0.495070 0.757806 -0.071409
C35   C     C_R   0.584467 0.667973 0.973189 -0.114669
C36   C     C_R   0.597961 0.505356 0.301360 -0.192264
C37   C     C_R   0.402043 0.494607 0.698641 -0.192282
C38   C     C_R   0.501039 0.499539 0.327974 0.006204
C39   C     C_R   0.498962 0.500464 0.672025 0.006216
C40   C     C_R   0.405593 0.493276 0.293992 0.368134
Cu1   Cu    Cu3+1 0.395330 0.493960 0.496390 1.075018
Cu2   Cu    Cu3+1 0.604670 0.506040 0.503610 1.075018
F1    F     F_    0.309941 0.487592 0.317480 -0.601134
F2    F     F_    0.690055 0.512492 0.682518 -0.601146
H1    H     H_    0.378131 0.267627 0.944423 0.175164
H2    H     H_    0.665750 0.511751 0.790815 0.162310
H3    H     H_    0.377865 0.979213 0.495602 0.151476
H4    H     H_    0.622135 0.020786 0.504398 0.151475
H5    H     H_    0.978091 0.622155 0.577286 0.340026
H6    H     H_    0.021909 0.377845 0.422714 0.340022
H7    H     H_    0.621875 0.732376 0.055578 0.175164
H8    H     H_    0.382925 0.266162 0.047706 0.175641
H9    H     H_    0.617077 0.733842 0.952295 0.175642
H10   H     H_    0.674757 0.509178 0.222240 0.160350
H11   H     H_    0.325250 0.490755 0.777761 0.160371
H12   H     H_    0.672585 0.510207 0.326215 0.163831
H13   H     H_    0.327421 0.489723 0.673785 0.163830
H14   H     H_    0.334249 0.488322 0.209183 0.162296
N1    N     N_R   0.494147 0.501787 0.852049 -0.397041
N2    N     N_R   0.505858 0.498217 0.147951 -0.397045
N3    N     N_1   0.238030 0.484870 0.490960 -0.178948
N4    N     N_1   0.761970 0.515130 0.509040 -0.178949
O1    O     O_R   0.399110 0.356330 0.496510 -0.495926
O2    O     O_2   0.424198 0.335452 0.146095 -0.479417
O3    O     O_2   0.411909 0.339216 0.848430 -0.480879
O4    O     O_2   0.588102 0.660786 0.151571 -0.480867
O5    O     O_3   0.029316 0.589403 0.556660 -0.709217
O6    O     O_3   0.970684 0.410597 0.443340 -0.709221
O7    O     O_R   0.600890 0.643670 0.503490 -0.495917
O8    O     O_R   0.575900 0.366540 0.502610 -0.486801
O9    O     O_R   0.424100 0.633460 0.497390 -0.486791
O10   O     O_R   0.411590 0.494870 0.414830 -0.420970
O11   O     O_R   0.588410 0.505130 0.585170 -0.420965
O12   O     O_R   0.588370 0.505070 0.420930 -0.517157
O13   O     O_R   0.411630 0.494930 0.579070 -0.517160
O14   O     O_2   0.575798 0.664553 0.853906 -0.479424

loop_
_geom_bond_atom_site_label_1
_geom_bond_atom_site_label_2
_ccdc_geom_bond_type
C25   C31   A    
C15   C18   S    
C12   O7    A    
C26   C32   A    
C35   H9    S    
C34   C37   A    
Cu1   Cu2   S    
C16   O10   A    
Cu1   N3    S    
C32   H7    S    
C4    H2    S    
C33   H8    S    
C16   O12   A    
C24   C26   A    
C27   C29   A    
C1    C8    S    
Cu2   O8    S    
C20   O14   S    
C17   C39   S    
C9    C13   S    
C21   O2    S    
C2    C39   A    
C40   F1    S    
C2    F2    S    
C22   C25   A    
C31   C33   A    
C9    C10   D    
Cu2   N4    S    
C5    N2    S    
C24   O4    S    
Cu1   O9    S    
C34   H11   S    
C17   O11   A    
C1    O1    A    
C20   C29   A    
C7    C12   S    
Cu2   O12   S    
C32   C35   A    
C21   N2    A    
C4    C6    A    
C22   N1    A    
C14   C19   S    
Cu2   O7    S    
C6    C34   A    
C2    C4    A    
C22   O3    S    
C36   H12   S    
Cu1   O13   S    
C5    C23   A    
C24   N2    A    
C15   O5    S    
C20   N1    A    
Cu1   O10   S    
C12   O9    A    
C3    C40   A    
Cu1   O1    S    
C10   H3    S    
C23   H10   S    
Cu2   O11   S    
H5    O5    S    
C30   C33   A    
C6    N1    S    
C18   N4    T    
C3    C5    A    
C25   C27   A    
C21   C30   A    
C29   C35   A    
C26   C28   A    
C1    O8    A    
C36   C38   A    
C37   C39   A    
C38   C40   A    
C19   N3    T    
C8    C11   T    
C28   C30   A    
C10   C11   S    
C3    H14   S    
C7    C13   T    
C9    H4    S    
C23   C36   A    
C31   H1    S    
C27   C28   A    
C17   O13   A    
C14   O6    S    
C14   C15   D    
H6    O6    S    
C37   H13   S    
C16   C38   S    
