data_mof_unit_15170.cif
_audit_creation_date              2012-12-10T16:52:12-0500
_audit_creation_method            fapswitch 2.2
_symmetry_space_group_name_H-M    P1
_symmetry_Int_Tables_number       1
_space_group_crystal_system       triclinic
_cell_length_a                    10.997311
_cell_length_b                    10.938606
_cell_length_c                    9.86525
_cell_angle_alpha                 89.297645
_cell_angle_beta                  102.362288
_cell_angle_gamma                 93.377965
_cell_volume                      1157.21205206

loop_
_atom_site_label
_atom_site_type_symbol
_atom_type_description
_atom_site_fract_x
_atom_site_fract_y
_atom_site_fract_z
_atom_type_partial_charge
C1    C     C_R   0.501194 0.265423 0.501336 0.789818
C2    C     C_2   0.534445 0.864579 0.506117 -0.300024
C3    C     C_2   0.533936 0.069509 0.402683 0.354305
C4    C     C_2   0.495345 0.131125 0.502818 0.253288
C5    C     C_2   0.422321 0.431403 0.904230 0.689090
C6    C     C_2   0.412011 0.450267 0.054748 -0.005118
C7    C     C_R   0.263373 0.504379 0.443242 0.793096
C8    C     C_R   0.507258 0.733830 0.500833 0.777816
C9    C     C_R   0.737000 0.502083 0.556650 0.703107
C10   C     C_2   0.127492 0.511632 0.411037 0.210196
C11   C     C_2   0.069022 0.555106 0.506361 0.374767
C12   C     C_2   0.873284 0.509237 0.588073 0.282903
C13   C     C_2   0.932837 0.534880 0.484227 -0.339703
C14   C     C_2   0.510503 0.934651 0.392785 -0.233472
Cu1   Cu    Cu3+1 0.500020 0.500020 0.638640 1.019147
Cu2   Cu    Cu3+1 0.499980 0.499980 0.361360 0.977184
H1    H     H_    0.880261 0.538788 0.377948 0.177536
H2    H     H_    0.325198 0.420557 0.083192 0.085318
H3    H     H_    0.471324 0.892747 0.292638 0.147659
H4    H     H_    0.579759 0.902682 0.605774 0.165387
N1    N     N_2   0.498650 0.498660 0.846590 -0.011556
N2    N     N_2   0.498620 0.498630 0.152710 0.013120
O1    O     O_R   0.500020 0.321960 0.617050 -0.562727
O2    O     O_R   0.499980 0.321920 0.382890 -0.545436
O3    O     O_R   0.320700 0.500020 0.574050 -0.505408
O4    O     O_R   0.320660 0.499980 0.339890 -0.594464
O5    O     O_R   0.500020 0.678080 0.617110 -0.568275
O6    O     O_R   0.499980 0.678040 0.382950 -0.611393
O7    O     O_R   0.679340 0.500020 0.660110 -0.599673
O8    O     O_R   0.679300 0.499980 0.425950 -0.580452
O9    O     O_3   0.531898 0.611992 0.899424 -0.513378
C15   C     C_3   0.656258 0.642519 0.885078 -0.014939
H5    H     H_    0.666846 0.674334 0.782974 0.163310
H6    H     H_    0.719570 0.567398 0.921067 0.157668
H7    H     H_    0.692477 0.725586 0.945839 0.065978
O10   O     O_3   0.614427 0.518474 0.129324 -0.477458
C16   C     C_3   0.658486 0.638563 0.178163 -0.028658
H8    H     H_    0.753246 0.657539 0.158331 0.069830
H9    H     H_    0.672470 0.655535 0.288589 0.158393
H10   H     H_    0.594756 0.709007 0.127948 0.149755
O11   O     O_3   0.137412 0.608367 0.628719 -0.573318
C17   C     C_3   0.105364 0.730905 0.639352 0.098819
H11   H     H_    0.137408 0.758993 0.749657 0.169745
H12   H     H_    0.002861 0.741372 0.613159 0.131635
C18   C     C_3   0.171168 0.817103 0.550333 -0.398851
H13   H     H_    0.273659 0.810265 0.583180 0.257223
H14   H     H_    0.141965 0.790086 0.439389 0.186292
C19   C     C_3   0.139557 0.949635 0.564842 -0.839732
H15   H     H_    0.037199 0.958380 0.533914 0.232372
H16   H     H_    0.185260 0.009307 0.496286 0.289715
H17   H     H_    0.173224 0.981013 0.673763 0.252345
O12   O     O_3   0.936291 0.501752 0.725459 -0.606176
C20   C     C_3   0.985077 0.384811 0.751846 0.133870
H18   H     H_    0.055852 0.391891 0.850564 0.171637
H19   H     H_    0.034553 0.356510 0.670841 0.168085
C21   C     C_3   0.883865 0.286508 0.769370 -0.386757
H20   H     H_    0.835606 0.315639 0.850719 0.235292
H21   H     H_    0.813882 0.274325 0.670323 0.208108
C22   C     C_3   0.939882 0.163483 0.809861 -0.938808
H22   H     H_    0.992668 0.134993 0.732455 0.260401
H23   H     H_    0.864162 0.092554 0.813150 0.253587
H24   H     H_    0.003208 0.169752 0.913898 0.261767
O13   O     O_3   0.059576 0.460796 0.287732 -0.584178
C23   C     C_3   0.046197 0.552162 0.184215 -0.339041
H25   H     H_    0.137329 0.580338 0.158296 0.181075
H26   H     H_    0.002197 0.633640 0.214956 0.128624
H27   H     H_    0.984172 0.513918 0.088531 0.208270
O14   O     O_3   0.606722 0.134612 0.322867 -0.617520
C24   C     C_3   0.599982 0.084987 0.189886 0.102370
H28   H     H_    0.607615 0.163690 0.119255 0.175142
H29   H     H_    0.508927 0.036147 0.144908 0.094579
C25   C     C_3   0.710303 0.005319 0.191900 -0.331524
H30   H     H_    0.798049 0.055552 0.245072 0.242610
H31   H     H_    0.698955 0.919339 0.249993 0.193680
C26   C     C_3   0.721153 0.973914 0.045146 -0.994579
H32   H     H_    0.634349 0.923887 0.989807 0.255364
H33   H     H_    0.801199 0.915633 0.049479 0.254060
H34   H     H_    0.737117 0.058883 0.987224 0.265913
O15   O     O_3   0.431575 0.069820 0.593225 -0.592448
C27   C     C_3   0.503151 0.078213 0.730681 -0.344001
H35   H     H_    0.483768 0.161268 0.782742 0.229821
H36   H     H_    0.605587 0.077219 0.737173 0.134343
H37   H     H_    0.475445 0.998490 0.790143 0.186342
O16   O     O_3   0.344608 0.344819 0.819145 -0.575510
C28   C     C_3   0.302350 0.246308 0.894255 -0.465184
H38   H     H_    0.225009 0.272636 0.941663 0.171287
H39   H     H_    0.379265 0.210032 0.974064 0.144032
H40   H     H_    0.264258 0.170751 0.820639 0.222687

loop_
_geom_bond_atom_site_label_1
_geom_bond_atom_site_label_2
_ccdc_geom_bond_type
Cu2   O6    S    
C7    C10   S    
O11   C17   S    
C3    O14   S    
C18   H13   S    
N1    O9    S    
C7    O4    A    
O10   C16   S    
C16   H10   S    
C27   H37   S    
C5    C6    S    
Cu1   O3    S    
Cu2   O8    S    
Cu1   Cu2   S    
C6    N2    D    
C21   H20   S    
C18   H14   S    
C24   H29   S    
C19   H17   S    
C10   O13   S    
O14   C24   S    
C9    O7    A    
C20   C21   S    
C19   H16   S    
C22   H22   S    
Cu2   O2    S    
C17   H12   S    
C25   C26   S    
C12   O12   S    
Cu1   O7    S    
C20   H19   S    
Cu2   O4    S    
C6    H2    S    
C22   H23   S    
C28   H39   S    
C2    H4    S    
C23   H27   S    
O16   C28   S    
C4    O15   S    
C25   H31   S    
C5    O16   S    
C27   H35   S    
C18   C19   S    
C26   H34   S    
C28   H38   S    
O13   C23   S    
C17   C18   S    
C23   H26   S    
C24   C25   S    
C26   H32   S    
C15   H7    S    
C16   H8    S    
Cu1   O5    S    
O9    C15   S    
C26   H33   S    
C3    C14   S    
C9    O8    A    
C27   H36   S    
C19   H15   S    
C1    O1    A    
C8    O6    A    
C17   H11   S    
C3    C4    D    
O12   C20   S    
C28   H40   S    
C22   H24   S    
Cu2   N2    S    
C14   H3    S    
C2    C8    S    
C25   H30   S    
C20   H18   S    
N2    O10   S    
C7    O3    A    
C21   C22   S    
C13   H1    S    
C1    C4    S    
C23   H25   S    
C16   H9    S    
C15   H5    S    
C11   C13   S    
Cu1   O1    S    
C21   H21   S    
C11   O11   S    
C24   H28   S    
C2    C14   D    
C9    C12   S    
C10   C11   D    
O15   C27   S    
Cu1   N1    S    
C5    N1    D    
C12   C13   D    
C1    O2    A    
C8    O5    A    
C15   H6    S    
