data_mof_unit_56915.cif
_audit_creation_date              2013-03-05T15:58:07-0500
_audit_creation_method            fapswitch 2.2
_symmetry_space_group_name_H-M    P1
_symmetry_Int_Tables_number       1
_space_group_crystal_system       triclinic
_cell_length_a                    15.066216
_cell_length_b                    13.695704
_cell_length_c                    10.788053
_cell_angle_alpha                 90.318336
_cell_angle_beta                  91.170487
_cell_angle_gamma                 89.86409
_cell_volume                      2225.52860441

loop_
_atom_site_label
_atom_site_type_symbol
_atom_site_description
_atom_site_fract_x
_atom_site_fract_y
_atom_site_fract_z
_atom_type_partial_charge
O1    O     O_R   0.370250 0.582280 0.500040 -0.587315
O2    O     O_R   0.370250 0.417720 0.500040 -0.579507
C1    C     C_R   0.328932 0.499794 0.503510 0.838727
O3    O     O_R   0.499970 0.582270 0.317700 -0.604456
O4    O     O_R   0.499970 0.417730 0.317700 -0.571679
C2    C     C_R   0.498213 0.499711 0.259787 0.845749
Cu1   Cu    Cu3+1 0.499990 0.597420 0.500010 0.929950
Cu2   Cu    Cu3+1 0.499990 0.402580 0.500010 0.940245
O5    O     O_R   0.629730 0.582260 0.499980 -0.583631
O6    O     O_R   0.629730 0.417740 0.499980 -0.584665
O7    O     O_R   0.500000 0.582270 0.682320 -0.585053
O8    O     O_R   0.500000 0.417730 0.682320 -0.600457
C3    C     C_R   0.671262 0.500066 0.501308 0.821282
C4    C     C_R   0.501708 0.499995 0.740473 0.800084
C5    C     C_3   0.411382 0.550783 0.069773 0.347032
C6    C     C_3   0.501483 0.391506 0.071876 0.314691
H1    H     H_    0.417730 0.629437 0.096515 0.097077
H2    H     H_    0.561278 0.357813 0.117888 0.078284
C7    C     C_3   0.408916 0.539945 0.925376 -0.095101
C8    C     C_3   0.512864 0.392245 0.929313 -0.078651
H3    H     H_    0.357809 0.484445 0.899388 0.167841
H4    H     H_    0.459781 0.346181 0.885874 0.172847
H5    H     H_    0.580888 0.630796 0.116520 0.198468
H6    H     H_    0.641027 0.518226 0.107877 0.184973
H7    H     H_    0.569600 0.640566 0.906161 0.191723
H8    H     H_    0.642231 0.539008 0.897732 0.180193
C9    C     C_3   0.579059 0.555756 0.076367 -0.589434
C10   C     C_3   0.496612 0.498896 0.121975 -0.013534
C11   C     C_3   0.500725 0.499526 0.878726 0.059469
C12   C     C_3   0.577247 0.563038 0.933857 -0.393606
C13   C     C_R   0.814517 0.442758 0.417351 0.091551
C14   C     C_R   0.768243 0.500541 0.503995 -0.074787
C15   C     C_R   0.814680 0.558664 0.593170 0.095983
C16   C     C_R   0.908199 0.563109 0.589678 0.046966
C17   C     C_R   0.954280 0.498321 0.511518 -0.038146
C18   C     C_R   0.907496 0.434949 0.429212 0.106573
C19   C     C_R   0.956843 0.629634 0.664564 -0.196888
C20   C     C_R   0.049582 0.632980 0.663132 0.168898
C21   C     C_R   0.095717 0.566585 0.587244 0.105150
C22   C     C_R   0.047802 0.497206 0.514710 0.045346
C23   C     C_R   0.093648 0.426822 0.444196 0.124861
C24   C     C_R   0.047007 0.360938 0.368611 -0.228234
C25   C     C_R   0.955181 0.366112 0.359099 -0.191894
C26   C     C_R   0.188607 0.568045 0.580524 -0.258598
C27   C     C_R   0.232958 0.497886 0.510688 -0.092102
C28   C     C_R   0.185865 0.424834 0.447521 -0.261102
H9    H     H_    0.923061 0.681394 0.723269 0.160383
H10   H     H_    0.227374 0.622425 0.630311 0.152914
H11   H     H_    0.221134 0.370496 0.393787 0.157955
H12   H     H_    0.081794 0.306904 0.314005 0.141135
H13   H     H_    0.922178 0.314395 0.297777 0.157645
C29   C     C_R   0.445780 0.794507 0.577015 0.004069
C30   C     C_R   0.445427 0.206550 0.576627 0.008803
N1    N     N_R   0.499930 0.743810 0.499950 -0.187693
N2    N     N_R   0.499930 0.256190 0.499950 -0.186682
C31   C     C_R   0.553102 0.791704 0.419601 0.030087
C32   C     C_R   0.555575 0.207239 0.422937 0.021236
C33   C     C_R   0.553831 0.895333 0.413224 -0.066292
C34   C     C_R   0.557425 0.103483 0.417933 -0.076715
C35   C     C_R   0.500278 0.948204 0.495879 0.034544
C36   C     C_R   0.500593 0.051758 0.496291 0.035980
C37   C     C_R   0.445052 0.897291 0.577573 0.027623
C38   C     C_R   0.444766 0.103738 0.577217 0.028687
C39   C     C_R   0.606356 0.946891 0.327388 0.180205
C40   C     C_R   0.613560 0.050720 0.336652 0.173342
C41   C     C_R   0.389741 0.052142 0.657249 -0.206978
C42   C     C_R   0.390057 0.949861 0.657664 -0.205646
H14   H     H_    0.403074 0.754787 0.638109 0.126578
H15   H     H_    0.402621 0.247251 0.637712 0.123918
H16   H     H_    0.595638 0.748006 0.361938 0.146798
H17   H     H_    0.597063 0.250215 0.363807 0.141739
H18   H     H_    0.346691 0.090953 0.720023 0.133752
H19   H     H_    0.347199 0.911798 0.720680 0.134879
C43   C     C_3   0.097516 0.706484 0.745025 -0.905281
H20   H     H_    0.050825 0.751119 0.800185 0.233022
H21   H     H_    0.142822 0.668034 0.811109 0.228216
H22   H     H_    0.136362 0.757064 0.687225 0.234809
C44   C     C_3   0.650171 0.891624 0.222687 -0.895968
H23   H     H_    0.660369 0.938093 0.140420 0.244088
H24   H     H_    0.714448 0.860357 0.255549 0.235515
H25   H     H_    0.606385 0.832344 0.186882 0.214559
C45   C     C_3   0.683462 0.105342 0.265664 -0.903523
H26   H     H_    0.734167 0.057438 0.224009 0.249547
H27   H     H_    0.651582 0.150329 0.191855 0.216244
H28   H     H_    0.721550 0.152836 0.330895 0.223287
O9    O     O_3   0.334325 0.510543 0.124201 -0.579433
C46   C     C_3   0.257716 0.567212 0.096255 0.036022
H29   H     H_    0.234537 0.551637 0.999686 0.161873
H30   H     H_    0.270209 0.646866 0.108751 0.125540
C47   C     C_3   0.183393 0.539698 0.182802 -0.308478
H31   H     H_    0.175537 0.459043 0.183488 0.233001
H32   H     H_    0.201453 0.566020 0.277226 0.228214
C48   C     C_3   0.095248 0.586486 0.143500 -0.921689
H33   H     H_    0.101429 0.667284 0.142572 0.254415
H34   H     H_    0.043321 0.566235 0.210251 0.268034
H35   H     H_    0.074378 0.560369 0.049701 0.257964
O10   O     O_3   0.422978 0.340446 0.102974 -0.569050
C49   C     C_3   0.438773 0.238823 0.110967 0.065080
H36   H     H_    0.493894 0.222582 0.177791 0.136686
H37   H     H_    0.455267 0.208366 0.018409 0.128750
C50   C     C_3   0.355062 0.189044 0.156754 -0.300023
H38   H     H_    0.339011 0.218045 0.250202 0.227843
H39   H     H_    0.298533 0.205616 0.092336 0.215940
C51   C     C_3   0.367216 0.078533 0.164386 -0.931041
H40   H     H_    0.381821 0.047748 0.071457 0.253913
H41   H     H_    0.305343 0.044716 0.198060 0.256117
H42   H     H_    0.422419 0.060058 0.229897 0.266701
C52   C     C_3   0.378385 0.636813 0.863972 -0.952922
H43   H     H_    0.431938 0.692087 0.864884 0.253435
H44   H     H_    0.355237 0.622767 0.767448 0.247421
H45   H     H_    0.321311 0.670333 0.910970 0.213724
C53   C     C_3   0.602765 0.343330 0.897309 -0.921516
H46   H     H_    0.658772 0.376691 0.950747 0.235800
H47   H     H_    0.600559 0.264730 0.921862 0.224147
H48   H     H_    0.618538 0.347600 0.797816 0.273238
C54   C     C_3   0.766439 0.393497 0.308671 -0.893431
H49   H     H_    0.764901 0.313646 0.323401 0.231883
H50   H     H_    0.697634 0.419845 0.292987 0.221291
H51   H     H_    0.801292 0.409326 0.221329 0.225339
C55   C     C_3   0.766046 0.613049 0.694815 -0.866238
H52   H     H_    0.767186 0.692742 0.676654 0.238482
H53   H     H_    0.696323 0.590168 0.704760 0.233045
H54   H     H_    0.798197 0.597893 0.786275 0.218018

loop_
_geom_bond_atom_site_label_1
_geom_bond_atom_site_label_2
_geom_bond_distance
_ccdc_geom_bond_type
C6    C10   1.566204 S    
C46   H29   1.111665 S    
C48   H33   1.110845 S    
C2    C10   1.486413 S    
C16   C19   1.410908 A    
C23   C24   1.394385 A    
C3    C14   1.460861 S    
C17   C18   1.416798 A    
H6    C9    1.112707 S    
C30   H15   1.082817 S    
C53   H47   1.110763 S    
O10   C49   1.414251 S    
C47   H31   1.111315 S    
Cu1   Cu2   2.668470 S    
C27   C28   1.394566 A    
C52   H43   1.107538 S    
C5    C7    1.563690 S    
C28   H11   1.085415 S    
C50   H38   1.112478 S    
C43   H21   1.110891 S    
C37   C42   1.403901 A    
O4    C2    1.287885 A    
C7    H3    1.113928 S    
C19   C20   1.398497 A    
C20   C21   1.411459 A    
O7    C4    1.292672 A    
C44   H24   1.110214 S    
C6    O10   1.422421 S    
C32   C34   1.421964 A    
C33   C35   1.410632 A    
C49   H36   1.111446 S    
C54   H49   1.106335 S    
C35   C37   1.412358 A    
C16   C17   1.411730 A    
C36   C38   1.413044 A    
O5    C3    1.286627 A    
C53   H46   1.110025 S    
C45   H27   1.110300 S    
C8    C53   1.553968 S    
C41   H18   1.083575 S    
C55   H53   1.104406 S    
C43   H22   1.110348 S    
C23   C28   1.389292 A    
C42   H19   1.083662 S    
H5    C9    1.113244 S    
C31   C33   1.421404 A    
C19   H9    1.081269 S    
C29   H14   1.080410 S    
C55   H54   1.110640 S    
C6    C8    1.551072 S    
C7    C52   1.550774 S    
C41   C42   1.400844 A    
C38   C41   1.403870 A    
C50   H39   1.111972 S    
O1    Cu1   1.966154 S    
C9    C12   1.540872 S    
O3    Cu1   1.976532 S    
Cu2   N2    2.004913 S    
C51   H41   1.110504 S    
C51   H40   1.111350 S    
C29   N1    1.362901 A    
C8    C11   1.579132 S    
C30   N2    1.362861 A    
C33   C39   1.422023 A    
N1    C31   1.364023 A    
C34   C36   1.410209 A    
C43   H20   1.110710 S    
O3    C2    1.288855 A    
C21   C22   1.417125 A    
C44   H23   1.108426 S    
C1    C27   1.449928 S    
C35   C36   1.418256 A    
O1    C1    1.292248 A    
Cu1   O7    1.978828 S    
C11   C12   1.552587 S    
C47   H32   1.107571 S    
C13   C14   1.414855 A    
Cu2   O8    1.976535 S    
C15   C16   1.411726 A    
C32   H17   1.079938 S    
C24   H12   1.084106 S    
C5    O9    1.425051 S    
Cu2   O6    1.966185 S    
C22   C23   1.412499 A    
C8    H4    1.114006 S    
H8    C12   1.109686 S    
C50   C51   1.526602 S    
C31   H16   1.079893 S    
N2    C32   1.364612 A    
C24   C25   1.386858 A    
C4    C11   1.491906 S    
C5    C10   1.562571 S    
C49   C50   1.527308 S    
C13   C54   1.520969 S    
C55   H52   1.110192 S    
C47   C48   1.526418 S    
C20   C43   1.510951 S    
H7    C12   1.109732 S    
C5    H1    1.117442 S    
O9    C46   1.417601 S    
C39   C44   1.517594 S    
O2    Cu2   1.965175 S    
C26   C27   1.395297 A    
O8    C4    1.286577 A    
O6    C3    1.290671 A    
O4    Cu2   1.978824 S    
C52   H45   1.104801 S    
C21   C26   1.403051 A    
C48   H35   1.110977 S    
C45   H28   1.108056 S    
C49   H37   1.112574 S    
C54   H51   1.110666 S    
C14   C15   1.419607 A    
C46   H30   1.114463 S    
C17   C22   1.408793 A    
C29   C37   1.407695 A    
C34   C40   1.423626 A    
C30   C38   1.408188 A    
C44   H25   1.110047 S    
C25   H13   1.081473 S    
C40   C45   1.516013 S    
C48   H34   1.110777 S    
C52   H44   1.107349 S    
C39   C40   1.429201 A    
C54   H50   1.106875 S    
O2    C1    1.284364 A    
C51   H42   1.110052 S    
Cu1   O5    1.965205 S    
C15   C55   1.521601 S    
C6    H2    1.119480 S    
C45   H26   1.106505 S    
C46   C47   1.521918 S    
C9    C10   1.557326 S    
C13   C18   1.407926 A    
C18   C25   1.410014 A    
Cu1   N1    2.004916 S    
C53   H48   1.105945 S    
C26   H10   1.081251 S    
C7    C11   1.579462 S    
