data_mof_unit_57018.cif
_audit_creation_date              2013-03-05T16:00:37-0500
_audit_creation_method            fapswitch 2.2
_symmetry_space_group_name_H-M    P1
_symmetry_Int_Tables_number       1
_space_group_crystal_system       triclinic
_cell_length_a                    8.324821
_cell_length_b                    12.906173
_cell_length_c                    18.972539
_cell_angle_alpha                 100.260643
_cell_angle_beta                  91.760733
_cell_angle_gamma                 98.30777
_cell_volume                      1981.4511846

loop_
_atom_site_label
_atom_site_type_symbol
_atom_site_description
_atom_site_fract_x
_atom_site_fract_y
_atom_site_fract_z
_atom_type_partial_charge
P1    P     P_3+3 0.042930 0.392230 0.337410 0.526239
O1    O     O_2   0.875110 0.423180 0.326290 -0.213106
O2    O     O_3   0.123410 0.433040 0.414950 -0.423050
O3    O     O_3   0.661010 0.625070 0.369680 -0.335048
O4    O     O_2   0.701723 0.529507 0.238362 -0.285205
O5    O     O_3   0.997858 0.254070 0.318427 -0.608879
O6    O     O_3   0.693367 0.733705 0.249642 -0.467654
H1    H     H_    0.772994 0.843521 0.340857 0.159682
C1    C     C_3   0.653831 0.914344 0.262549 -0.841978
H2    H     H_    0.626568 0.983823 0.301127 0.243521
H3    H     H_    0.767904 0.936468 0.236598 0.247287
P2    P     P_3+3 0.672230 0.754900 0.555730 0.458643
P3    P     P_3+3 0.128882 0.819362 0.401208 0.521855
O7    O     O_2   0.847800 0.768730 0.534310 -0.402444
O8    O     O_3   0.082250 0.684470 0.405440 -0.336033
O9    O     O_2   0.016592 0.871964 0.455287 -0.326262
O10   O     O_3   0.685931 0.802567 0.648791 -0.624308
O11   O     O_3   0.057492 0.846188 0.317441 -0.590483
C2    C     C_3   0.112689 0.784180 0.255049 1.201544
C3    C     C_3   0.109281 0.845162 0.190930 -0.846287
H4    H     H_    0.058029 0.796208 0.137855 0.244910
H5    H     H_    0.040948 0.914583 0.203346 0.235945
C4    C     C_3   0.248279 0.784729 0.619974 0.397646
H6    H     H_    0.377697 0.774812 0.619565 0.120441
H7    H     H_    0.183760 0.743241 0.568170 0.117159
C5    C     C_3   0.235547 0.902688 0.627613 -0.935446
H8    H     H_    0.270669 0.944277 0.683416 0.267566
H9    H     H_    0.316099 0.940018 0.590786 0.227463
H10   H     H_    0.108625 0.912544 0.614565 0.264144
Ba1   Ba    Ba6+2 0.853180 0.547790 0.465300 1.652596
C6    C     C_3   0.963724 0.210914 0.379609 0.196632
H11   H     H_    0.832610 0.209062 0.388197 0.104619
H12   H     H_    0.036432 0.254130 0.428896 0.140337
C7    C     C_3   0.003144 0.098180 0.363716 0.033022
H13   H     H_    0.958361 0.058214 0.308403 0.137248
H14   H     H_    0.136530 0.101041 0.366241 0.182538
C8    C     C_3   0.788843 0.751101 0.685582 0.830781
H15   H     H_    0.877412 0.714420 0.650776 0.035269
C9    C     C_3   0.884759 0.833175 0.746002 -1.003988
H16   H     H_    0.963928 0.893794 0.722646 0.240917
H17   H     H_    0.962004 0.793497 0.778497 0.239500
H18   H     H_    0.801051 0.874731 0.781553 0.277496
P4    P     P_3+3 0.146790 0.607860 0.662600 0.481134
O12   O     O_2   0.314600 0.576860 0.673750 -0.279486
O13   O     O_3   0.066300 0.567050 0.585060 -0.425245
O14   O     O_3   0.528700 0.375020 0.630330 -0.318766
O15   O     O_3   0.181610 0.747331 0.679350 -0.571963
P5    P     P_3+3 0.062489 0.176553 0.592197 0.457553
O16   O     O_3   0.611760 0.365720 0.463870 -0.335594
O17   O     O_3   0.107460 0.315620 0.594570 -0.388536
O18   O     O_2   0.175027 0.123938 0.538356 -0.330685
O19   O     O_3   0.132989 0.145933 0.672625 -0.562871
Ba2   Ba    Ba6+2 0.336650 0.452300 0.534710 1.636104
P6    P     P_3+3 0.611867 0.617119 0.278357 0.578766
C10   C     C_3   0.668709 0.821953 0.300935 0.341320
H19   H     H_    0.559188 0.807179 0.331554 0.054310
H20   H     H_    0.554624 0.890932 0.219795 0.299576
O20   O     O_3   0.577950 0.634370 0.536140 -0.351096
C11   C     C_3   0.422677 0.250007 0.313040 0.651373
H21   H     H_    0.331858 0.287718 0.346595 -0.029004
C12   C     C_3   0.331321 0.188076 0.242327 -0.199341
H22   H     H_    0.197089 0.185260 0.245574 0.099467
H23   H     H_    0.362515 0.229567 0.196337 0.115629
P7    P     P_3+3 0.520860 0.229492 0.441984 0.452012
O21   O     O_2   0.341900 0.231310 0.465740 -0.390778
O22   O     O_3   0.502555 0.182824 0.348828 -0.576844
H24   H     H_    0.235496 0.870883 0.176989 0.273071
C13   C     C_3   0.056210 0.200054 0.729531 0.336588
H25   H     H_    0.095622 0.287469 0.735719 0.112261
H26   H     H_    0.921884 0.180761 0.720565 0.024597
C14   C     C_3   0.104687 0.163753 0.798264 -0.033364
H27   H     H_    0.236966 0.189893 0.811716 0.183882
H28   H     H_    0.079444 0.075034 0.789496 0.125470
P8    P     P_3+3 0.576466 0.368578 0.718698 0.507907
C15   C     C_3   0.548843 0.163431 0.693171 0.438411
H29   H     H_    0.667595 0.188667 0.671394 -0.005360
O23   O     O_2   0.483938 0.451423 0.761957 -0.350866
O24   O     O_3   0.488299 0.246393 0.738078 -0.523294
H30   H     H_    0.459217 0.129915 0.647175 0.137019
H31   H     H_    0.676242 0.105095 0.776363 0.271014
C16   C     C_3   0.572290 0.076593 0.735743 -1.003972
H32   H     H_    0.598316 0.004322 0.698813 0.252554
H33   H     H_    0.460960 0.055661 0.764290 0.268646
C17   C     C_R   0.056825 0.557464 0.801056 -0.322020
H34   H     H_    0.142507 0.626825 0.825287 0.151704
C18   C     C_R   0.020568 0.540811 0.725897 0.248217
C19   C     C_R   0.866107 0.399611 0.806081 -0.306775
H35   H     H_    0.814452 0.333150 0.829707 0.188423
C20   C     C_R   0.796031 0.408315 0.740247 0.183568
C21   C     C_R   0.330624 0.573593 0.185227 -0.201485
H36   H     H_    0.383465 0.636276 0.158277 0.167387
C22   C     C_R   0.396288 0.573789 0.253854 0.261718
C23   C     C_R   0.138691 0.420042 0.196822 -0.340813
H37   H     H_    0.054820 0.348403 0.175486 0.142759
C24   C     C_R   0.171875 0.446871 0.272024 0.294203
C25   C     C_R   0.989808 0.480161 0.842486 0.117115
C26   C     C_R   0.885088 0.467958 0.696886 -0.304054
H38   H     H_    0.842496 0.462576 0.641729 0.163011
C27   C     C_R   0.206076 0.490984 0.151648 0.102977
C28   C     C_R   0.305952 0.520725 0.299449 -0.303313
H39   H     H_    0.344947 0.533380 0.355646 0.153587
C29   C     C_R   0.763231 0.418715 0.953378 -0.115099
C30   C     C_R   0.657407 0.369953 0.996895 -0.123721
C31   C     C_R   0.705101 0.374456 0.067638 -0.103560
C32   C     C_R   0.860808 0.422559 0.092988 -0.016115
C33   C     C_R   0.983252 0.450010 0.046141 0.083701
C34   C     C_R   0.931744 0.449193 0.972713 0.115414
C35   C     C_R   0.150249 0.481895 0.071719 -0.019050
C36   C     C_R   0.263540 0.510764 0.020271 -0.005439
C37   C     C_R   0.211743 0.511377 0.947386 0.072870
C38   C     C_R   0.044749 0.481655 0.921839 -0.016215
C39   C     C_R   0.432497 0.538024 0.039227 -0.251285
C40   C     C_R   0.539253 0.588924 0.996953 0.589974
C41   C     C_R   0.490112 0.585670 0.925938 -0.288204
C42   C     C_R   0.333569 0.538657 0.900735 -0.156358
H40   H     H_    0.705690 0.437459 0.906832 0.129492
H41   H     H_    0.531901 0.341078 0.978300 0.135958
H42   H     H_    0.616960 0.349089 0.104349 0.158806
H43   H     H_    0.878130 0.440730 0.150065 0.199849
H44   H     H_    0.487528 0.518361 0.086153 0.162502
H45   H     H_    0.576204 0.612542 0.889032 0.197105
H46   H     H_    0.311955 0.523388 0.844082 0.205876
C43   C     C_R   0.758163 0.180506 0.529538 -0.482745
C44   C     C_R   0.431887 0.807685 0.467581 -0.515048
C45   C     C_R   0.401518 0.982061 0.444575 -0.175416
C46   C     C_R   0.340451 0.873786 0.437914 0.217920
C47   C     C_R   0.578722 0.848531 0.507917 0.251251
C48   C     C_R   0.640146 0.960394 0.516710 -0.059459
C49   C     C_R   0.550509 0.027214 0.483373 -0.098044
C50   C     C_R   0.612200 0.137854 0.490363 0.229178
C51   C     C_R   0.850445 0.116680 0.559890 0.249384
C52   C     C_R   0.789751 0.007695 0.555689 -0.148056
H47   H     H_    0.328813 0.030714 0.420969 0.200649
H48   H     H_    0.863080 0.960721 0.580756 0.160194
H49   H     H_    0.806710 0.263689 0.532146 0.150693
H50   H     H_    0.383007 0.724243 0.462951 0.163795
O25   O     O_3   0.936491 0.040210 0.413687 -0.689731
H51   H     H_    0.819600 0.019456 0.399189 0.306943
N1    N     N_R   0.689471 0.668380 0.714392 0.197077
O26   O     O_R   0.627523 0.583554 0.669104 -0.360074
O27   O     O_R   0.619921 0.691738 0.774531 -0.419494
N2    N     N_R   0.543921 0.332284 0.295890 0.189027
O28   O     O_R   0.572321 0.421909 0.340924 -0.368293
O29   O     O_R   0.641875 0.310135 0.244898 -0.400181
N3    N     N_R   0.366159 0.078801 0.226820 0.286314
O30   O     O_R   0.413524 0.038646 0.163695 -0.388264
O31   O     O_R   0.331161 0.016880 0.272671 -0.476312
O32   O     O_3   0.017026 0.207939 0.855033 -0.763703
H52   H     H_    0.024682 0.164702 0.893266 0.341148
N4    N     N_R   0.007674 0.680514 0.235585 0.235095
O33   O     O_R   0.998306 0.614484 0.279558 -0.343553
O34   O     O_R   0.929959 0.648951 0.173052 -0.393598
O35   O     O_3   0.272402 0.767364 0.267724 -0.858270
H53   H     H_    0.335512 0.838674 0.285449 0.319815
O36   O     O_3   0.695062 0.631103 0.024556 -0.710152
H54   H     H_    0.755973 0.662320 0.987287 0.312774

loop_
_geom_bond_atom_site_label_1
_geom_bond_atom_site_label_2
_geom_bond_distance
_ccdc_geom_bond_type
C10   H19   1.107647 S    
C15   H29   1.110896 S    
C23   H37   1.081182 S    
Ba2   O20   2.857880 S    
C29   C30   1.386874 A    
O2    Ba2   2.792696 S    
C3    H24   1.109828 S    
C2    C3    1.563820 S    
O6    C10   1.404040 S    
C19   H35   1.078801 S    
C48   C49   1.432431 A    
C16   H32   1.114796 S    
C9    H17   1.113155 S    
P2    C47   1.872986 S    
C27   C35   1.551426 S    
C5    H8    1.107998 S    
P3    O11   1.787837 S    
P8    C20   1.838384 S    
C17   C18   1.419948 A    
O11   C2    1.433544 S    
C11   O22   1.415493 S    
N3    O30   1.313535 A    
C25   C38   1.555942 S    
C7    H13   1.110821 S    
C33   C34   1.442723 A    
C14   H28   1.115061 S    
C2    N4    1.468616 S    
C35   C36   1.437240 A    
P1    O1    1.526123 D    
C17   C25   1.438737 A    
C4    C5    1.522791 S    
C12   H23   1.120596 S    
C18   C26   1.389286 A    
C12   N3    1.461258 S    
C37   C38   1.432822 A    
C39   C40   1.388334 A    
Ba1   O13   2.792100 S    
C16   H33   1.111711 S    
C41   H45   1.081544 S    
O12   Ba2   2.860253 S    
P4    Ba2   3.439992 S    
P5    O18   1.542019 D    
C11   N2    1.444214 S    
C13   H25   1.112525 S    
P8    O23   1.540905 D    
P2    O10   1.757623 S    
C4    H6    1.103268 S    
C6    H12   1.110730 S    
P5    C51   1.859954 S    
C1    C10   1.521213 S    
Ba2   O21   2.925544 S    
C1    H2    1.107474 S    
C23   C27   1.431159 A    
C1    H20   1.109401 S    
O19   C13   1.401731 S    
C43   C51   1.387456 A    
P5    O17   1.771883 S    
O5    C6    1.394000 S    
O13   Ba2   2.960141 S    
C11   H21   1.113250 S    
C23   C24   1.415650 A    
C42   H46   1.062494 S    
C30   H41   1.083046 S    
C40   O36   1.380463 S    
C48   C52   1.426029 A    
H1    C10   1.104311 S    
C31   C32   1.385546 A    
N3    O31   1.294689 A    
C26   H38   1.081564 S    
C9    H18   1.111847 S    
C31   H42   1.083481 S    
Ba1   Ba2   4.597600 S    
C11   C12   1.548147 S    
O17   Ba2   2.813565 S    
C4    O15   1.401694 S    
C44   H50   1.081901 S    
P1    O5    1.737690 S    
O4    P6    1.545165 D    
O32   H52   0.996633 S    
C36   C39   1.418552 A    
C9    H16   1.111416 S    
C39   H44   1.075148 S    
C24   C28   1.380314 A    
C15   C16   1.524009 S    
O7    Ba1   2.925355 S    
P2    Ba1   3.470777 S    
C20   C26   1.384604 A    
P1    O2    1.565865 S    
P7    O22   1.757100 S    
O2    Ba1   2.959301 S    
P4    O12   1.526404 D    
P6    C22   1.820914 S    
C8    H15   1.106011 S    
P4    O13   1.565892 S    
C21   C22   1.395998 A    
C6    H11   1.106022 S    
P2    O7    1.523224 D    
P1    C24   1.833920 S    
C19   C25   1.417532 A    
C6    C7    1.517662 S    
C29   C34   1.419429 A    
O10   C8    1.398305 S    
C17   H34   1.081756 S    
C1    H3    1.107354 S    
C44   C47   1.403684 A    
P3    C46   1.863675 S    
C52   H48   1.076188 S    
Ba1   O16   2.858465 S    
C3    H5    1.123472 S    
P4    O15   1.750689 S    
C19   C20   1.391832 A    
C43   C50   1.391906 A    
P8    O24   1.746227 S    
C45   C46   1.398219 A    
C2    O35   1.398227 S    
N4    O34   1.302516 A    
C47   C48   1.438496 A    
C21   C27   1.419714 A    
O14   P8    1.730367 S    
N2    O29   1.303822 A    
C22   C28   1.372978 A    
O8    Ba1   2.812964 S    
C44   C46   1.398714 A    
C40   C41   1.387588 A    
O25   H51   0.988077 S    
C45   H47   1.074524 S    
O3    P6    1.749542 S    
N4    O33   1.290903 A    
P4    C18   1.865511 S    
C34   C38   1.441581 A    
P7    C50   1.850185 S    
H31   C16   1.115413 S    
N1    O26   1.295087 A    
C41   C42   1.387428 A    
C32   C33   1.420573 A    
C7    O25   1.389797 S    
C5    H9    1.106952 S    
O1    Ba1   2.859875 S    
P7    O21   1.571891 D    
P3    O8    1.744824 S    
C49   C50   1.427163 A    
P2    O20   1.611604 S    
C14   H27   1.111884 S    
C8    C9    1.529835 S    
C36   C37   1.437506 A    
N1    O27   1.302495 A    
C21   H36   1.080628 S    
C33   C35   1.435148 A    
C13   C14   1.524075 S    
O16   Ba2   2.948539 S    
Ba1   O20   2.949381 S    
O14   Ba2   2.787332 S    
P1    Ba1   3.439477 S    
C14   O32   1.402705 S    
C7    H14   1.104962 S    
C4    H7    1.112724 S    
C12   H22   1.116744 S    
C15   O24   1.408453 S    
C29   H40   1.073053 S    
C45   C49   1.414935 A    
P5    O19   1.748118 S    
C3    H4    1.124388 S    
C5    H10   1.108088 S    
C13   H26   1.110931 S    
C8    N1    1.450296 S    
P3    O9    1.543249 D    
C43   H49   1.082960 S    
C30   C31   1.376672 A    
O16   P7    1.781117 S    
N2    O28   1.296296 A    
C32   H43   1.067062 S    
C28   H39   1.081770 S    
O6    P6    1.743824 S    
O35   H53   0.987572 S    
O36   H54   0.991926 S    
C15   H30   1.112465 S    
C37   C42   1.413829 A    
O3    Ba1   2.787939 S    
C51   C52   1.411493 A    
