data_mof_unit_68530.cif
_audit_creation_date              2012-12-10T16:48:41-0500
_audit_creation_method            fapswitch 2.2
_symmetry_space_group_name_H-M    P1
_symmetry_Int_Tables_number       1
_space_group_crystal_system       triclinic
_cell_length_a                    7.943582
_cell_length_b                    8.761522
_cell_length_c                    10.94214
_cell_angle_alpha                 89.038621
_cell_angle_beta                  97.668432
_cell_angle_gamma                 92.62911
_cell_volume                      753.900854129

loop_
_atom_site_label
_atom_site_type_symbol
_atom_type_description
_atom_site_fract_x
_atom_site_fract_y
_atom_site_fract_z
_atom_type_partial_charge
C1    C     C_R   0.541796 0.794291 0.488105 0.804616
C2    C     C_2   0.423221 0.045845 0.460996 0.202545
C3    C     C_3   0.649329 0.184362 0.086349 0.096410
C4    C     C_3   0.532982 0.056769 0.127589 -0.431850
C5    C     C_3   0.614376 0.902515 0.127820 -0.777998
C6    C     C_3   0.214335 0.302485 0.921212 0.052478
C7    C     C_3   0.090873 0.194489 0.847014 -0.353100
C8    C     C_3   0.909809 0.219607 0.868846 -1.026976
C9    C     C_2   0.278081 0.611095 0.069200 0.207624
C10   C     C_2   0.744034 0.592204 0.929707 0.314053
C11   C     C_3   0.864156 0.976961 0.470192 0.150392
C12   C     C_R   0.452947 0.206840 0.490603 0.879266
C13   C     C_3   0.898327 0.974554 0.610670 -0.410004
C14   C     C_3   0.083256 0.933758 0.651621 -0.725773
C15   C     C_3   0.219179 0.918126 0.320414 0.111783
C16   C     C_3   0.124213 0.023442 0.224439 -0.436373
C17   C     C_3   0.060169 0.936969 0.106579 -0.962414
C18   C     C_2   0.984607 0.405037 0.355541 0.642982
C19   C     C_2   0.038941 0.547716 0.658134 0.619058
C20   C     C_R   0.569392 0.493621 0.735328 0.902972
C21   C     C_R   0.430943 0.504214 0.264995 0.842724
C22   C     C_2   0.601495 0.491439 0.870674 -0.251598
C23   C     C_2   0.402956 0.504408 0.130209 -0.306129
C24   C     C_2   0.485083 0.415295 0.932930 0.407017
C25   C     C_2   0.502275 0.415710 0.069768 0.489887
C26   C     C_2   0.560548 0.958469 0.464214 0.149404
H1    H     H_    0.782238 0.159162 0.121594 0.192231
H2    H     H_    0.100884 0.215921 0.748450 0.240471
H3    H     H_    0.125999 0.077396 0.875151 0.238064
H4    H     H_    0.908518 0.261055 0.963614 0.284802
H5    H     H_    0.830813 0.112079 0.853553 0.259872
H6    H     H_    0.855860 0.307437 0.803995 0.287084
H7    H     H_    0.171914 0.639075 0.115751 0.165608
H8    H     H_    0.802561 0.678101 0.874784 0.134050
H9    H     H_    0.955802 0.065200 0.442902 0.184244
H10   H     H_    0.893284 0.869007 0.427695 0.179299
H11   H     H_    0.873973 0.089105 0.643267 0.223028
H12   H     H_    0.637748 0.184771 0.984702 0.140209
H13   H     H_    0.811712 0.891662 0.651365 0.244000
H14   H     H_    0.120246 0.840783 0.594961 0.303164
H15   H     H_    0.100212 0.892881 0.748450 0.270669
H16   H     H_    0.172273 0.032366 0.641232 0.259968
H17   H     H_    0.136248 0.814970 0.332631 0.186780
H18   H     H_    0.331864 0.875849 0.283924 0.123852
H19   H     H_    0.012629 0.068601 0.258961 0.222953
H20   H     H_    0.208058 0.122750 0.204448 0.206307
H21   H     H_    0.167374 0.908408 0.057715 0.296065
H22   H     H_    0.973555 0.007451 0.044960 0.273711
H23   H     H_    0.505001 0.081119 0.221338 0.259029
H24   H     H_    0.987350 0.831030 0.127527 0.298246
H25   H     H_    0.077169 0.318374 0.356082 0.024233
H26   H     H_    0.108810 0.473391 0.722339 0.073937
H27   H     H_    0.412757 0.052593 0.063583 0.220638
H28   H     H_    0.644634 0.877032 0.034316 0.265938
H29   H     H_    0.526585 0.811736 0.156385 0.256720
H30   H     H_    0.731627 0.902206 0.195187 0.274579
H31   H     H_    0.156017 0.414652 0.918426 0.208671
H32   H     H_    0.232529 0.257214 0.017200 0.120068
N1    N     N_2   0.940600 0.458860 0.467170 -0.171695
N2    N     N_2   0.059400 0.541140 0.532830 -0.201764
O1    O     O_R   0.391630 0.738350 0.508060 -0.619354
O2    O     O_3   0.367154 0.313352 0.868407 -0.668578
O3    O     O_2   0.294606 0.671000 0.969625 -0.586556
O4    O     O_2   0.797582 0.582160 0.038968 -0.519063
O5    O     O_3   0.703398 0.026731 0.419633 -0.667179
O6    O     O_3   0.255480 0.990081 0.437011 -0.692020
O7    O     O_2   0.918223 0.455660 0.257635 -0.514067
O8    O     O_2   0.954557 0.644029 0.695707 -0.632967
O9    O     O_R   0.608370 0.261650 0.491940 -0.587840
O10   O     O_R   0.674540 0.711990 0.487010 -0.596567
O11   O     O_R   0.325460 0.288010 0.512990 -0.647997
O12   O     O_R   0.411370 0.508250 0.688780 -0.589023
O13   O     O_R   0.588630 0.491750 0.311220 -0.493777
O14   O     O_R   0.694270 0.481880 0.667740 -0.613392
O15   O     O_R   0.305730 0.518120 0.332260 -0.682219
O16   O     O_3   0.619707 0.324480 0.139803 -0.574859
Zn1   Zn    Zn3+2 0.311100 0.517600 0.514050 0.928574
Zn2   Zn    Zn3+2 0.688900 0.482400 0.485950 1.020860

loop_
_geom_bond_atom_site_label_1
_geom_bond_atom_site_label_2
_ccdc_geom_bond_type
C16   H19   S    
C17   H24   S    
O13   Zn2   S    
C17   H21   S    
C6    C7    S    
C7    H3    S    
C19   N2    S    
O10   Zn2   S    
O15   Zn1   S    
C21   O15   A    
C5    H30   S    
C13   H11   S    
C1    O10   A    
C17   H22   S    
O11   Zn1   S    
C4    H23   S    
C14   H16   S    
C25   O16   S    
C8    H4    S    
C6    O2    S    
C3    H1    S    
C3    C4    S    
C2    C12   S    
N1    N2    D    
C2    C26   D    
C13   C14   S    
C10   C22   S    
C9    H7    S    
C3    O16   S    
C11   C13   S    
C6    H31   S    
O9    Zn2   S    
O12   Zn1   S    
C18   N1    S    
C14   H15   S    
C5    H29   S    
C4    C5    S    
N1    Zn2   S    
C11   H9    S    
C11   H10   S    
C15   H17   S    
C12   O9    A    
C20   C22   S    
C18   H25   S    
C6    H32   S    
C21   C23   S    
C1    C26   S    
C4    H27   S    
C22   C24   D    
N2    Zn1   S    
C13   H13   S    
C7    C8    S    
C20   O14   A    
C7    H2    S    
C14   H14   S    
C15   C16   S    
C8    H6    S    
C21   O13   A    
C5    H28   S    
C19   O8    D    
C23   C25   D    
C24   C25   S    
C10   H8    S    
C15   O6    S    
O14   Zn2   S    
C16   H20   S    
C15   H18   S    
C9    C23   S    
C24   O2    S    
C18   O7    D    
C9    O3    D    
C26   O5    S    
C20   O12   A    
C19   H26   S    
C12   O11   A    
C10   O4    D    
C8    H5    S    
C11   O5    S    
C3    H12   S    
O1    Zn1   S    
C16   C17   S    
C2    O6    S    
C1    O1    A    
