data_mof_unit_26658.cif
_audit_creation_date              2013-03-05T16:18:07-0500
_audit_creation_method            fapswitch 2.2
_symmetry_space_group_name_H-M    P1
_symmetry_Int_Tables_number       1
_space_group_crystal_system       triclinic
_cell_length_a                    10.904705
_cell_length_b                    10.120536
_cell_length_c                    15.670229
_cell_angle_alpha                 91.841483
_cell_angle_beta                  91.551828
_cell_angle_gamma                 89.923593
_cell_volume                      1727.86207766

loop_
_atom_site_label
_atom_site_type_symbol
_atom_site_description
_atom_site_fract_x
_atom_site_fract_y
_atom_site_fract_z
_atom_type_partial_charge
O1    O     O_R   0.314910 0.616040 0.499980 -0.578139
O2    O     O_R   0.314910 0.383960 0.499980 -0.589476
C1    C     C_R   0.259234 0.500264 0.499020 0.965907
O3    O     O_R   0.500120 0.616090 0.377110 -0.589470
O4    O     O_R   0.500120 0.383910 0.377110 -0.595013
C2    C     C_R   0.500139 0.498226 0.339408 0.976290
Zn1   Zn    Zn3+2 0.500150 0.654960 0.499960 1.027298
Zn2   Zn    Zn3+2 0.500150 0.345040 0.499960 1.027572
O5    O     O_R   0.685320 0.616040 0.499960 -0.563233
O6    O     O_R   0.685320 0.383960 0.499960 -0.586983
O7    O     O_R   0.500110 0.615990 0.622830 -0.637864
O8    O     O_R   0.500110 0.384010 0.622830 -0.608845
C3    C     C_R   0.741539 0.499675 0.502843 1.034226
C4    C     C_R   0.500032 0.501817 0.660577 0.913074
C5    C     C_3   0.466360 0.645056 0.055592 0.131939
C6    C     C_3   0.408888 0.391364 0.045149 0.166527
C7    C     C_3   0.417259 0.389393 0.944753 -0.194149
C8    C     C_3   0.464675 0.643043 0.954200 -0.147560
H1    H     H_    0.459970 0.295396 0.924321 0.165287
H2    H     H_    0.533597 0.714352 0.933156 0.146148
C9    C     C_1   0.501254 0.505597 0.749428 -0.092042
C10   C     C_3   0.505939 0.499284 0.083405 0.210494
C11   C     C_3   0.504938 0.502936 0.916773 0.151508
C12   C     C_3   0.641645 0.470553 0.949153 0.144264
C13   C     C_3   0.643280 0.466939 0.052045 0.046313
C14   C     C_1   0.502804 0.505870 0.824835 0.100680
C15   C     C_1   0.503885 0.495351 0.175352 0.005298
C16   C     C_1   0.501924 0.494760 0.250664 -0.105033
C17   C     C_3   0.073897 0.628227 0.549098 -0.168288
C18   C     C_3   0.077606 0.379088 0.548114 -0.141317
H3    H     H_    0.092660 0.713396 0.509497 0.207778
H4    H     H_    0.108096 0.290121 0.513758 0.200488
C19   C     C_3   0.932196 0.620085 0.557863 0.129194
C20   C     C_3   0.935225 0.369544 0.544103 0.111604
H5    H     H_    0.898174 0.709959 0.528830 0.146886
H6    H     H_    0.912397 0.287188 0.498803 0.175990
C21   C     C_3   0.068860 0.491373 0.402639 0.285694
C22   C     C_3   0.122567 0.501658 0.499407 -0.194571
C23   C     C_3   0.879079 0.498155 0.503297 -0.356992
C24   C     C_3   0.921985 0.508769 0.405238 0.264390
C25   C     C_3   0.393350 0.082937 0.549452 0.196425
C26   C     C_3   0.382529 0.920367 0.537288 0.189559
H7    H     H_    0.391243 0.083811 0.384756 0.117888
H8    H     H_    0.419968 0.870601 0.373313 0.176613
C27   C     C_3   0.486047 0.071383 0.408368 -0.087495
C28   C     C_3   0.501236 0.911965 0.408671 -0.086697
C29   C     C_3   0.619071 0.084723 0.536014 0.194686
C30   C     C_3   0.612000 0.924672 0.546849 0.208461
N1    N     N_3   0.499750 0.138610 0.498180 -0.067253
N2    N     N_3   0.499750 0.861390 0.498180 -0.069920
N3    N     N_3   0.349669 0.690488 0.913899 -0.454205
H9    H     H_    0.271852 0.661125 0.945140 0.208523
H10   H     H_    0.349178 0.793954 0.916942 0.180213
N4    N     N_3   0.299389 0.380646 0.896613 -0.457514
H11   H     H_    0.247431 0.466326 0.899004 0.215016
H12   H     H_    0.247183 0.303209 0.919217 0.188010
N5    N     N_R   0.118258 0.591235 0.345134 0.247118
O9    O     O_R   0.090326 0.582118 0.263823 -0.289619
O10   O     O_R   0.190077 0.686966 0.371384 -0.394787
N6    N     N_R   0.107337 0.360911 0.364525 0.204729
O11   O     O_R   0.044980 0.252422 0.371969 -0.399107
O12   O     O_R   0.212516 0.351450 0.327286 -0.380836
N7    N     N_R   0.881038 0.639713 0.373460 0.212684
O13   O     O_R   0.778967 0.647799 0.328873 -0.382461
O14   O     O_R   0.942823 0.748398 0.388408 -0.414108
N8    N     N_R   0.864967 0.409169 0.344476 0.240383
O15   O     O_R   0.796742 0.312716 0.367956 -0.385464
O16   O     O_R   0.885229 0.416897 0.263258 -0.330607
N9    N     N_3   0.276694 0.143415 0.522312 -0.414337
H13   H     H_    0.203169 0.102769 0.553921 0.147106
H14   H     H_    0.254318 0.145393 0.457619 0.217404
N10   N     N_3   0.275136 0.883775 0.480730 -0.361295
H15   H     H_    0.193045 0.896089 0.512687 0.173723
H16   H     H_    0.261929 0.939987 0.426973 0.175643
N11   N     N_3   0.406899 0.126570 0.640606 -0.378866
H17   H     H_    0.464265 0.068876 0.677615 0.198093
H18   H     H_    0.322994 0.124171 0.671325 0.162949
N12   N     N_3   0.353585 0.856995 0.618532 -0.413222
H19   H     H_    0.410620 0.870827 0.671590 0.184433
H20   H     H_    0.271072 0.896050 0.640506 0.131456
N13   N     N_3   0.723378 0.123462 0.483860 -0.364550
H21   H     H_    0.727828 0.076036 0.424849 0.221472
H22   H     H_    0.806415 0.102212 0.515247 0.174030
N14   N     N_3   0.727558 0.861174 0.521461 -0.370628
H23   H     H_    0.758890 0.879929 0.461757 0.217354
H24   H     H_    0.798955 0.894500 0.562583 0.164956
N15   N     N_3   0.643480 0.148573 0.620283 -0.420289
H25   H     H_    0.658064 0.247155 0.612252 0.303906
H26   H     H_    0.726910 0.116626 0.646050 0.215992
N16   N     N_3   0.605222 0.899211 0.638607 -0.488595
H27   H     H_    0.599377 0.799511 0.646525 0.288726
H28   H     H_    0.685790 0.922596 0.673261 0.198573
N17   N     N_3   0.556475 0.136448 0.342146 -0.344327
H29   H     H_    0.495941 0.191378 0.304514 0.226914
H30   H     H_    0.582535 0.069882 0.294154 0.155432
N18   N     N_3   0.601209 0.852659 0.358329 -0.347697
H31   H     H_    0.568034 0.823090 0.297274 0.204836
H32   H     H_    0.673578 0.915007 0.346497 0.191670
N19   N     N_3   0.344848 0.680379 0.089374 -0.441096
H33   H     H_    0.319201 0.775007 0.070604 0.179642
H34   H     H_    0.349435 0.686191 0.156137 0.234042
N20   N     N_3   0.283727 0.424566 0.074128 -0.375038
H35   H     H_    0.239376 0.492376 0.035627 0.202682
H36   H     H_    0.226093 0.342042 0.070882 0.198211
N21   N     N_3   0.438978 0.258642 0.077802 -0.441414
H37   H     H_    0.364996 0.194142 0.066938 0.175689
H38   H     H_    0.508908 0.211930 0.044413 0.180963
N22   N     N_3   0.554019 0.745451 0.092092 -0.454057
H39   H     H_    0.510790 0.836676 0.102363 0.171649
H40   H     H_    0.624711 0.766608 0.051430 0.192991
N23   N     N_3   0.731475 0.564757 0.089605 -0.450060
H41   H     H_    0.730602 0.563997 0.156250 0.269862
H42   H     H_    0.820869 0.538787 0.073210 0.210381
N24   N     N_3   0.683902 0.336449 0.081776 -0.479464
H43   H     H_    0.684231 0.334878 0.148450 0.244768
H44   H     H_    0.774768 0.318989 0.064856 0.204547
N25   N     N_3   0.725901 0.572148 0.917505 -0.400081
H45   H     H_    0.720076 0.663008 0.949845 0.177247
H46   H     H_    0.817350 0.542671 0.925251 0.209272
N26   N     N_3   0.681372 0.342756 0.909219 -0.415991
H47   H     H_    0.776609 0.332137 0.914872 0.206666
H48   H     H_    0.646074 0.259875 0.937597 0.172200
N27   N     N_3   0.135244 0.654064 0.632839 -0.383704
H49   H     H_    0.114830 0.750780 0.653254 0.201344
H50   H     H_    0.230106 0.645025 0.632792 0.223944
N28   N     N_3   0.135902 0.373758 0.634109 -0.402132
H51   H     H_    0.084355 0.421138 0.680604 0.298580
H52   H     H_    0.145898 0.275600 0.651722 0.219533
N29   N     N_R   0.887307 0.629986 0.646560 0.259717
O17   O     O_R   0.777286 0.673257 0.659479 -0.420696
O18   O     O_R   0.951024 0.594219 0.713300 -0.353628
N30   N     N_R   0.887022 0.329741 0.626599 0.207015
O19   O     O_R   0.802466 0.395653 0.666452 -0.363685
O20   O     O_R   0.925086 0.219320 0.658490 -0.476867

loop_
_geom_bond_atom_site_label_1
_geom_bond_atom_site_label_2
_geom_bond_distance
_ccdc_geom_bond_type
C5    C8    1.587922 S    
N8    O16   1.302457 A    
C9    C14   1.181222 T    
C18   N28   1.476866 S    
N17   H29   1.044779 S    
C25   C26   1.654211 S    
N23   H41   1.044928 S    
N15   H25   1.022800 S    
C27   N17   1.479423 S    
N7    O14   1.302142 A    
N24   H43   1.045334 S    
N5    O9    1.302421 A    
N27   H49   1.045526 S    
C29   N1    1.522836 S    
C27   C28   1.621799 S    
Zn1   O7    1.977767 S    
N21   H38   1.040918 S    
C12   N25   1.485685 S    
C19   C23   1.580089 S    
C24   N7    1.494100 S    
C4    C9    1.391317 S    
N14   H24   1.046282 S    
C21   C24   1.612510 S    
N25   H46   1.045546 S    
O4    C2    1.315859 A    
O7    C4    1.314912 A    
N12   H20   1.044737 S    
N5    O10   1.296211 A    
C17   C19   1.557525 S    
N22   H39   1.045902 S    
C18   C22   1.563475 S    
N6    O12   1.302894 A    
C11   C14   1.441499 S    
N9    H14   1.037070 S    
O5    C3    1.328452 A    
C7    H1    1.100788 S    
C5    C10   1.606903 S    
C2    C16   1.390625 S    
C29   C30   1.636231 S    
C1    C22   1.490535 S    
H8    C28   1.107734 S    
N30   O19   1.299204 A    
C10   C13   1.618598 S    
N18   H32   1.035407 S    
C17   C22   1.576480 S    
C6    C10   1.612123 S    
C11   C12   1.598632 S    
C20   H6    1.101606 S    
C30   N2    1.552500 S    
N8    O15   1.296760 A    
C20   N30   1.476672 S    
N17   H30   1.038602 S    
C24   N8    1.489024 S    
N9    H13   1.045413 S    
O3    Zn1   1.952437 S    
C25   N1    1.546134 S    
N13   H22   1.044146 S    
N26   H48   1.040972 S    
C8    N3    1.475527 S    
N13   H21   1.030361 S    
N4    H12   1.045795 S    
C12   N26   1.487697 S    
C18   C20   1.555201 S    
C20   C23   1.583700 S    
N14   H23   1.028092 S    
N10   H16   1.038265 S    
C23   C24   1.625202 S    
N12   H19   1.030746 S    
C6    C7    1.577826 S    
C30   N14   1.472318 S    
N6    O11   1.302320 A    
O1    C1    1.319857 A    
C29   N15   1.469272 S    
C5    N22   1.486224 S    
N11   H17   1.034268 S    
C21   C22   1.610941 S    
C25   N11   1.485051 S    
N11   H18   1.046001 S    
N16   H28   1.043661 S    
N19   H33   1.046337 S    
C27   N1    1.547026 S    
Zn2   O8    1.952935 S    
N18   H31   1.048289 S    
C26   N10   1.489271 S    
N23   H42   1.045880 S    
C7    C11   1.576350 S    
C12   C13   1.613546 S    
N20   H36   1.045009 S    
H7    C27   1.097007 S    
C8    C11   1.583090 S    
C6    N21   1.485807 S    
C26   N2    1.543583 S    
N30   O20   1.301644 A    
O3    C2    1.314012 A    
N19   H34   1.045805 S    
O8    C4    1.313809 A    
C26   N12   1.485451 S    
C10   C15   1.443448 S    
N15   H26   1.040663 S    
N26   H47   1.045592 S    
C25   N9    1.469382 S    
N29   O17   1.295451 A    
C19   N29   1.486358 S    
Zn1   O5    2.056769 S    
N4    H11   1.035410 S    
N28   H52   1.044324 S    
Zn2   N1    2.088482 S    
O1    Zn1   2.058558 S    
O2    Zn2   2.057523 S    
Zn1   N2    2.090263 S    
C5    N19   1.479315 S    
N10   H15   1.042892 S    
O6    C3    1.321496 A    
O4    Zn2   1.977208 S    
N24   H44   1.045993 S    
N21   H37   1.045357 S    
C28   N2    1.508975 S    
O2    C1    1.324020 A    
N3    H9    1.039504 S    
C17   H3    1.100745 S    
C13   N24   1.477885 S    
C6    N20   1.484745 S    
C18   H4    1.090329 S    
N16   H27   1.022841 S    
N28   H51   1.037185 S    
C17   N27   1.472668 S    
C19   H5    1.090185 S    
N22   H40   1.040148 S    
C8    H2    1.106616 S    
C29   N13   1.479031 S    
N20   H35   1.038652 S    
C3    C23   1.499723 S    
C21   N6    1.495825 S    
N27   H50   1.038370 S    
C13   N23   1.478461 S    
N7    O13   1.301945 A    
C28   N18   1.478334 S    
Zn2   O6    2.057800 S    
C15   C16   1.181131 T    
C30   N16   1.472743 S    
N3    H10   1.046692 S    
N25   H45   1.038302 S    
C7    N4    1.473932 S    
C21   N5    1.486574 S    
N29   O18   1.300718 A    
