data_mof_unit_68541.cif
_audit_creation_date              2012-12-10T16:47:28-0500
_audit_creation_method            fapswitch 2.2
_symmetry_space_group_name_H-M    P1
_symmetry_Int_Tables_number       1
_space_group_crystal_system       triclinic
_cell_length_a                    10.606445
_cell_length_b                    8.686165
_cell_length_c                    7.468959
_cell_angle_alpha                 102.538408
_cell_angle_beta                  94.965325
_cell_angle_gamma                 92.809924
_cell_volume                      667.549628924

loop_
_atom_site_label
_atom_site_type_symbol
_atom_type_description
_atom_site_fract_x
_atom_site_fract_y
_atom_site_fract_z
_atom_type_partial_charge
C1    C     C_R   0.497110 0.199987 0.453575 0.884044
C2    C     C_R   0.502256 0.799980 0.546334 0.879289
C3    C     C_R   0.259404 0.496354 0.500294 0.824246
C4    C     C_R   0.740596 0.502904 0.499648 0.817325
C5    C     C_3   0.047923 0.452393 0.652132 -0.289878
C6    C     C_3   0.951738 0.546059 0.347289 -0.320344
C7    C     C_3   0.949894 0.352813 0.500071 -0.308996
C8    C     C_3   0.050142 0.645965 0.499584 -0.335148
C9    C     C_3   0.877328 0.502015 0.499327 -0.088740
C10   C     C_3   0.122689 0.496305 0.500579 -0.085484
C11   C     C_3   0.974402 0.600162 0.649273 0.574107
C12   C     C_3   0.025721 0.398129 0.350573 0.571624
C13   C     C_2   0.498942 0.032600 0.427423 -0.375955
C14   C     C_2   0.499168 0.967254 0.571975 -0.379175
Cu1   Cu    Cu3+1 0.514140 0.517380 0.684380 0.951096
Cu2   Cu    Cu3+1 0.485860 0.482620 0.315620 0.948009
H1    H     H_    0.905576 0.233949 0.498384 0.140915
H2    H     H_    0.095360 0.763411 0.497464 0.144338
H3    H     H_    0.091749 0.414594 0.774363 0.141226
H4    H     H_    0.906371 0.585563 0.227006 0.165519
H5    H     H_    0.399398 0.378788 0.948801 0.225917
H6    H     H_    0.600556 0.621271 0.051211 0.231333
H7    H     H_    0.500742 0.962820 0.287961 0.178154
H8    H     H_    0.496235 0.037143 0.710980 0.176621
N1    N     N_2   0.464560 0.456420 0.038510 -0.219197
N2    N     N_2   0.535440 0.543580 0.961490 -0.216979
O1    O     O_R   0.509190 0.286130 0.619780 -0.591008
O2    O     O_R   0.490810 0.713870 0.380220 -0.594267
O3    O     O_R   0.485310 0.256770 0.308360 -0.584066
O4    O     O_R   0.514690 0.743230 0.691640 -0.582555
O5    O     O_R   0.328790 0.514640 0.655680 -0.612077
O6    O     O_R   0.671210 0.485360 0.344320 -0.608499
O7    O     O_R   0.304910 0.485280 0.344260 -0.557496
O8    O     O_R   0.695090 0.514720 0.655740 -0.550690
O9    O     O_3   0.935276 0.699125 0.807966 -0.618566
C15   C     C_3   0.034150 0.810997 0.899359 0.025764
H9    H     H_    0.989739 0.901617 0.996873 0.196011
H10   H     H_    0.079137 0.874855 0.804907 0.121489
C16   C     C_3   0.133896 0.738161 0.010831 -0.372771
H11   H     H_    0.086859 0.652347 0.078306 0.234064
H12   H     H_    0.199684 0.674766 0.917747 0.229762
C17   C     C_3   0.211377 0.864806 0.158170 -0.856469
H13   H     H_    0.263765 0.948697 0.093281 0.260379
H14   H     H_    0.280386 0.807421 0.237848 0.271188
H15   H     H_    0.148755 0.931035 0.254983 0.253948
O10   O     O_3   0.063290 0.285357 0.201535 -0.620166
C18   C     C_3   0.972818 0.260819 0.045588 0.029057
H16   H     H_    0.015523 0.185522 0.929635 0.162698
H17   H     H_    0.954368 0.372956 0.002512 0.147655
C19   C     C_3   0.847956 0.176180 0.074835 -0.394160
H18   H     H_    0.867710 0.080930 0.149009 0.216680
H19   H     H_    0.790964 0.261175 0.160496 0.233475
C20   C     C_3   0.768789 0.106316 0.892344 -0.854370
H20   H     H_    0.742591 0.201582 0.820933 0.268713
H21   H     H_    0.680989 0.044507 0.920080 0.257858
H22   H     H_    0.821940 0.019487 0.801407 0.254550

loop_
_geom_bond_atom_site_label_1
_geom_bond_atom_site_label_2
_ccdc_geom_bond_type
Cu2   O2    S    
C19   H19   S    
Cu1   O5    S    
C5    H3    S    
Cu2   O7    S    
Cu2   O6    S    
C6    H4    S    
Cu1   O8    S    
Cu1   O1    S    
C18   H16   S    
C2    O4    A    
C6    C9    S    
C15   H10   S    
C19   H18   S    
N1    N2    D    
C5    C10   S    
C16   H12   S    
C3    C10   S    
C13   C14   D    
C2    O2    A    
C3    O5    A    
C9    C11   S    
Cu2   O3    S    
C4    O6    A    
C17   H14   S    
C8    C11   S    
C10   C12   S    
C1    O3    A    
C15   H9    S    
C18   H17   S    
C5    C11   S    
C18   C19   S    
C5    C7    S    
C20   H21   S    
C12   O10   S    
C6    C12   S    
C7    C12   S    
C2    C14   S    
C4    O8    A    
C19   C20   S    
C1    C13   S    
C17   H13   S    
C3    O7    A    
Cu1   Cu2   S    
C7    C9    S    
Cu2   N1    S    
C13   H7    S    
Cu1   O4    S    
C8    C10   S    
H6    N2    S    
C20   H22   S    
C14   H8    S    
C16   H11   S    
C1    O1    A    
H5    N1    S    
C16   C17   S    
Cu1   N2    S    
C6    C8    S    
C4    C9    S    
O10   C18   S    
C11   O9    S    
C15   C16   S    
C8    H2    S    
O9    C15   S    
C20   H20   S    
C7    H1    S    
C17   H15   S    
