data_mof_unit_41141.cif
_audit_creation_date              2012-12-11T15:17:42-0500
_audit_creation_method            fapswitch 2.2
_symmetry_space_group_name_H-M    P1
_symmetry_Int_Tables_number       1
_space_group_crystal_system       triclinic
_cell_length_a                    15.750115
_cell_length_b                    15.750002
_cell_length_c                    34.466416
_cell_angle_alpha                 89.997624
_cell_angle_beta                  90.00158
_cell_angle_gamma                 119.998399
_cell_volume                      7404.54037213

loop_
_atom_site_label
_atom_site_type_symbol
_atom_type_description
_atom_site_fract_x
_atom_site_fract_y
_atom_site_fract_z
_atom_type_partial_charge
C1    C     C_R   0.578701 0.441393 0.555120 0.572698
C2    C     C_R   0.558608 0.137302 0.555119 0.572684
C3    C     C_R   0.862691 0.421295 0.555120 0.572734
C4    C     C_R   0.441394 0.578700 0.055119 0.572694
C5    C     C_R   0.137306 0.558605 0.055119 0.572708
C6    C     C_R   0.421298 0.862691 0.055120 0.572727
C7    C     C_R   0.973518 0.497977 0.713680 0.353117
C8    C     C_R   0.502005 0.475491 0.713681 0.353118
C9    C     C_R   0.524526 0.026482 0.713676 0.353125
C10   C     C_R   0.497989 0.973490 0.213682 0.353122
C11   C     C_R   0.475501 0.501997 0.213680 0.353119
C12   C     C_R   0.026486 0.524503 0.213677 0.353124
C13   C     C_R   0.992845 0.438395 0.853939 -0.077808
C14   C     C_R   0.561603 0.554675 0.853899 -0.078001
C15   C     C_R   0.445135 0.006726 0.853857 -0.078005
C16   C     C_R   0.438396 0.993007 0.353910 -0.077903
C17   C     C_R   0.554646 0.561605 0.353900 -0.077944
C18   C     C_R   0.006885 0.445297 0.353890 -0.077954
C19   C     C_R   0.025906 0.444524 0.892125 -0.003874
C20   C     C_R   0.555470 0.581620 0.892078 -0.003987
C21   C     C_R   0.418176 0.973638 0.892033 -0.004018
C22   C     C_R   0.444528 0.026079 0.392091 -0.003932
C23   C     C_R   0.581593 0.555474 0.392081 -0.003955
C24   C     C_R   0.973811 0.418351 0.392069 -0.003966
C25   C     C_R   0.071182 0.616533 0.892915 -0.091856
C26   C     C_R   0.383602 0.454540 0.892952 -0.091966
C27   C     C_R   0.545559 0.929264 0.892983 -0.091840
C28   C     C_R   0.616440 0.071013 0.392942 -0.091879
C29   C     C_R   0.454547 0.383590 0.392950 -0.091907
C30   C     C_R   0.929068 0.545470 0.392952 -0.091878
C31   C     C_R   0.033851 0.609102 0.855412 -0.000170
C32   C     C_R   0.391044 0.424652 0.855446 -0.000126
C33   C     C_R   0.575437 0.966581 0.855472 -0.000113
C34   C     C_R   0.609002 0.033682 0.355437 -0.000143
C35   C     C_R   0.424656 0.391029 0.355444 -0.000135
C36   C     C_R   0.966386 0.575353 0.355444 -0.000129
C37   C     C_R   0.001435 0.520857 0.834546 -0.030461
C38   C     C_R   0.479206 0.480617 0.834547 -0.030420
C39   C     C_R   0.519351 0.998589 0.834541 -0.030378
C40   C     C_R   0.520814 0.001421 0.334547 -0.030432
C41   C     C_R   0.480607 0.479199 0.334546 -0.030421
C42   C     C_R   0.998564 0.519375 0.334541 -0.030406
C43   C     C_R   0.073093 0.537103 0.910687 -0.042880
C44   C     C_R   0.462946 0.536026 0.910686 -0.042851
C45   C     C_R   0.463944 0.926932 0.910684 -0.042832
C46   C     C_R   0.537068 0.073085 0.410687 -0.042862
C47   C     C_R   0.536021 0.462945 0.410686 -0.042857
C48   C     C_R   0.926913 0.463969 0.410684 -0.042847
C49   C     C_R   0.577237 0.442750 0.445810 0.532963
C50   C     C_R   0.557252 0.134488 0.445810 0.532942
C51   C     C_R   0.865510 0.422762 0.445809 0.532992
C52   C     C_R   0.442748 0.577238 0.945809 0.532970
C53   C     C_R   0.134485 0.557255 0.945811 0.532884
C54   C     C_R   0.422756 0.865510 0.945807 0.533055
C55   C     C_R   0.913886 0.452443 0.592659 0.025803
C56   C     C_R   0.547535 0.461426 0.592657 0.025799
C57   C     C_R   0.538577 0.086077 0.592651 0.025788
C58   C     C_R   0.452458 0.913886 0.092658 0.025803
C59   C     C_R   0.461433 0.547531 0.092656 0.025797
C60   C     C_R   0.086096 0.538568 0.092654 0.025799
C61   C     C_R   0.924498 0.383592 0.614945 -0.170077
C62   C     C_R   0.616357 0.540908 0.614939 -0.170095
C63   C     C_R   0.459062 0.075351 0.614928 -0.170078
C64   C     C_R   0.383626 0.924531 0.114941 -0.170090
C65   C     C_R   0.540915 0.616353 0.114938 -0.170085
C66   C     C_R   0.075433 0.459083 0.114938 -0.170082
C67   C     C_R   0.948542 0.400780 0.654035 -0.129296
C68   C     C_R   0.599163 0.547754 0.654029 -0.129292
C69   C     C_R   0.452216 0.051297 0.654017 -0.129270
C70   C     C_R   0.400818 0.948570 0.154031 -0.129292
C71   C     C_R   0.547764 0.599157 0.154028 -0.129288
C72   C     C_R   0.051385 0.452236 0.154027 -0.129282
C73   C     C_R   0.964566 0.487953 0.671384 -0.024691
C74   C     C_R   0.512015 0.476571 0.671383 -0.024697
C75   C     C_R   0.523435 0.035387 0.671376 -0.024703
C76   C     C_R   0.487975 0.964553 0.171384 -0.024695
C77   C     C_R   0.476585 0.512006 0.171382 -0.024695
C78   C     C_R   0.035413 0.523419 0.171378 -0.024696
C79   C     C_R   0.963704 0.561126 0.648477 -0.071475
C80   C     C_R   0.438864 0.402515 0.648481 -0.071471
C81   C     C_R   0.597524 0.036348 0.648477 -0.071486
C82   C     C_R   0.561133 0.963661 0.148481 -0.071476
C83   C     C_R   0.402531 0.438853 0.148479 -0.071478
C84   C     C_R   0.036319 0.597476 0.148473 -0.071480
C85   C     C_R   0.937784 0.543418 0.609314 0.374018
C86   C     C_R   0.456575 0.394318 0.609317 0.374032
C87   C     C_R   0.605717 0.062267 0.609314 0.374013
C88   C     C_R   0.543423 0.937751 0.109317 0.374028
C89   C     C_R   0.394331 0.456567 0.109315 0.374014
C90   C     C_R   0.062237 0.605675 0.109311 0.374020
C91   C     C_R   0.985625 0.514163 0.792065 0.326449
C92   C     C_R   0.485870 0.471444 0.792069 0.326397
C93   C     C_R   0.528568 0.014436 0.792065 0.326389
C94   C     C_R   0.514141 0.985590 0.292069 0.326422
C95   C     C_R   0.471440 0.485862 0.292067 0.326411
C96   C     C_R   0.014402 0.528555 0.292063 0.326413
Cr1   Cr    Cr6+3 0.522350 0.263930 0.500020 1.101027
Cr2   Cr    Cr6+3 0.736070 0.258420 0.500020 1.101058
Cr3   Cr    Cr6+3 0.741580 0.477650 0.500020 1.101038
Cr4   Cr    Cr6+3 0.263930 0.522350 0.000020 1.100984
Cr5   Cr    Cr6+3 0.258420 0.736070 0.000020 1.101042
Cr6   Cr    Cr6+3 0.477650 0.741580 0.000020 1.101083
H1    H     H_    0.907400 0.313206 0.602969 0.182817
H2    H     H_    0.686728 0.594220 0.602960 0.182755
H3    H     H_    0.405723 0.092371 0.602946 0.182749
H4    H     H_    0.313250 0.907461 0.102962 0.182775
H5    H     H_    0.594224 0.686727 0.102959 0.182774
H6    H     H_    0.092496 0.405771 0.102962 0.182771
H7    H     H_    0.950744 0.344119 0.671084 0.167159
H8    H     H_    0.655805 0.606635 0.671075 0.167161
H9    H     H_    0.393309 0.049012 0.671060 0.167175
H10   H     H_    0.344170 0.950797 0.171077 0.167163
H11   H     H_    0.606643 0.655801 0.171074 0.167165
H12   H     H_    0.049145 0.393354 0.171075 0.167168
H13   H     H_    0.976878 0.629357 0.661398 0.165923
H14   H     H_    0.370650 0.347433 0.661404 0.165933
H15   H     H_    0.652634 0.023260 0.661403 0.165925
H16   H     H_    0.629353 0.976806 0.161404 0.165929
H17   H     H_    0.347453 0.370637 0.161403 0.165927
H18   H     H_    0.023183 0.652558 0.161394 0.165926
H19   H     H_    0.962920 0.369050 0.838769 0.195140
H20   H     H_    0.630897 0.594231 0.838703 0.195035
H21   H     H_    0.405461 0.036299 0.838635 0.194990
H22   H     H_    0.369088 0.963214 0.338722 0.195077
H23   H     H_    0.594186 0.630903 0.338705 0.195051
H24   H     H_    0.036602 0.405726 0.338691 0.195034
H25   H     H_    0.101819 0.686129 0.907956 0.192800
H26   H     H_    0.314062 0.415458 0.908025 0.192634
H27   H     H_    0.584746 0.898957 0.908084 0.192711
H28   H     H_    0.685997 0.101525 0.408006 0.192738
H29   H     H_    0.415479 0.314045 0.408021 0.192698
H30   H     H_    0.898626 0.584563 0.408028 0.192715
N1    N     N_R   0.932263 0.425272 0.774887 -0.211193
N2    N     N_R   0.574759 0.507054 0.774879 -0.211229
N3    N     N_R   0.492900 0.067655 0.774864 -0.211222
N4    N     N_R   0.425252 0.932285 0.274882 -0.211206
N5    N     N_R   0.507038 0.574749 0.274876 -0.211216
N6    N     N_R   0.067685 0.492947 0.274875 -0.211218
N7    N     N_R   0.926197 0.417356 0.736482 -0.203386
N8    N     N_R   0.582650 0.508887 0.736475 -0.203410
N9    N     N_R   0.491071 0.073693 0.736458 -0.203411
N10   N     N_R   0.417353 0.926222 0.236477 -0.203400
N11   N     N_R   0.508878 0.582641 0.236471 -0.203404
N12   N     N_R   0.073741 0.491113 0.236470 -0.203408
N13   N     N_R   0.026582 0.587068 0.730659 -0.205433
N14   N     N_R   0.412912 0.439369 0.730671 -0.205432
N15   N     N_R   0.560716 0.973578 0.730676 -0.205421
N16   N     N_R   0.587081 0.026491 0.230668 -0.205427
N17   N     N_R   0.439393 0.412905 0.230671 -0.205430
N18   N     N_R   0.973512 0.560624 0.230665 -0.205429
N19   N     N_R   0.033472 0.594732 0.769127 -0.216220
N20   N     N_R   0.405270 0.438609 0.769141 -0.216181
N21   N     N_R   0.561475 0.966716 0.769148 -0.216190
N22   N     N_R   0.594730 0.033377 0.269138 -0.216198
N23   N     N_R   0.438626 0.405264 0.269141 -0.216191
N24   N     N_R   0.966632 0.561386 0.269135 -0.216197
O1    O     O_R   0.498680 0.159540 0.541860 -0.516332
O2    O     O_R   0.840460 0.339140 0.541860 -0.516343
O3    O     O_R   0.660860 0.501320 0.541860 -0.516371
O4    O     O_R   0.159540 0.498680 0.041860 -0.516350
O5    O     O_R   0.339140 0.840460 0.041860 -0.516355
O6    O     O_R   0.501320 0.660860 0.041860 -0.516356
O7    O     O_R   0.532760 0.358060 0.540030 -0.438254
O8    O     O_R   0.641940 0.174700 0.540030 -0.438252
O9    O     O_R   0.825300 0.467240 0.540030 -0.438276
O10   O     O_R   0.358060 0.532760 0.040030 -0.438268
O11   O     O_R   0.174700 0.641940 0.040030 -0.438263
O12   O     O_R   0.467240 0.825300 0.040030 -0.438265
O13   O     O_R   0.498590 0.161190 0.456930 -0.521804
O14   O     O_R   0.838810 0.337400 0.456930 -0.521777
O15   O     O_R   0.662600 0.501410 0.456930 -0.521780
O16   O     O_R   0.161190 0.498590 0.956930 -0.521829
O17   O     O_R   0.337400 0.838810 0.956930 -0.521795
O18   O     O_R   0.501410 0.662600 0.956930 -0.521765
O19   O     O_R   0.532680 0.359580 0.461300 -0.495677
O20   O     O_R   0.640420 0.173100 0.461300 -0.495678
O21   O     O_R   0.826900 0.467320 0.461300 -0.495660
O22   O     O_R   0.359580 0.532680 0.961300 -0.495686
O23   O     O_R   0.173100 0.640420 0.961300 -0.495684
O24   O     O_R   0.467320 0.826900 0.961300 -0.495627
O25   O     O_3   0.666667 0.333333 0.499990 -0.279797
O26   O     O_3   0.333333 0.666667 0.999990 -0.279796
F1    F     F_    0.930621 0.612777 0.588522 -0.608872
F2    F     F_    0.387240 0.317778 0.588529 -0.608870
F3    F     F_    0.682289 0.069530 0.588530 -0.608899
F4    F     F_    0.612766 0.930560 0.088529 -0.608862
F5    F     F_    0.317792 0.387230 0.088527 -0.608893
F6    F     F_    0.069444 0.682218 0.088520 -0.608885
C97   C     C_2   0.009261 0.353498 0.911816 0.275470
H31   H     H_    0.010318 0.349621 0.943190 0.138434
O27   O     O_2   0.991745 0.280536 0.893188 -0.443123
C98   C     C_2   0.646436 0.656288 0.911703 0.275433
H32   H     H_    0.650562 0.661021 0.943080 0.138293
O28   O     O_2   0.719058 0.712236 0.893011 -0.442714
C99   C     C_2   0.343255 0.989644 0.911600 0.275506
H33   H     H_    0.338681 0.989408 0.942976 0.138113
O29   O     O_2   0.286885 0.005603 0.892856 -0.442072
C100  C     C_2   0.353543 0.009677 0.411735 0.275471
H34   H     H_    0.349491 0.010412 0.443112 0.138310
O30   O     O_2   0.280819 0.992758 0.393063 -0.442762
C101  C     C_2   0.656232 0.646447 0.411711 0.275463
H35   H     H_    0.660973 0.650552 0.443088 0.138270
O31   O     O_2   0.712144 0.719096 0.393025 -0.442674
C102  C     C_2   0.990075 0.343650 0.411688 0.275481
H36   H     H_    0.989556 0.338964 0.443066 0.138220
O32   O     O_2   0.006612 0.287615 0.392990 -0.442506
C103  C     C_2   0.027814 0.693288 0.839129 0.283503
H37   H     H_    0.980215 0.683017 0.814712 0.145773
O33   O     O_2   0.074537 0.775070 0.853318 -0.436528
C104  C     C_2   0.306963 0.334303 0.839195 0.283274
H38   H     H_    0.317292 0.297062 0.814763 0.145813
O34   O     O_2   0.225211 0.299045 0.853429 -0.437325
C105  C     C_2   0.665892 0.973032 0.839246 0.283612
H39   H     H_    0.703040 0.020540 0.814787 0.145805
O35   O     O_2   0.701341 0.926762 0.853530 -0.436738
C106  C     C_2   0.693114 0.027480 0.339178 0.283481
H40   H     H_    0.682803 0.979902 0.314751 0.145793
O36   O     O_2   0.774875 0.074039 0.353400 -0.436789
C107  C     C_2   0.334320 0.306936 0.339190 0.283420
H41   H     H_    0.297074 0.317256 0.314756 0.145800
O37   O     O_2   0.299078 0.225183 0.353423 -0.436986
C108  C     C_2   0.972660 0.665709 0.339192 0.283496
H42   H     H_    0.020209 0.702936 0.314753 0.145801
O38   O     O_2   0.926191 0.700989 0.353433 -0.436859

loop_
_geom_bond_atom_site_label_1
_geom_bond_atom_site_label_2
_ccdc_geom_bond_type
C25   C31   A    
C7    N7    A    
C26   C32   A    
C14   H20   S    
Cr3   O3    S    
Cr4   O16   S    
C101  O31   D    
C101  H35   S    
C6    C58   S    
C36   C42   A    
C49   O19   A    
Cr4   O10   S    
Cr4   O22   S    
C25   C43   A    
C13   H19   S    
C2    C57   S    
C26   C44   A    
C7    C73   S    
C96   N24   A    
C105  H39   S    
C27   C33   A    
C7    N13   A    
C28   C46   A    
C33   C39   A    
C15   H21   S    
C23   C101  S    
C42   C96   S    
C54   O17   A    
C30   C48   A    
C61   H1    S    
C1    C56   S    
C106  O36   D    
Cr3   O21   S    
C79   H13   S    
C18   C42   A    
N2    N8    A    
C82   C88   A    
C107  O37   D    
C77   C83   A    
C68   C74   A    
C72   H12   S    
Cr1   O13   S    
C71   H11   S    
C14   C20   A    
C50   O20   A    
C59   C89   A    
C83   H17   S    
C97   O27   D    
Cr4   O4    S    
C39   C93   S    
N4    N10   A    
C11   C77   S    
C53   O16   A    
C3    C55   S    
C10   C76   S    
C43   C53   S    
C48   C51   S    
C66   C72   A    
Cr2   O2    S    
C19   C43   A    
C34   C106  S    
Cr1   O7    S    
C12   C78   S    
C92   N20   A    
C3    O2    A    
C94   N4    A    
C57   C87   A    
C10   N10   A    
C100  H34   S    
C67   C73   A    
C32   C38   A    
C63   H3    S    
Cr4   O26   S    
C13   C37   A    
C84   H18   S    
C56   C62   A    
C66   H6    S    
C44   C52   S    
C95   N23   A    
C88   F4    S    
N5    N11   A    
C60   C66   A    
C85   F1    S    
N18   N24   A    
Cr1   O19   S    
C86   F2    S    
C89   F5    S    
C108  H42   S    
C84   C90   A    
N15   N21   A    
C53   O23   A    
C20   C44   A    
C11   N17   A    
C57   C63   A    
C21   C45   A    
C105  O35   D    
C58   C64   A    
C83   C89   A    
C6    O12   A    
C95   N5    A    
C17   C41   A    
C23   C47   A    
Cr5   O17   S    
C37   C91   S    
C103  H37   S    
Cr6   O26   S    
C63   C69   A    
C1    O3    A    
C106  H40   S    
C87   F3    S    
C76   C82   A    
C107  H41   S    
C49   O15   A    
C33   C105  S    
C75   C81   A    
C96   N6    A    
C68   H8    S    
C35   C107  S    
C65   C71   A    
C9    N15   A    
C62   H2    S    
C12   N12   A    
C16   C22   A    
N13   N19   A    
Cr1   O1    S    
C55   C85   A    
C64   C70   A    
C17   H23   S    
C31   C103  S    
Cr5   O23   S    
C12   N18   A    
C14   C38   A    
C32   C104  S    
C61   C67   A    
C24   C48   A    
C56   C86   A    
C91   N1    A    
C6    O5    A    
C15   C21   A    
Cr6   O6    S    
C5    O4    A    
C8    C74   S    
C73   C79   A    
C29   H29   S    
C54   O24   A    
C17   C23   A    
C26   H26   S    
C21   C99   S    
C108  O38   D    
C15   C39   A    
C81   C87   A    
C70   H10   S    
C16   C40   A    
N14   N20   A    
C81   H15   S    
C22   C46   A    
C29   C47   A    
C45   C54   S    
N1    N7    A    
C104  O34   D    
C70   C76   A    
C27   H27   S    
C18   C24   A    
Cr6   O18   S    
C82   H16   S    
C2    O8    A    
C52   O18   A    
C40   C94   S    
C71   C77   A    
C3    O9    A    
C8    N14   A    
N16   N22   A    
C46   C50   S    
N17   N23   A    
C24   C102  S    
Cr6   O12   S    
C5    C60   S    
Cr2   O20   S    
C36   C108  S    
C22   C100  S    
C51   O14   A    
C92   N2    A    
C64   H4    S    
C67   H7    S    
C102  O32   D    
C93   N3    A    
C19   C97   S    
C58   C88   A    
C20   C98   S    
Cr2   O8    S    
Cr1   O25   S    
C60   C90   A    
C47   C49   S    
Cr5   O11   S    
C29   C35   A    
C80   C86   A    
C30   C36   A    
Cr6   O24   S    
C8    N8    A    
C98   H32   S    
Cr2   O25   S    
Cr5   O5    S    
C25   H25   S    
N6    N12   A    
C59   C65   A    
C91   N19   A    
C94   N22   A    
C69   H9    S    
C28   H28   S    
C27   C45   A    
C41   C95   S    
C90   F6    S    
C2    O1    A    
C30   H30   S    
C55   C61   A    
C4    C59   S    
C93   N21   A    
C79   C85   A    
C4    O10   A    
C69   C75   A    
C50   O13   A    
C4    O6    A    
C62   C68   A    
C5    O11   A    
C16   H22   S    
C97   H31   S    
C35   C41   A    
C52   O22   A    
C78   C84   A    
Cr3   O25   S    
C9    N9    A    
C28   C34   A    
C99   H33   S    
Cr2   O14   S    
C31   C37   A    
N3    N9    A    
Cr3   O15   S    
C102  H36   S    
C1    O7    A    
C104  H38   S    
C74   C80   A    
C72   C78   A    
C103  O33   D    
C13   C19   A    
C34   C40   A    
C100  O30   D    
C9    C75   S    
C80   H14   S    
C99   O29   D    
C51   O21   A    
C11   N11   A    
C65   H5    S    
C18   H24   S    
Cr5   O26   S    
C38   C92   S    
C10   N16   A    
Cr3   O9    S    
C98   O28   D    
