data_mof_unit_19401.cif
_audit_creation_date              2012-12-11T16:56:08-0500
_audit_creation_method            fapswitch 2.2
_symmetry_space_group_name_H-M    P1
_symmetry_Int_Tables_number       1
_space_group_crystal_system       triclinic
_cell_length_a                    6.954088
_cell_length_b                    14.54334
_cell_length_c                    16.196662
_cell_angle_alpha                 90.48439
_cell_angle_beta                  90.066149
_cell_angle_gamma                 89.957518
_cell_volume                      1638.00013241

loop_
_atom_site_label
_atom_site_type_symbol
_atom_type_description
_atom_site_fract_x
_atom_site_fract_y
_atom_site_fract_z
_atom_type_partial_charge
O1    O     O_R   0.505830 0.583360 0.413880 -0.543173
O2    O     O_R   0.175830 0.595460 0.585520 -0.542381
O3    O     O_R   0.005520 0.416640 0.586120 -0.539009
C1    C     C_R   0.344648 0.617249 0.614624 0.705232
O4    O     O_R   0.176120 0.594390 0.414490 -0.512795
O5    O     O_R   0.005810 0.415570 0.413870 -0.543850
C2    C     C_R   0.344650 0.616439 0.386074 0.756427
O6    O     O_R   0.505540 0.584430 0.586130 -0.539844
O7    O     O_3   0.339200 0.441330 0.500000 -0.375606
V1    V     V_3+5 0.064350 0.510880 0.500000 1.468287
O8    O     O_R   0.676100 0.404540 0.414480 -0.543512
C3    C     C_R   0.845094 0.382667 0.385622 0.690843
O9    O     O_R   0.675810 0.405610 0.585510 -0.540642
C4    C     C_R   0.844953 0.385264 0.614596 0.746343
V2    V     V_3+5 0.564340 0.489120 0.500000 1.431281
O10   O     O_3   0.839360 0.558670 0.500000 -0.362515
C5    C     C_2   0.722849 0.214982 0.789591 0.495550
C6    C     C_2   0.886271 0.174183 0.816867 0.318570
C7    C     C_2   0.712149 0.274832 0.715511 -0.158898
C8    C     C_2   0.860868 0.323473 0.685906 -0.348170
H1    H     H_    0.571691 0.282189 0.686896 0.180657
H2    H     H_    0.999554 0.321978 0.716238 0.213698
C9    C     C_R   0.727767 0.181516 0.242712 0.110890
C10   C     C_R   0.882423 0.180762 0.187322 -0.107094
C11   C     C_R   0.033767 0.242867 0.202799 -0.173614
H3    H     H_    0.156206 0.244828 0.161874 0.136838
C12   C     C_R   0.022333 0.307556 0.267848 -0.175773
H4    H     H_    0.136973 0.357137 0.275294 0.125895
C13   C     C_R   0.858900 0.312281 0.319170 -0.110670
C14   C     C_R   0.716010 0.245795 0.306859 0.116689
C15   C     C_3   0.505275 0.258286 0.294680 -0.411965
C16   C     C_3   0.517925 0.187842 0.225131 -0.401591
H5    H     H_    0.469608 0.328581 0.273018 0.163524
H6    H     H_    0.420572 0.234036 0.348414 0.185214
H7    H     H_    0.488709 0.217030 0.163154 0.174123
H8    H     H_    0.441325 0.122661 0.238802 0.173439
C17   C     C_R   0.510335 0.682777 0.740516 0.103218
C18   C     C_R   0.353025 0.681735 0.686261 -0.112783
C19   C     C_R   0.199820 0.741946 0.704322 -0.168078
H9    H     H_    0.076075 0.744089 0.664088 0.147926
C20   C     C_R   0.210845 0.804751 0.770970 -0.165637
H10   H     H_    0.094318 0.852936 0.780307 0.138572
C21   C     C_R   0.376204 0.809943 0.821275 -0.122758
C22   C     C_R   0.522295 0.745865 0.805858 0.111613
C23   C     C_3   0.730223 0.762757 0.790586 -0.413429
C24   C     C_3   0.718098 0.692945 0.720629 -0.401611
H11   H     H_    0.821814 0.740101 0.842644 0.185570
H12   H     H_    0.757510 0.833934 0.769035 0.174006
H13   H     H_    0.800514 0.628941 0.732855 0.163802
H14   H     H_    0.740983 0.723285 0.658636 0.183620
C25   C     C_R   0.486781 0.672985 0.252942 -0.030669
C26   C     C_R   0.351001 0.681948 0.316281 -0.199101
C27   C     C_R   0.211349 0.751964 0.306995 0.601524
C28   C     C_R   0.223612 0.815308 0.241441 -0.271006
H15   H     H_    0.118710 0.870258 0.238285 0.149180
C29   C     C_R   0.375513 0.811082 0.183563 -0.186547
C30   C     C_R   0.498008 0.734865 0.188334 0.064647
C31   C     C_3   0.711284 0.723360 0.181478 -0.141502
C32   C     C_3   0.698069 0.655386 0.253124 -0.383061
H16   H     H_    0.789950 0.787347 0.198707 0.141327
H17   H     H_    0.767794 0.680838 0.310622 0.231674
H18   H     H_    0.732742 0.582850 0.236680 0.153386
O11   O     O_R   0.229930 0.912420 0.917160 -0.544010
O12   O     O_R   0.559420 0.902500 0.088780 -0.544255
O13   O     O_R   0.729660 0.081330 0.089380 -0.540421
C33   C     C_R   0.390352 0.880310 0.117073 0.700189
O14   O     O_R   0.559650 0.901420 0.917750 -0.539815
O15   O     O_R   0.729880 0.080250 0.917130 -0.518202
C34   C     C_R   0.390485 0.879525 0.888739 0.715452
O16   O     O_R   0.229700 0.913500 0.089410 -0.554525
O17   O     O_3   0.396250 0.055540 0.003280 -0.346631
V3    V     V_3+5 0.671130 0.986010 0.003260 1.464878
O18   O     O_R   0.059600 0.091310 0.917720 -0.502315
C35   C     C_R   0.890793 0.112207 0.888820 0.710251
O19   O     O_R   0.059370 0.092380 0.088750 -0.549288
C36   C     C_R   0.890572 0.114667 0.117261 0.680083
V4    V     V_3+5 0.171120 0.007820 0.003230 1.488330
O20   O     O_3   0.896130 0.938240 0.003240 -0.387951
F1    F     F_    0.553450 0.199344 0.829010 -0.661305
F2    F     F_    0.071081 0.763636 0.364303 -0.700507
F3    F     F_    0.054445 0.183445 0.775018 -0.677313
C37   C     C_R   0.775713 0.679794 0.100622 0.123966
C38   C     C_R   0.675075 0.605942 0.063726 -0.131646
C39   C     C_R   0.741097 0.566197 0.990103 -0.124823
C40   C     C_R   0.908284 0.599061 0.952853 -0.111456
C41   C     C_R   0.008800 0.672301 0.988748 -0.134161
C42   C     C_R   0.942511 0.712547 0.062044 -0.109519
H19   H     H_    0.546178 0.578846 0.091936 0.114567
H20   H     H_    0.662945 0.509641 0.962080 0.122062
H21   H     H_    0.959273 0.568195 0.895897 0.112811
H22   H     H_    0.137905 0.698053 0.959695 0.108488
H23   H     H_    0.021956 0.768889 0.089080 0.120779

loop_
_geom_bond_atom_site_label_1
_geom_bond_atom_site_label_2
_ccdc_geom_bond_type
C3    C13   S    
C12   C13   A    
C20   H10   S    
C7    C8    D    
C1    O6    A    
C19   C20   A    
C33   O16   A    
V4    O20   S    
C26   C27   A    
C24   H13   S    
C17   C18   A    
O13   C36   A    
C16   H8    S    
C7    H1    S    
C2    C26   S    
C41   H22   S    
C31   C37   S    
C40   C41   A    
C14   C15   S    
C31   H16   S    
C37   C42   A    
C5    F1    S    
C6    F3    S    
C29   C30   A    
O14   V3    S    
O18   C35   A    
V3    O20   S    
O8    V2    S    
C15   C16   S    
C9    C10   A    
C15   H5    S    
C25   C30   A    
O7    V1    S    
C38   H19   S    
C6    C35   S    
O9    C4    A    
O16   V4    S    
C20   C21   A    
O4    V1    S    
C23   H11   S    
C28   C29   A    
C32   H17   S    
C25   C26   A    
C9    C14   A    
C4    C8    S    
C27   F2    S    
C10   C11   A    
C19   H9    S    
O4    C2    A    
C41   C42   A    
C10   C36   S    
C31   C32   S    
C23   C24   S    
O14   C34   A    
O12   C33   A    
O2    C1    A    
O19   C36   A    
C16   H7    S    
C13   C14   A    
C38   C39   A    
O15   V3    S    
C5    C6    D    
C15   H6    S    
C39   C40   A    
O19   V4    S    
O3    C4    A    
O1    V2    S    
C1    C18   S    
O6    V2    S    
O9    V2    S    
C21   C22   A    
C25   C32   S    
C39   H20   S    
O2    V1    S    
O17   V4    S    
C22   C23   S    
O11   V4    S    
C23   H12   S    
C28   H15   S    
C32   H18   S    
O1    C2    A    
C8    H2    S    
O5    V1    S    
C40   H21   S    
C27   C28   A    
C11   C12   A    
O13   V3    S    
C24   H14   S    
C9    C16   S    
C17   C22   A    
C11   H3    S    
O11   C34   A    
O3    V1    S    
V1    O10   S    
O5    C3    A    
C30   C31   S    
C18   C19   A    
C29   C33   S    
C5    C7    S    
O12   V3    S    
O7    V2    S    
O17   V3    S    
C21   C34   S    
C37   C38   A    
C12   H4    S    
O18   V4    S    
C17   C24   S    
C42   H23   S    
O15   C35   A    
V2    O10   S    
O8    C3    A    
