data_mof_unit_38737.cif
_audit_creation_date              2012-12-10T17:35:37-0500
_audit_creation_method            fapswitch 2.2
_symmetry_space_group_name_H-M    P1
_symmetry_Int_Tables_number       1
_space_group_crystal_system       triclinic
_cell_length_a                    10.781838
_cell_length_b                    12.352821
_cell_length_c                    13.275696
_cell_angle_alpha                 117.440724
_cell_angle_beta                  77.398265
_cell_angle_gamma                 101.653729
_cell_volume                      1520.85687485

loop_
_atom_site_label
_atom_site_type_symbol
_atom_type_description
_atom_site_fract_x
_atom_site_fract_y
_atom_site_fract_z
_atom_type_partial_charge
C1    C     C_R   0.510763 0.854773 0.287115 0.781148
C2    C     C_3   0.122483 0.011359 0.513927 0.121987
C3    C     C_3   0.042320 0.978621 0.610845 -0.395584
C4    C     C_3   0.075102 0.915860 0.400017 -0.475370
C5    C     C_R   0.304847 0.280255 0.015888 -0.200938
C6    C     C_R   0.440144 0.229836 0.832831 -0.045507
C7    C     C_R   0.607793 0.810674 0.089323 -0.186490
C8    C     C_R   0.629928 0.732071 0.973878 -0.153327
C9    C     C_R   0.566200 0.614132 0.932137 -0.191760
C10   C     C_R   0.483318 0.569757 0.007101 0.086995
C11   C     C_R   0.449630 0.653951 0.122383 0.078047
C12   C     C_R   0.737315 0.010031 0.514577 0.762926
C13   C     C_R   0.436633 0.443805 0.972397 0.074898
C14   C     C_R   0.346452 0.405716 0.048414 0.173365
C15   C     C_R   0.299360 0.493390 0.155673 -0.251914
C16   C     C_R   0.349323 0.616209 0.191975 -0.235067
C17   C     C_R   0.482579 0.353819 0.866022 -0.268058
C18   C     C_R   0.351901 0.192386 0.908396 -0.201511
C19   C     C_R   0.518510 0.772990 0.164512 -0.102999
C20   C     C_R   0.746203 0.383384 0.400653 -0.311888
C21   C     C_R   0.312123 0.750438 0.628373 0.039297
C22   C     C_R   0.265813 0.649242 0.652184 0.149816
C23   C     C_R   0.475792 0.145473 0.712956 0.756586
C24   C     C_R   0.338752 0.551335 0.608305 -0.203607
C25   C     C_R   0.458566 0.553592 0.541082 -0.081171
C26   C     C_R   0.501472 0.657530 0.516172 0.235463
C27   C     C_R   0.537476 0.455508 0.495403 -0.019769
C28   C     C_R   0.666957 0.477406 0.452011 0.156338
C29   C     C_R   0.712981 0.589563 0.449577 -0.317319
C30   C     C_R   0.624808 0.657200 0.448238 0.176278
C31   C     C_R   0.494921 0.336645 0.489740 0.023354
C32   C     C_R   0.696749 0.267004 0.391476 0.049888
C33   C     C_R   0.260307 0.003355 0.504555 0.772081
C34   C     C_3   0.958712 0.139281 0.521242 -0.066619
C35   C     C_3   0.100072 0.143327 0.536782 0.008347
C36   C     C_3   0.903223 0.009074 0.632808 -0.073846
C37   C     C_3   0.928428 0.906632 0.413772 -0.440646
C38   C     C_3   0.875941 0.017633 0.523780 0.090061
Cu1   Cu    Cu3+1 0.529690 0.098270 0.475420 0.917256
Cu2   Cu    Cu3+1 0.470310 0.901730 0.524580 0.912282
H1    H     H_    0.103300 0.823753 0.374398 0.176542
H2    H     H_    0.042377 0.878879 0.584288 0.178087
H3    H     H_    0.316074 0.096343 0.882925 0.145417
H4    H     H_    0.226154 0.466614 0.212941 0.141486
H5    H     H_    0.235507 0.250370 0.073249 0.126949
H6    H     H_    0.552367 0.377655 0.806271 0.165026
H7    H     H_    0.663081 0.900464 0.120303 0.148467
H8    H     H_    0.583761 0.560272 0.840775 0.132624
H9    H     H_    0.700539 0.760990 0.916918 0.133637
H10   H     H_    0.965845 0.124733 0.430780 0.111811
H11   H     H_    0.308683 0.680613 0.275336 0.172626
H12   H     H_    0.758546 0.194988 0.353350 0.118569
H13   H     H_    0.811475 0.602217 0.411336 0.148081
H14   H     H_    0.845014 0.398983 0.365260 0.130066
H15   H     H_    0.399648 0.315025 0.526756 0.120503
H16   H     H_    0.255908 0.826328 0.662563 0.132998
H17   H     H_    0.302068 0.476106 0.630653 0.143111
H18   H     H_    0.162314 0.167315 0.469300 0.143116
H19   H     H_    0.902787 0.101635 0.704508 0.154979
H20   H     H_    0.085840 0.028308 0.691392 0.140948
H21   H     H_    0.886010 0.819298 0.419202 0.191847
H22   H     H_    0.901314 0.902147 0.335512 0.156120
H23   H     H_    0.119449 0.943462 0.330071 0.165832
N1    N     N_R   0.574690 0.246280 0.438200 -0.178214
N2    N     N_R   0.426100 0.754320 0.561190 -0.227190
O1    O     O_R   0.537340 0.972510 0.318130 -0.570589
O2    O     O_R   0.487200 0.806530 0.359650 -0.582114
O3    O     O_R   0.707380 0.082980 0.479220 -0.601053
O4    O     O_R   0.657240 0.917000 0.520740 -0.571055
O5    O     O_R   0.512800 0.193470 0.640350 -0.583761
O6    O     O_R   0.462660 0.027490 0.681870 -0.585320
O7    O     O_R   0.342760 0.083000 0.479260 -0.596955
O8    O     O_R   0.292620 0.917020 0.520780 -0.601383
C39   C     C_3   0.904286 0.266493 0.589283 -0.365324
C40   C     C_3   0.843336 0.303047 0.714826 -0.328575
C41   C     C_3   0.814188 0.435809 0.772357 -0.878484
H24   H     H_    0.904246 0.499064 0.779835 0.259046
H25   H     H_    0.755112 0.450420 0.721851 0.254442
H26   H     H_    0.762823 0.457855 0.860366 0.249998
H27   H     H_    0.753317 0.242041 0.718465 0.200379
H28   H     H_    0.907396 0.297555 0.766144 0.217382
H29   H     H_    0.981152 0.339228 0.583939 0.187609
H30   H     H_    0.832861 0.271848 0.543940 0.216036
C42   C     C_3   0.808293 0.924697 0.679701 -0.416534
C43   C     C_3   0.706600 0.997411 0.775800 -0.353394
C44   C     C_3   0.597682 0.913930 0.807397 -0.762187
H31   H     H_    0.548756 0.851839 0.732529 0.268237
H32   H     H_    0.635218 0.858042 0.836496 0.231732
H33   H     H_    0.527255 0.970152 0.877416 0.234811
H34   H     H_    0.752233 0.060329 0.853432 0.196840
H35   H     H_    0.667486 0.055152 0.749734 0.222116
H36   H     H_    0.765454 0.843570 0.609968 0.238878
H37   H     H_    0.859942 0.887393 0.718645 0.188470
C45   C     C_3   0.137546 0.643711 0.722549 -0.939221
H38   H     H_    0.092195 0.728921 0.754178 0.223968
H39   H     H_    0.073880 0.565141 0.668673 0.235508
H40   H     H_    0.147945 0.630803 0.797603 0.246935
C46   C     C_3   0.640772 0.651662 0.330197 -0.740135
H41   H     H_    0.685514 0.740349 0.329982 0.235093
H42   H     H_    0.706082 0.584128 0.265574 0.188608
H43   H     H_    0.548836 0.615441 0.295449 0.246882
C47   C     C_3   0.143023 0.243334 0.652453 -0.878593
H44   H     H_    0.245596 0.244263 0.653487 0.236458
H45   H     H_    0.132958 0.336906 0.666933 0.232413
H46   H     H_    0.090969 0.228261 0.727143 0.226375

loop_
_geom_bond_atom_site_label_1
_geom_bond_atom_site_label_2
_ccdc_geom_bond_type
C2    C35   S    
C8    C9    A    
C12   O4    A    
C3    H2    S    
Cu2   O6    S    
Cu1   O3    S    
C16   H11   S    
C39   H30   S    
C36   H19   S    
C37   H22   S    
C43   H35   S    
C7    C8    A    
C43   C44   S    
Cu1   N1    S    
C12   O3    A    
C4    H23   S    
C11   C19   A    
C29   C30   A    
C35   H18   S    
C28   C29   A    
C41   H25   S    
C15   H4    S    
C47   H45   S    
C44   H32   S    
C4    H1    S    
C15   C16   A    
Cu2   O8    S    
C47   H46   S    
C34   C35   S    
C32   H12   S    
C33   O7    A    
C24   H17   S    
Cu2   O2    S    
Cu1   O7    S    
C41   H26   S    
C9    C10   A    
C3    H20   S    
C35   C47   S    
C21   C22   A    
C22   C45   S    
C23   O5    A    
C47   H44   S    
C39   H29   S    
C41   H24   S    
C6    C18   A    
C34   H10   S    
C1    C19   S    
C39   C40   S    
C27   C31   A    
C23   O6    A    
C24   C25   A    
C32   N1    A    
C20   H14   S    
Cu2   O4    S    
Cu1   Cu2   S    
C44   H31   S    
C40   H28   S    
C5    C18   A    
C20   C28   A    
C45   H40   S    
C25   C26   A    
C5    H5    S    
C10   C13   A    
C7    H7    S    
C2    C4    S    
C40   C41   S    
C37   C38   S    
C11   C16   A    
C43   H34   S    
C1    O1    A    
C42   C43   S    
C45   H39   S    
C5    C14   A    
C34   C39   S    
C2    C33   S    
C33   O8    A    
C26   C30   A    
C7    C19   A    
Cu2   N2    S    
Cu1   O1    S    
C22   C24   A    
C20   C32   A    
C6    C17   A    
C21   N2    A    
C34   C38   S    
C26   N2    A    
C31   N1    A    
C44   H33   S    
C21   H16   S    
C37   H21   S    
C17   H6    S    
C25   C27   A    
C46   H43   S    
C30   C46   S    
C46   H42   S    
C13   C17   A    
C36   C38   S    
C2    C3    S    
C18   H3    S    
C29   H13   S    
C3    C36   S    
C36   C42   S    
C6    C23   S    
C1    O2    A    
Cu1   O5    S    
C42   H37   S    
C12   C38   S    
C45   H38   S    
C10   C11   A    
C40   H27   S    
C4    C37   S    
C9    H8    S    
C46   H41   S    
C27   C28   A    
C14   C15   A    
C42   H36   S    
C31   H15   S    
C13   C14   A    
C8    H9    S    
