data_mof_unit_12664.cif
_audit_creation_date              2013-03-05T15:45:10-0500
_audit_creation_method            fapswitch 2.2
_symmetry_space_group_name_H-M    P1
_symmetry_Int_Tables_number       1
_space_group_crystal_system       triclinic
_cell_length_a                    11.523669
_cell_length_b                    11.488947
_cell_length_c                    19.530671
_cell_angle_alpha                 90.636411
_cell_angle_beta                  90.42084
_cell_angle_gamma                 60.001006
_cell_volume                      2239.21337246

loop_
_atom_site_label
_atom_site_type_symbol
_atom_site_description
_atom_site_fract_x
_atom_site_fract_y
_atom_site_fract_z
_atom_type_partial_charge
O1    O     O_R   0.267740 0.231990 0.575440 -0.497044
O2    O     O_R   0.527280 0.186680 0.570530 -0.497076
C1    C     C_R   0.640839 0.117715 0.599138 0.547033
O3    O     O_R   0.728090 0.003480 0.576380 -0.493812
O4    O     O_R   0.682970 0.789220 0.570490 -0.490688
C2    C     C_R   0.612931 0.745512 0.598550 0.545198
O5    O     O_R   0.499290 0.771920 0.575530 -0.500919
O6    O     O_R   0.285330 0.030900 0.569730 -0.484682
C3    C     C_R   0.240765 0.145476 0.598164 0.558262
O7    O     O_R   0.270980 0.227040 0.423900 -0.487296
O8    O     O_R   0.530280 0.182090 0.430050 -0.538200
C4    C     C_R   0.647005 0.113523 0.402844 0.525358
O9    O     O_R   0.731330 0.998530 0.424830 -0.466689
O10   O     O_R   0.685970 0.784630 0.430010 -0.510401
C5    C     C_R   0.614828 0.741320 0.401719 0.535108
O11   O     O_R   0.502530 0.766960 0.423990 -0.514016
O12   O     O_R   0.288330 0.026310 0.429250 -0.490678
C6    C     C_R   0.302507 0.114114 0.393910 0.547181
Cr1   Cr    Cr6+3 0.404720 0.198220 0.499960 1.044434
Cr2   Cr    Cr6+3 0.698290 0.897110 0.500380 1.062627
Cr3   Cr    Cr6+3 0.396970 0.904720 0.499610 1.061939
O13   O     O_3   0.499990 0.000020 0.499980 -0.286067
C7    C     C_1   0.669619 0.647145 0.860189 0.008970
C8    C     C_1   0.655215 0.683630 0.728450 -0.029057
C9    C     C_1   0.663101 0.667107 0.799729 -0.028843
C10   C     C_1   0.642049 0.703538 0.667953 0.006331
C11   C     C_1   0.126743 0.198414 0.859295 0.007026
C12   C     C_1   0.171447 0.170299 0.727664 -0.028829
C13   C     C_1   0.150130 0.182012 0.798920 -0.028173
C14   C     C_1   0.195186 0.161121 0.667333 0.004988
C15   C     C_1   0.677844 0.191352 0.860829 0.008235
C16   C     C_1   0.658700 0.167513 0.728988 -0.028807
C17   C     C_1   0.665192 0.181108 0.800313 -0.028634
C18   C     C_1   0.653521 0.149952 0.668541 0.006463
C19   C     C_R   0.526265 0.738689 0.289243 -0.110504
H1    H     H_    0.426996 0.775522 0.310098 0.170355
C20   C     C_R   0.539378 0.730324 0.219682 -0.132966
H2    H     H_    0.451793 0.753713 0.188886 0.154085
C21   C     C_R   0.665948 0.679020 0.190627 0.015663
C22   C     C_R   0.778591 0.654293 0.231996 -0.000106
C23   C     C_R   0.762750 0.664485 0.302565 -0.121173
H3    H     H_    0.846269 0.645765 0.335616 0.170123
C24   C     C_R   0.638195 0.703753 0.330942 0.004328
C25   C     C_R   0.282529 0.218548 0.281422 -0.100615
H4    H     H_    0.330352 0.271657 0.302515 0.161008
C26   C     C_R   0.231975 0.247156 0.215147 -0.081601
H5    H     H_    0.240853 0.322398 0.186384 0.169421
C27   C     C_R   0.163759 0.184771 0.188027 0.018027
C28   C     C_R   0.156823 0.085027 0.225877 -0.130795
H6    H     H_    0.105408 0.034631 0.205867 0.174461
C29   C     C_R   0.207069 0.056737 0.292302 -0.130803
H7    H     H_    0.194262 0.984634 0.321735 0.174864
C30   C     C_R   0.265049 0.127730 0.321451 0.009281
C31   C     C_R   0.763749 0.041581 0.290710 -0.026225
C32   C     C_R   0.745641 0.054886 0.220106 0.174917
C33   C     C_R   0.667817 0.183956 0.192591 -0.017159
C34   C     C_R   0.587600 0.293362 0.235460 -0.154225
H8    H     H_    0.531274 0.393316 0.214121 0.192484
C35   C     C_R   0.587259 0.276903 0.306260 -0.041752
C36   C     C_R   0.672955 0.148426 0.334352 -0.040860
O14   O     O_R   0.821500 0.119550 0.952820 -0.492956
O15   O     O_R   0.037130 0.162750 0.957360 -0.496787
C37   C     C_R   0.081987 0.231006 0.928591 0.543083
O16   O     O_R   0.056440 0.344950 0.951330 -0.504210
O17   O     O_R   0.797900 0.560570 0.957460 -0.489118
C38   C     C_R   0.683485 0.605042 0.929547 0.550770
O18   O     O_R   0.596140 0.579600 0.952720 -0.503379
O19   O     O_R   0.639070 0.321380 0.958660 -0.496459
C39   C     C_R   0.707832 0.206578 0.930229 0.550599
O20   O     O_R   0.821240 0.124490 0.104360 -0.436247
O21   O     O_R   0.036900 0.167320 0.097830 -0.502552
C40   C     C_R   0.085939 0.234457 0.124792 0.545359
O22   O     O_R   0.056190 0.349890 0.102870 -0.509733
O23   O     O_R   0.797670 0.565150 0.097930 -0.517459
C41   C     C_R   0.683111 0.615276 0.124448 0.553093
O24   O     O_R   0.595880 0.584540 0.104260 -0.512063
O25   O     O_R   0.638830 0.325960 0.099140 -0.516485
C42   C     C_R   0.705669 0.209798 0.125674 0.578608
Cr4   Cr    Cr6+3 0.926180 0.152240 0.028110 1.089185
Cr5   Cr    Cr6+3 0.921340 0.452070 0.027460 1.056025
Cr6   Cr    Cr6+3 0.626260 0.447120 0.028700 1.047865
O26   O     O_3   0.824590 0.350480 0.028090 -0.268658
N1    N     N_R   0.814705 0.939522 0.175693 0.049066
O27   O     O_R   0.747995 0.917882 0.128069 -0.369221
O28   O     O_R   0.945109 0.872615 0.174069 -0.351562
C43   C     C_2   0.506136 0.396948 0.350222 0.253711
H9    H     H_    0.526166 0.394289 0.404688 0.130005
O29   O     O_2   0.417059 0.501324 0.325894 -0.493587
C44   C     C_2   0.912578 0.618427 0.204351 0.289364
H10   H     H_    0.923185 0.646930 0.153120 0.196215
O30   O     O_2   0.013323 0.559574 0.239573 -0.511702
C45   C     C_2   0.882029 0.917492 0.316641 0.317282
H11   H     H_    0.905675 0.819842 0.296666 0.156994
O31   O     O_2   0.957500 0.924675 0.358515 -0.474519

loop_
_geom_bond_atom_site_label_1
_geom_bond_atom_site_label_2
_geom_bond_distance
_ccdc_geom_bond_type
C32   C33   1.404555 A    
O11   Cr3   2.053099 S    
O20   C42   1.265468 A    
O16   Cr5   2.055863 S    
C23   H3    1.084532 S    
C19   H1    1.082836 S    
O21   Cr4   1.924158 S    
Cr6   O26   1.979640 S    
O4    Cr2   1.924234 S    
C31   C36   1.426057 A    
O25   C42   1.274567 A    
O8    Cr1   1.935834 S    
C20   H2    1.084495 S    
O19   Cr6   1.930224 S    
C7    C38   1.424276 S    
C12   C13   1.408201 S    
C19   C20   1.365058 A    
C8    C10   1.200022 T    
O4    C2    1.273503 A    
C43   O29   1.221493 D    
C34   C35   1.398013 A    
C11   C13   1.203121 T    
C5    O11   1.254938 A    
C33   C42   1.460477 S    
C33   C34   1.400548 A    
C28   H6    1.083342 S    
C6    C30   1.463538 S    
C26   H5    1.083233 S    
C25   C30   1.403945 A    
O19   C39   1.273167 A    
C28   C29   1.390732 A    
C15   C17   1.201493 T    
C21   C41   1.443581 S    
C22   C44   1.488755 S    
C44   O30   1.221423 D    
C19   C24   1.400779 A    
C38   O18   1.267763 A    
O20   Cr4   2.050447 S    
C35   C36   1.416843 A    
O17   Cr5   1.919006 S    
O23   Cr5   1.936692 S    
Cr3   O13   1.976792 S    
C23   C24   1.389049 A    
C27   C40   1.463848 S    
C25   C26   1.389156 A    
O6    Cr3   1.936228 S    
O7    C6    1.293527 A    
C26   C27   1.400383 A    
O1    Cr1   2.055356 S    
O23   C41   1.259300 A    
C29   H7    1.082839 S    
O10   Cr2   1.928776 S    
O15   Cr4   1.934598 S    
Cr1   O13   1.972476 S    
O1    C3    1.265835 A    
C8    C9    1.403246 S    
Cr5   O26   1.976669 S    
C21   C22   1.428077 A    
C43   H9    1.084371 S    
O6    C3    1.271567 A    
C1    C18   1.426866 S    
O5    Cr3   2.035284 S    
O12   Cr3   1.917210 S    
C29   C30   1.401720 A    
O3    Cr2   2.046097 S    
C41   O24   1.279329 A    
C31   C45   1.486466 S    
O15   C37   1.271721 A    
N1    O27   1.301301 A    
O25   Cr6   1.920754 S    
O7    Cr1   2.039261 S    
C45   O31   1.221405 D    
O12   C6    1.304848 A    
C11   C37   1.429611 S    
C3    C14   1.429608 S    
C27   C28   1.406168 A    
N1    O28   1.301987 A    
Cr2   O13   1.979413 S    
O18   Cr6   2.038020 S    
C32   N1    1.439563 S    
C1    O3    1.266904 A    
C25   H4    1.083077 S    
O14   C39   1.265628 A    
C31   C32   1.391726 A    
C22   C23   1.387589 A    
O9    Cr2   2.042053 S    
O2    Cr1   1.923578 S    
C40   O22   1.271017 A    
O24   Cr6   2.048448 S    
Cr4   O26   1.972713 S    
O8    C4    1.286001 A    
C2    O5    1.267369 A    
C16   C17   1.405649 S    
C12   C14   1.203119 T    
O2    C1    1.270718 A    
C35   C43   1.486439 S    
C5    C24   1.430250 S    
O21   C40   1.270463 A    
C20   C21   1.393513 A    
C34   H8    1.083991 S    
C2    C10   1.424255 S    
O14   Cr4   2.042841 S    
C45   H11   1.082240 S    
O22   Cr5   2.035358 S    
C7    C9    1.200029 T    
C37   O16   1.265403 A    
C4    C36   1.475591 S    
C15   C39   1.426708 S    
C4    O9    1.263637 A    
O17   C38   1.272255 A    
O10   C5    1.272849 A    
C44   H10   1.082778 S    
C16   C18   1.201543 T    
