data_mof_unit_60265.cif
_audit_creation_date              2012-10-26T18:06:51-0400
_audit_creation_method            fapswitch 2.2
_symmetry_space_group_name_H-M    P1
_symmetry_Int_Tables_number       1
_space_group_crystal_system       triclinic
_cell_length_a                    21.700136
_cell_length_b                    21.756153
_cell_length_c                    24.785002
_cell_angle_alpha                 115.966891
_cell_angle_beta                  116.252172
_cell_angle_gamma                 89.824421
_cell_volume                      9167.52193782

loop_
_atom_site_label
_atom_site_type_symbol
_atom_type_description
_atom_site_fract_x
_atom_site_fract_y
_atom_site_fract_z
_atom_type_partial_charge
C1    C     C_R   0.065964 0.566214 0.632524 0.536572
C2    C     C_R   0.400501 0.210268 0.579635 -0.106177
C3    C     C_R   0.442789 0.695359 0.449824 -0.021190
C4    C     C_R   0.680130 0.888254 0.609958 -0.041607
C5    C     C_R   0.054456 0.292927 0.271865 0.269086
C6    C     C_R   0.735047 0.946299 0.666175 -0.093544
C7    C     C_R   0.729993 0.987211 0.725351 -0.086896
C8    C     C_R   0.669869 0.970332 0.728303 -0.099180
C9    C     C_R   0.614559 0.912756 0.671965 -0.103348
C10   C     C_R   0.619483 0.871329 0.612530 0.030061
C11   C     C_R   0.539152 0.263568 0.314078 -0.102979
C12   C     C_R   0.510425 0.253055 0.350769 -0.067426
C13   C     C_R   0.386900 0.201465 0.626163 -0.111404
C14   C     C_R   0.552821 0.276204 0.421403 0.039557
C15   C     C_R   0.624757 0.310353 0.455137 0.012599
C16   C     C_R   0.653105 0.320187 0.417714 -0.114044
C17   C     C_1   0.129653 0.782471 0.849871 0.264311
C18   C     C_1   0.787029 0.211212 0.850581 0.229486
C19   C     C_1   0.625071 0.734186 0.599042 0.233651
C20   C     C_1   0.670350 0.334373 0.527544 0.189533
C21   C     C_1   0.535734 0.140126 0.409581 0.224702
C22   C     C_1   0.455885 0.357275 0.584277 0.239099
C23   C     C_R   0.442658 0.215580 0.690026 -0.142561
C24   C     C_R   0.258133 0.443153 0.450128 -0.071752
C25   C     C_R   0.512169 0.239016 0.707800 -0.078733
C26   C     C_R   0.526825 0.247913 0.661555 0.283979
C27   C     C_R   0.470238 0.232689 0.596378 0.031867
C28   C     C_R   0.313731 0.503015 0.499595 0.016635
C29   C     C_R   0.304539 0.561989 0.548338 -0.020802
C30   C     C_R   0.239629 0.558708 0.546868 -0.130775
C31   C     C_R   0.038006 0.246985 0.291952 -0.126107
C32   C     C_R   0.184551 0.498426 0.498045 0.025538
C33   C     C_R   0.193270 0.440167 0.448572 0.020112
C34   C     C_R   0.382347 0.657782 0.669774 -0.086560
C35   C     C_R   0.433470 0.721291 0.717527 -0.101296
C36   C     C_R   0.462142 0.756409 0.695222 -0.094462
C37   C     C_R   0.117965 0.499045 0.498478 0.546554
C38   C     C_R   0.439728 0.728097 0.625136 -0.097919
C39   C     C_R   0.388919 0.664432 0.577302 -0.059062
C40   C     C_R   0.359956 0.628581 0.599213 0.046323
C41   C     C_R   0.099659 0.673963 0.744111 -0.118732
C42   C     C_R   0.610456 0.296669 0.347417 -0.111879
C43   C     C_R   0.133872 0.710387 0.816155 -0.006337
C44   C     C_R   0.173331 0.677179 0.853721 0.010723
C45   C     C_R   0.177464 0.607830 0.817631 -0.074829
C46   C     C_R   0.142062 0.571489 0.745764 -0.112799
C47   C     C_R   0.102987 0.604264 0.708432 -0.023077
C48   C     C_R   0.281771 0.781399 0.069780 0.345350
C49   C     C_R   0.933927 0.433777 0.367405 0.538771
C50   C     C_R   0.211179 0.713525 0.929874 0.351403
C51   C     C_R   0.285620 0.852838 0.182938 -0.106956
C52   C     C_R   0.322286 0.889473 0.254820 -0.125589
C53   C     C_R   0.519293 0.196377 0.456880 -0.035448
C54   C     C_R   0.395001 0.894433 0.291308 0.020951
C55   C     C_R   0.430235 0.861515 0.254458 -0.105346
C56   C     C_R   0.393358 0.824127 0.182504 -0.104215
C57   C     C_R   0.320696 0.819650 0.145970 0.033683
C58   C     C_R   0.933427 0.416105 0.652113 -0.101526
C59   C     C_R   0.879234 0.423803 0.599471 -0.140046
C60   C     C_R   0.867729 0.490633 0.610102 0.007106
C61   C     C_R   0.881825 0.500618 0.501070 0.550335
C62   C     C_R   0.911212 0.550529 0.674876 0.189480
C63   C     C_R   0.965647 0.542040 0.727381 -0.071509
C64   C     C_R   0.500113 0.185881 0.500247 0.011329
C65   C     C_R   0.976663 0.475023 0.716294 0.214824
C66   C     C_R   0.743531 0.497153 0.552167 -0.090399
C67   C     C_R   0.686245 0.503544 0.500269 0.010071
C68   C     C_R   0.694263 0.511012 0.449756 -0.024410
C69   C     C_R   0.759199 0.510174 0.451389 -0.127339
C70   C     C_R   0.815532 0.501540 0.502005 0.028657
C71   C     C_R   0.808282 0.496030 0.553512 0.014278
C72   C     C_R   0.590368 0.465513 0.332171 -0.085567
C73   C     C_R   0.070255 0.264377 0.360937 -0.170645
C74   C     C_R   0.537972 0.476734 0.281094 -0.163742
C75   C     C_R   0.482640 0.240351 0.544968 -0.013023
C76   C     C_R   0.532988 0.545177 0.293501 -0.092527
C77   C     C_R   0.579983 0.602858 0.357435 0.286209
C78   C     C_R   0.631972 0.591518 0.409107 -0.069687
C79   C     C_R   0.637317 0.522789 0.396572 -0.002042
C80   C     C_R   0.891229 0.431932 0.254937 -0.100789
C81   C     C_R   0.854262 0.396672 0.183046 -0.069056
C82   C     C_R   0.820282 0.324960 0.146040 0.063290
C83   C     C_R   0.824630 0.289106 0.182504 -0.087384
C84   C     C_R   0.862422 0.324189 0.254440 -0.127737
C85   C     C_R   0.120255 0.327514 0.411046 -0.122639
C86   C     C_R   0.479970 0.303643 0.542871 -0.015956
C87   C     C_R   0.895626 0.396080 0.291355 0.010535
C88   C     C_R   0.715411 0.217280 0.930015 0.341894
C89   C     C_R   0.782475 0.287367 0.069873 0.361694
C90   C     C_R   0.713200 0.177590 0.816557 -0.009133
C91   C     C_R   0.676149 0.140631 0.744486 -0.094146
C92   C     C_R   0.604839 0.105176 0.708546 0.013244
C93   C     C_R   0.570880 0.106630 0.745698 -0.162093
C94   C     C_R   0.607634 0.142700 0.817564 -0.147680
C95   C     C_R   0.678772 0.178994 0.853874 0.022639
C96   C     C_R   0.500416 0.619034 0.499745 0.530320
C97   C     C_R   0.500444 0.314466 0.500480 -0.005378
C98   C     C_R   0.135519 0.376281 0.393375 -0.029708
C99   C     C_R   0.380914 0.501453 0.499918 0.537187
C100  C     C_R   0.500123 0.381225 0.500114 0.546360
C101  C     C_R   0.619080 0.501846 0.500041 0.549709
C102  C     C_R   0.499905 0.118621 0.499989 0.573304
C103  C     C_R   0.433550 0.933277 0.367360 0.550916
C104  C     C_R   0.501179 0.882342 0.502089 0.557260
C105  C     C_R   0.566415 0.066390 0.632593 0.565284
C106  C     C_R   0.314976 0.536023 0.280682 -0.109298
C107  C     C_R   0.377390 0.586422 0.335076 -0.031642
C108  C     C_R   0.522055 0.261685 0.458916 -0.046251
C109  C     C_R   0.378049 0.639082 0.394224 0.041515
C110  C     C_R   0.100955 0.360439 0.323264 0.236058
C111  C     C_R   0.314813 0.642155 0.397016 -0.125864
C112  C     C_R   0.252426 0.591792 0.342447 -0.060005
C113  C     C_R   0.252515 0.538744 0.284339 -0.040567
C114  C     C_R   0.443895 0.760684 0.453039 -0.096322
C115  C     C_R   0.502357 0.816715 0.503751 0.026597
C116  C     C_R   0.561285 0.809208 0.553842 -0.017486
C117  C     C_R   0.561830 0.743229 0.550701 -0.028912
C118  C     C_R   0.501913 0.686204 0.499372 -0.013371
Cu1   Cu    Cu3+1 0.000000 0.438230 0.500020 0.926220
Cu2   Cu    Cu3+1 1.000000 0.561770 0.499980 0.967295
Cu3   Cu    Cu3+1 0.465780 0.465820 0.431560 0.970995
Cu4   Cu    Cu3+1 0.534220 0.534230 0.568440 1.065921
Cu5   Cu    Cu3+1 0.561810 0.999860 0.500000 1.037868
Cu6   Cu    Cu3+1 0.438190 0.999810 0.500000 0.939383
H1    H     H_    0.001308 0.196264 0.253861 0.167488
H2    H     H_    0.486210 0.864159 0.281218 0.147062
H3    H     H_    0.058148 0.227645 0.375400 0.131745
H4    H     H_    0.421963 0.799351 0.155526 0.147341
H5    H     H_    0.941251 0.364035 0.643031 0.138546
H6    H     H_    0.845786 0.377485 0.550303 0.129079
H7    H     H_    0.999013 0.587510 0.777158 0.192253
H8    H     H_    0.737648 0.492165 0.591402 0.166717
H9    H     H_    0.765789 0.515830 0.412745 0.131213
H10   H     H_    0.594373 0.412348 0.321575 0.121165
H11   H     H_    0.501688 0.432345 0.231549 0.125167
H12   H     H_    0.501574 0.805636 0.732210 0.118870
H13   H     H_    0.147572 0.338430 0.464086 0.143195
H14   H     H_    0.492870 0.553249 0.253130 0.153636
H15   H     H_    0.668969 0.635812 0.458465 0.164965
H16   H     H_    0.916754 0.487227 0.281986 0.141304
H17   H     H_    0.852107 0.425715 0.156468 0.149945
H18   H     H_    0.799704 0.233655 0.155458 0.144203
H19   H     H_    0.865036 0.295148 0.281133 0.131860
H20   H     H_    0.703125 0.139635 0.716385 0.162464
H21   H     H_    0.515978 0.079440 0.719213 0.135502
H22   H     H_    0.580059 0.143012 0.844934 0.139949
H23   H     H_    0.461630 0.755580 0.607903 0.103243
H24   H     H_    0.204052 0.500149 0.241871 0.183946
H25   H     H_    0.314905 0.495260 0.235443 0.120796
H26   H     H_    0.425160 0.584422 0.331229 0.152045
H27   H     H_    0.313708 0.683992 0.441036 0.103580
H28   H     H_    0.203839 0.594426 0.344839 0.180050
H29   H     H_    0.399031 0.767695 0.414806 0.137083
H30   H     H_    0.684857 0.856783 0.564632 0.173573
H31   H     H_    0.781634 0.959430 0.663959 0.128847
H32   H     H_    0.772580 0.032058 0.768865 0.131801
H33   H     H_    0.666013 0.002072 0.774143 0.131687
H34   H     H_    0.372082 0.642997 0.523253 0.102620
H35   H     H_    0.568140 0.900142 0.674717 0.099232
H36   H     H_    0.632792 0.304008 0.318719 0.109026
H37   H     H_    0.506238 0.245535 0.259615 0.116889
H38   H     H_    0.455264 0.226563 0.324187 0.120168
H39   H     H_    0.708336 0.345707 0.442807 0.104919
H40   H     H_    0.265447 0.398079 0.412806 0.149047
H41   H     H_    0.356750 0.198955 0.530143 0.116266
H42   H     H_    0.333050 0.183611 0.612656 0.122850
H43   H     H_    0.432014 0.208605 0.725986 0.126041
H44   H     H_    0.554513 0.250093 0.757796 0.173695
H45   H     H_    0.069949 0.700037 0.715823 0.146479
H46   H     H_    0.231644 0.603714 0.583664 0.122710
H47   H     H_    0.360518 0.631184 0.687779 0.115732
H48   H     H_    0.450740 0.743366 0.771829 0.124629
H49   H     H_    0.079832 0.387637 0.719486 0.335778
H50   H     H_    0.939568 0.650476 0.633784 0.338819
H51   H     H_    0.605446 0.754412 0.337278 0.369657
H52   H     H_    0.091464 0.511413 0.367237 0.342242
H53   H     H_    0.059142 0.267450 0.118049 0.379482
H54   H     H_    0.717477 0.310222 0.777678 0.384810
H55   H     H_    0.207366 0.581225 0.845159 0.189464
H56   H     H_    0.145918 0.517949 0.719366 0.168818
H57   H     H_    0.229639 0.850221 0.156365 0.151183
H58   H     H_    0.293711 0.914395 0.281799 0.138406
N1    N     N_R   0.275651 0.703760 0.965034 -0.216120
N2    N     N_1   0.846204 0.238099 0.877749 -0.218778
N3    N     N_1   0.675589 0.727036 0.637525 -0.203963
N4    N     N_1   0.706855 0.353622 0.585596 -0.216808
N5    N     N_1   0.548773 0.095341 0.371812 -0.275245
N6    N     N_1   0.436618 0.399949 0.617229 -0.270368
N7    N     N_R   0.310388 0.737266 0.033629 -0.214175
N8    N     N_R   0.216829 0.790289 0.034497 -0.206557
N9    N     N_R   0.182267 0.757076 0.965953 -0.173831
N10   N     N_R   0.736313 0.223834 0.033543 -0.224845
N11   N     N_R   0.703159 0.189629 0.964959 -0.224582
N12   N     N_R   0.761179 0.280961 0.966273 -0.178345
N13   N     N_R   0.794004 0.315327 0.034804 -0.188998
N14   N     N_1   0.126196 0.840232 0.876779 -0.221757
O1    O     O_R   0.049920 0.497760 0.599870 -0.506745
O2    O     O_R   0.447770 0.089950 0.499980 -0.523180
O3    O     O_R   0.502270 0.949920 0.400150 -0.501289
O4    O     O_R   0.049920 0.602100 0.599840 -0.516708
O5    O     O_R   0.397880 0.949890 0.400140 -0.517181
O6    O     O_R   0.552230 0.909720 0.500030 -0.486328
O7    O     O_R   0.447840 0.909680 0.500020 -0.526870
O8    O     O_R   0.602120 0.049780 0.599860 -0.496392
O9    O     O_R   0.497730 0.049740 0.599850 -0.517219
O10   O     O_R   0.090180 0.447830 0.500020 -0.513682
O11   O     O_R   0.090180 0.552170 0.499990 -0.505868
O12   O     O_R   0.528910 0.619050 0.557800 -0.504795
O13   O     O_R   0.950080 0.397900 0.400160 -0.509228
O14   O     O_R   0.950080 0.502240 0.400130 -0.513164
O15   O     O_R   0.909820 0.447830 0.500010 -0.518381
O16   O     O_R   0.909820 0.552170 0.499980 -0.493116
O17   O     O_R   0.471120 0.561280 0.442210 -0.513636
O18   O     O_2   0.077262 0.532444 0.849239 -0.234042
O19   O     O_2   0.010994 0.411160 0.792721 -0.227692
O20   O     O_3   0.104977 0.433908 0.761648 -0.521545
O21   O     O_2   0.827839 0.639130 0.692453 -0.203033
O22   O     O_2   0.955121 0.690846 0.761293 -0.269601
O23   O     O_R   0.380930 0.471140 0.442200 -0.498847
O24   O     O_3   0.892753 0.652784 0.630980 -0.486486
O25   O     O_2   0.499963 0.694086 0.342330 -0.313056
O26   O     O_2   0.616669 0.741038 0.446298 -0.319410
O27   O     O_3   0.610864 0.706456 0.329375 -0.500018
O28   O     O_2   0.180655 0.414939 0.290710 -0.243028
O29   O     O_2   0.055858 0.417279 0.237557 -0.214226
O30   O     O_3   0.136168 0.506563 0.365736 -0.549316
O31   O     O_2   0.994694 0.181660 0.143942 -0.280257
O32   O     O_2   0.959482 0.291694 0.156078 -0.247010
O33   O     O_3   0.083706 0.281654 0.167685 -0.440922
O34   O     O_R   0.438710 0.528900 0.557790 -0.496099
O35   O     O_2   0.638522 0.221071 0.643431 -0.291720
O36   O     O_2   0.621903 0.341025 0.676549 -0.235824
O37   O     O_3   0.668772 0.302481 0.770249 -0.528134
O38   O     O_R   0.471090 0.380990 0.442200 -0.517973
O39   O     O_R   0.528880 0.438760 0.557790 -0.479107
O40   O     O_R   0.561290 0.471140 0.442210 -0.511187
O41   O     O_R   0.619070 0.528910 0.557800 -0.486176
O42   O     O_R   0.552160 0.089990 0.499980 -0.464384
S1    S     S_3+6 0.043079 0.463876 0.782896 0.030328
S2    S     S_3+6 0.896918 0.635786 0.692280 0.032750
S3    S     S_3+6 0.575732 0.688801 0.370833 -0.013225
S4    S     S_3+6 0.117835 0.424514 0.301774 0.033049
S5    S     S_3+6 0.020348 0.260415 0.182331 0.069668
S6    S     S_3+6 0.615716 0.278643 0.686807 0.013981

loop_
_geom_bond_atom_site_label_1
_geom_bond_atom_site_label_2
_ccdc_geom_bond_type
C61   C70   S    
C94   H22   S    
C4    H30   S    
C55   C56   A    
C63   C65   A    
C59   H6    S    
Cu2   O16   S    
C93   C94   A    
C98   C110  A    
O37   S6    S    
C16   C42   A    
Cu6   O9    S    
Cu2   O11   S    
C41   C43   A    
C37   O10   A    
C49   C87   S    
C100  O38   A    
C50   N1    A    
C84   C87   A    
O22   S2    D    
C78   H15   S    
C97   C100  S    
C17   C43   S    
C114  C115  A    
C90   C91   A    
O29   S4    D    
Cu5   Cu6   S    
O25   S3    D    
C77   C78   A    
C116  C117  A    
C64   C102  S    
N12   N13   A    
C26   C27   A    
C62   C63   A    
C82   C89   S    
C74   C76   A    
Cu5   O8    S    
C83   C84   A    
C77   S3    S    
C113  H24   S    
Cu5   O3    S    
C28   C29   A    
C52   H58   S    
C33   C98   S    
C80   C87   A    
C96   C118  S    
C102  O2    A    
O31   S5    D    
C38   C39   A    
O33   S5    S    
C53   C64   A    
C26   S6    S    
C31   C73   A    
Cu4   O41   S    
C65   S1    S    
C106  C107  A    
C9    H35   S    
C58   H5    S    
C15   C16   A    
C89   N13   A    
Cu6   O2    S    
C11   H37   S    
C62   S2    S    
C56   C57   A    
C13   C23   A    
C11   C42   A    
C60   C62   A    
C34   C35   A    
C61   O15   A    
C2    C13   A    
C86   C97   A    
C30   H46   S    
C56   H4    S    
C85   C98   A    
C58   C65   A    
C48   N7    A    
C54   C55   A    
C97   C108  A    
C20   N4    T    
C89   N10   A    
C7    H32   S    
C111  C112  A    
C68   C69   A    
C49   O14   A    
C112  H28   S    
C93   H21   S    
C70   C71   A    
C51   C57   A    
C63   H7    S    
C30   C32   A    
C9    C10   A    
C107  H26   S    
C48   N8    A    
C6    H31   S    
Cu5   O42   S    
C68   C79   S    
C14   C108  S    
Cu4   O39   S    
C88   C95   S    
C59   C60   A    
C25   H44   S    
C106  H25   S    
Cu1   O1    S    
C35   H48   S    
Cu3   O23   S    
C24   H40   S    
C27   C75   S    
C8    H33   S    
N1    N7    A    
C1    C47   S    
C112  C113  A    
O26   S3    D    
C52   C54   A    
C21   N5    T    
C66   H8    S    
C16   H39   S    
Cu2   O14   S    
C15   C20   S    
Cu4   O34   S    
H53   O33   S    
C42   H36   S    
C102  O42   A    
Cu1   O13   S    
C106  C113  A    
C101  O41   A    
C51   C52   A    
C18   C90   S    
C104  O7    A    
C88   N12   A    
C54   C103  S    
C48   C57   S    
H49   O20   S    
C76   C77   A    
C4    C6    A    
C7    C8    A    
C91   C92   A    
C78   C79   A    
C8    C9    A    
C105  O8    A    
Cu6   O7    S    
C60   C71   S    
C25   C26   A    
C80   H16   S    
C41   H45   S    
C81   C82   A    
C96   O17   A    
C67   C68   A    
C35   C36   A    
C104  O6    A    
C43   C44   A    
C103  O5    A    
N8    N9    A    
C29   C30   A    
C3    C118  A    
C46   H56   S    
H54   O37   S    
C104  C115  S    
C110  S4    S    
C75   C86   A    
C72   H10   S    
C66   C71   A    
C2    H41   S    
C55   H2    S    
C18   N2    T    
C11   C12   A    
Cu3   O40   S    
C74   H11   S    
C101  O40   A    
C41   C47   A    
C94   C95   A    
Cu1   O10   S    
C103  O3    A    
C32   C37   S    
C5    S5    S    
C50   N9    A    
O21   S2    D    
C73   C85   A    
Cu3   Cu4   S    
C2    C27   A    
O18   S1    D    
C23   H43   S    
C28   C99   S    
C72   C74   A    
C12   C14   A    
C81   H17   S    
C82   C83   A    
C39   H34   S    
C34   C40   A    
C1    O4    A    
H50   O24   S    
C31   H1    S    
C4    C10   A    
C85   H13   S    
C39   C40   A    
C99   O34   A    
C10   C116  S    
C44   C45   A    
C67   C101  S    
C91   H20   S    
C44   C50   S    
C46   C47   A    
C69   H9    S    
C17   N14   T    
C114  H29   S    
Cu5   O6    S    
O36   S6    D    
O20   S1    S    
Cu4   O12   S    
C1    O1    A    
C24   C28   A    
C99   O23   A    
C80   C81   A    
C51   H57   S    
C3    C114  A    
C111  H27   S    
C83   H18   S    
Cu1   Cu2   S    
C105  O9    A    
C6    C7    A    
O27   S3    S    
C76   H14   S    
C72   C79   A    
H52   O30   S    
Cu1   O15   S    
C24   C33   A    
C84   H19   S    
Cu6   O5    S    
C36   H12   S    
N10   N11   A    
C109  C111  A    
O35   S6    D    
C58   C59   A    
C73   H3    S    
C117  C118  A    
C32   C33   A    
C21   C53   S    
C53   C108  A    
O28   S4    D    
C13   H42   S    
C107  C109  A    
O32   S5    D    
C3    C109  S    
C88   N11   A    
C29   C40   S    
C36   C38   A    
C92   C93   A    
Cu2   O4    S    
C64   C75   A    
C66   C67   A    
C22   C86   S    
C22   N6    T    
C69   C70   A    
C38   H23   S    
C96   O12   A    
C45   H55   S    
C12   H38   S    
C45   C46   A    
C92   C105  S    
C23   C25   A    
O19   S1    D    
C19   C117  S    
Cu3   O38   S    
C5    C110  A    
C49   O13   A    
O30   S4    S    
H51   O27   S    
C14   C15   A    
O24   S2    S    
C100  O39   A    
C37   O11   A    
C61   O16   A    
C90   C95   A    
C19   N3    T    
C34   H47   S    
C115  C116  A    
Cu3   O17   S    
C5    C31   A    
