data_mof_unit_50929.cif
_audit_creation_date              2012-12-10T16:50:19-0500
_audit_creation_method            fapswitch 2.2
_symmetry_space_group_name_H-M    P1
_symmetry_Int_Tables_number       1
_space_group_crystal_system       triclinic
_cell_length_a                    23.586339
_cell_length_b                    8.675794
_cell_length_c                    7.533629
_cell_angle_alpha                 102.836085
_cell_angle_beta                  94.88877
_cell_angle_gamma                 94.013926
_cell_volume                      1491.32610569

loop_
_atom_site_label
_atom_site_type_symbol
_atom_type_description
_atom_site_fract_x
_atom_site_fract_y
_atom_site_fract_z
_atom_type_partial_charge
C1    C     C_R   0.497312 0.199991 0.453699 0.879706
C2    C     C_R   0.502688 0.800009 0.546301 0.879706
C3    C     C_R   0.242249 0.541395 0.669481 0.214201
C4    C     C_R   0.757751 0.458604 0.330518 0.214200
C5    C     C_R   0.302725 0.556807 0.674465 0.122430
C6    C     C_R   0.697274 0.443190 0.325535 0.122430
C7    C     C_R   0.328426 0.508293 0.508073 -0.084888
C8    C     C_R   0.671574 0.491706 0.491927 -0.084888
C9    C     C_R   0.293363 0.460736 0.341616 -0.271239
C10   C     C_R   0.706637 0.539266 0.658384 -0.271240
C11   C     C_R   0.234410 0.458467 0.337126 -0.148046
C12   C     C_R   0.765590 0.541537 0.662873 -0.148046
C13   C     C_R   0.208541 0.497919 0.498754 0.327968
C14   C     C_R   0.791459 0.502083 0.501244 0.327967
C15   C     C_2   0.492548 0.031662 0.429789 -0.371286
C16   C     C_2   0.507452 0.968338 0.570211 -0.371286
C17   C     C_R   0.391147 0.503770 0.502585 0.803843
C18   C     C_R   0.608853 0.496229 0.497415 0.803842
C19   C     C_R   0.885943 0.643228 0.566989 0.532688
C20   C     C_R   0.114056 0.356774 0.433008 0.532689
C21   C     C_R   0.875814 0.361296 0.460273 0.549425
C22   C     C_R   0.124186 0.638706 0.539725 0.549425
C23   C     C_R   0.934661 0.358726 0.450316 -0.050929
C24   C     C_R   0.065339 0.641277 0.549682 -0.050929
C25   C     C_R   0.970210 0.501681 0.504689 -0.053374
C26   C     C_R   0.029790 0.498321 0.495308 -0.053374
C27   C     C_R   0.946212 0.647356 0.568463 -0.024478
C28   C     C_R   0.053788 0.352647 0.431534 -0.024478
C29   C     C_R   0.957961 0.215888 0.383134 -0.171634
C30   C     C_R   0.042038 0.784115 0.616863 -0.171633
C31   C     C_R   0.016664 0.210082 0.371470 0.140888
C32   C     C_R   0.983336 0.789920 0.628527 0.140888
Cu1   Cu    Cu3+1 0.506340 0.517380 0.684380 0.933027
Cu2   Cu    Cu3+1 0.493660 0.482620 0.315620 0.933027
H1    H     H_    0.929959 0.107201 0.336848 0.188849
H2    H     H_    0.070041 0.892801 0.663149 0.188849
H3    H     H_    0.311518 0.425054 0.213042 0.174745
H4    H     H_    0.688482 0.574950 0.786958 0.174744
H5    H     H_    0.208291 0.423647 0.207025 0.158943
H6    H     H_    0.791709 0.576358 0.792973 0.158944
H7    H     H_    0.475147 0.959955 0.296987 0.162562
H8    H     H_    0.524853 0.040045 0.703013 0.162561
N1    N     N_R   0.852624 0.502196 0.511948 -0.461851
N2    N     N_R   0.147376 0.497806 0.488050 -0.461851
N3    N     N_2   0.484110 0.456420 0.038520 -0.055650
N4    N     N_2   0.515890 0.543580 0.961480 -0.055650
O1    O     O_R   0.504120 0.286130 0.619770 -0.589123
O2    O     O_R   0.495880 0.713870 0.380230 -0.589123
O3    O     O_R   0.493410 0.256770 0.308360 -0.595697
O4    O     O_R   0.506590 0.743230 0.691640 -0.595697
O5    O     O_R   0.423230 0.514630 0.655730 -0.591932
O6    O     O_R   0.576770 0.485370 0.344270 -0.591932
O7    O     O_R   0.412530 0.485280 0.344320 -0.584385
O8    O     O_R   0.587470 0.514720 0.655680 -0.584385
O9    O     O_2   0.860214 0.777872 0.616117 -0.532429
O10   O     O_2   0.139786 0.222130 0.383880 -0.532429
O11   O     O_2   0.841615 0.224006 0.416130 -0.528789
O12   O     O_2   0.158385 0.775996 0.583869 -0.528788
C33   C     C_3   0.036975 0.050417 0.290814 -0.740564
H9    H     H_    0.001114 0.955689 0.246726 0.202732
H10   H     H_    0.059071 0.056667 0.167879 0.253605
H11   H     H_    0.065906 0.013205 0.394198 0.268464
C34   C     C_3   0.963025 0.949585 0.709183 -0.740565
H12   H     H_    0.998886 0.044313 0.753271 0.202732
H13   H     H_    0.934094 0.986797 0.605799 0.268464
H14   H     H_    0.940928 0.943335 0.832118 0.253605
C35   C     C_3   0.213717 0.564652 0.845028 -0.817441
H15   H     H_    0.216132 0.692885 0.911941 0.255028
H16   H     H_    0.168202 0.516776 0.822824 0.227105
H17   H     H_    0.235205 0.499499 0.938601 0.218438
C36   C     C_3   0.786283 0.435345 0.154970 -0.817439
H18   H     H_    0.831797 0.483224 0.177173 0.227105
H19   H     H_    0.783869 0.307111 0.088061 0.255029
H20   H     H_    0.764794 0.500494 0.061394 0.218438
C37   C     C_3   0.338942 0.628218 0.854596 -0.795969
H21   H     H_    0.371228 0.721256 0.836060 0.237652
H22   H     H_    0.314349 0.689193 0.963817 0.228362
H23   H     H_    0.360097 0.533988 0.905888 0.240804
C38   C     C_3   0.661057 0.371776 0.145405 -0.795969
H24   H     H_    0.628771 0.278739 0.163945 0.237651
H25   H     H_    0.639903 0.466004 0.094108 0.240804
H26   H     H_    0.685651 0.310797 0.036186 0.228362
C39   C     C_3   0.456150 0.306023 0.937025 -0.366313
H27   H     H_    0.425965 0.261721 0.023286 0.157291
H28   H     H_    0.429495 0.315431 0.813662 0.189697
H29   H     H_    0.487980 0.218432 0.910313 0.167563
C40   C     C_3   0.543850 0.693976 0.062975 -0.366312
H30   H     H_    0.574036 0.738279 0.976714 0.157291
H31   H     H_    0.512020 0.781568 0.089687 0.167563
H32   H     H_    0.570505 0.684568 0.186338 0.189697

loop_
_geom_bond_atom_site_label_1
_geom_bond_atom_site_label_2
_ccdc_geom_bond_type
C40   H30   S    
C34   H13   S    
C5    C37   S    
C16   H8    S    
C20   O10   S    
C17   O5    A    
C18   O6    A    
N3    N4    D    
C23   C29   A    
C24   C26   A    
C15   C16   D    
C31   C33   S    
C2    O4    A    
C21   N1    A    
C22   N2    A    
C33   H11   S    
C1    C15   S    
C2    C16   S    
C3    C13   A    
C34   H14   S    
C33   H9    S    
Cu1   N4    S    
N3    C39   S    
C20   N2    A    
C19   N1    A    
C5    C7    A    
C33   H10   S    
C35   H15   S    
C15   H7    S    
C4    C6    A    
C38   H25   S    
C1    O1    A    
C6    C8    A    
C20   C28   A    
C2    O2    A    
C25   C26   A    
C8    C18   S    
C38   H24   S    
C35   H16   S    
C12   H6    S    
C37   H21   S    
C21   O11   S    
C36   H20   S    
C9    C11   A    
C39   H27   S    
C9    H3    S    
Cu1   Cu2   S    
Cu2   N3    S    
C13   N2    S    
C11   H5    S    
C37   H22   S    
C10   C12   A    
C39   H28   S    
C12   C14   A    
C21   C23   A    
C25   C27   A    
Cu1   O1    S    
C22   C24   A    
Cu2   O2    S    
C17   O7    A    
C19   C27   A    
C36   H19   S    
N4    C40   S    
C19   O9    S    
Cu1   O8    S    
C7    C9    A    
Cu2   O3    S    
C27   C32   A    
Cu2   O6    S    
C28   C31   A    
C3    C35   S    
C32   C34   S    
C3    C5    A    
C7    C17   S    
C22   O12   S    
C38   H26   S    
Cu1   O5    S    
C29   H1    S    
C26   C28   A    
C30   H2    S    
C10   H4    S    
C35   H17   S    
C40   H31   S    
Cu1   O4    S    
C36   H18   S    
C29   C31   A    
C30   C32   A    
C11   C13   A    
C6    C38   S    
C23   C25   A    
C4    C14   A    
C37   H23   S    
C24   C30   A    
C18   O8    A    
C34   H12   S    
C39   H29   S    
Cu2   O7    S    
C8    C10   A    
C40   H32   S    
C1    O3    A    
C4    C36   S    
C14   N1    S    
