data_mof_unit_67342.cif
_audit_creation_date              2013-03-05T16:08:09-0500
_audit_creation_method            fapswitch 2.2
_symmetry_space_group_name_H-M    P1
_symmetry_Int_Tables_number       1
_space_group_crystal_system       triclinic
_cell_length_a                    19.63116
_cell_length_b                    23.152274
_cell_length_c                    8.892355
_cell_angle_alpha                 90.09031
_cell_angle_beta                  104.09636
_cell_angle_gamma                 90.168663
_cell_volume                      3919.89713611

loop_
_atom_site_label
_atom_site_type_symbol
_atom_site_description
_atom_site_fract_x
_atom_site_fract_y
_atom_site_fract_z
_atom_type_partial_charge
P1    P     P_3+3 0.853370 0.434890 0.996520 0.570185
P2    P     P_3+3 0.853370 0.565110 0.496520 0.573189
P3    P     P_3+3 0.353370 0.934890 0.996520 0.574748
P4    P     P_3+3 0.353370 0.065110 0.496520 0.573005
O1    O     O_2   0.860260 0.414960 0.826400 -0.368889
O2    O     O_2   0.860260 0.585040 0.326400 -0.366675
O3    O     O_2   0.360260 0.914960 0.826400 -0.357910
O4    O     O_2   0.360260 0.085040 0.326400 -0.364482
O5    O     O_3   0.918600 0.470180 0.098890 -0.255014
O6    O     O_3   0.918600 0.529820 0.598890 -0.249784
O7    O     O_3   0.418600 0.970180 0.098890 -0.251686
O8    O     O_3   0.418600 0.029820 0.598890 -0.251331
O9    O     O_3   0.975750 0.362410 0.628650 -0.341925
O10   O     O_3   0.975750 0.637590 0.128650 -0.351375
O11   O     O_3   0.475750 0.862410 0.628650 -0.334344
O12   O     O_3   0.475750 0.137590 0.128650 -0.349440
O13   O     O_2   0.861228 0.318875 0.682943 -0.282728
O14   O     O_2   0.860602 0.679980 0.180087 -0.284826
O15   O     O_2   0.355604 0.825849 0.671323 -0.292600
O16   O     O_2   0.360988 0.179467 0.182817 -0.281340
O17   O     O_3   0.776494 0.475310 0.970869 -0.600018
O18   O     O_3   0.774109 0.525609 0.469070 -0.603593
O19   O     O_3   0.275266 0.975219 0.968862 -0.601538
O20   O     O_3   0.274674 0.024903 0.467810 -0.602297
O21   O     O_3   0.941617 0.240426 0.598776 -0.532818
O22   O     O_3   0.942422 0.759599 0.106108 -0.523444
O23   O     O_3   0.443429 0.744742 0.635813 -0.398335
O24   O     O_3   0.441327 0.259446 0.105717 -0.529392
H1    H     H_    0.004168 0.262154 0.813082 0.202487
H2    H     H_    0.008421 0.735450 0.313760 0.202492
H3    H     H_    0.548752 0.767582 0.697114 0.094510
H4    H     H_    0.506783 0.235952 0.314674 0.202618
C1    C     C_3   0.024800 0.173989 0.753554 0.680305
C2    C     C_3   0.029627 0.824080 0.258982 0.673290
C3    C     C_3   0.537464 0.674090 0.652721 0.666563
C4    C     C_3   0.527449 0.324651 0.259381 0.673558
P5    P     P_3+3 0.146350 0.434230 0.693140 0.695160
P6    P     P_3+3 0.146350 0.565770 0.193140 0.686579
P7    P     P_3+3 0.646350 0.934230 0.693140 0.698154
P8    P     P_3+3 0.646350 0.065770 0.193140 0.688279
P9    P     P_3+3 0.086101 0.307774 0.127498 0.557527
P10   P     P_3+3 0.089128 0.689808 0.625962 0.556626
P11   P     P_3+3 0.587414 0.808715 0.120584 0.586820
P12   P     P_3+3 0.588044 0.190663 0.626629 0.557777
O25   O     O_2   0.139400 0.414340 0.863230 -0.324777
O26   O     O_2   0.139400 0.585660 0.363230 -0.304022
O27   O     O_2   0.639400 0.914340 0.863230 -0.313188
O28   O     O_2   0.639400 0.085660 0.363230 -0.310291
O29   O     O_3   0.023740 0.362300 0.060930 -0.259227
O30   O     O_3   0.023740 0.637700 0.560930 -0.274334
O31   O     O_3   0.523740 0.862300 0.060930 -0.251119
O32   O     O_3   0.523740 0.137700 0.560930 -0.271038
O33   O     O_2   0.134735 0.306787 0.014103 -0.334549
O34   O     O_2   0.135578 0.690421 0.508079 -0.334746
O35   O     O_2   0.637717 0.815096 0.012120 -0.311878
O36   O     O_2   0.635327 0.191537 0.510382 -0.331363
O37   O     O_3   0.235186 0.461973 0.747070 -0.564827
O38   O     O_3   0.230158 0.531942 0.239674 -0.522057
O39   O     O_3   0.734163 0.963663 0.744219 -0.553972
O40   O     O_3   0.731654 0.033605 0.246280 -0.531248
O41   O     O_3   0.041137 0.241782 0.095077 -0.595681
O42   O     O_3   0.046276 0.756746 0.599642 -0.598008
O43   O     O_3   0.546678 0.742017 0.062475 -0.553600
O44   O     O_3   0.544393 0.257200 0.598850 -0.598617
C5    C     C_3   0.979212 0.244581 0.148558 0.765308
C6    C     C_3   0.984138 0.754414 0.652935 0.790538
C7    C     C_3   0.480826 0.737374 0.098341 0.658948
C8    C     C_3   0.482575 0.254635 0.653258 0.792012
H5    H     H_    0.980161 0.280368 0.233177 -0.111837
H6    H     H_    0.984328 0.718180 0.735429 -0.124932
H7    H     H_    0.476581 0.765658 0.194229 0.002384
H8    H     H_    0.483072 0.218352 0.735815 -0.126669
C9    C     C_3   0.967228 0.187675 0.232642 0.163649
C10   C     C_3   0.973765 0.810982 0.740938 0.158514
C11   C     C_3   0.468099 0.673349 0.135752 0.123976
C12   C     C_3   0.472225 0.311153 0.741469 0.159112
H9    H     H_    0.960288 0.200303 0.347849 0.053584
H10   H     H_    0.967098 0.797682 0.855809 0.054273
H11   H     H_    0.519243 0.653800 0.192780 0.140426
H12   H     H_    0.465870 0.297797 0.856516 0.055199
C13   C     C_3   0.236236 0.472137 0.265687 0.974302
C14   C     C_3   0.254700 0.520918 0.773330 0.970962
C15   C     C_3   0.740831 0.973544 0.268127 0.984935
C16   C     C_3   0.749356 0.023071 0.772675 0.953898
C17   C     C_3   0.310855 0.449200 0.261518 0.092867
C18   C     C_3   0.333715 0.531038 0.773392 0.157485
C19   C     C_3   0.816160 0.953264 0.259385 0.101268
C20   C     C_3   0.827469 0.038427 0.774312 0.173872
H13   H     H_    0.331896 0.421122 0.363486 0.202311
H14   H     H_    0.347181 0.575662 0.813056 0.146820
H15   H     H_    0.840662 0.927005 0.362990 0.211218
H16   H     H_    0.839353 0.081162 0.831614 0.228719
Ba1   Ba    Ba6+2 0.999900 0.457470 0.844900 1.802760
Ba2   Ba    Ba6+2 0.999900 0.542530 0.344900 1.802380
Ba3   Ba    Ba6+2 0.499900 0.957470 0.844900 1.813482
Ba4   Ba    Ba6+2 0.499900 0.042530 0.344900 1.804129
C21   C     C_3   0.770193 0.521578 0.869733 0.208099
C22   C     C_3   0.762909 0.479877 0.363036 0.224995
C23   C     C_3   0.266454 0.021343 0.864806 0.221947
C24   C     C_3   0.265279 0.978878 0.362898 0.219730
H17   H     H_    0.811794 0.522423 0.805025 0.103649
H18   H     H_    0.802007 0.479457 0.292848 0.110037
H19   H     H_    0.307235 0.022142 0.798347 0.102653
H20   H     H_    0.305282 0.978759 0.294779 0.110023
C25   C     C_3   0.698393 0.515287 0.750548 0.274550
C26   C     C_3   0.690095 0.486934 0.247633 0.261695
C27   C     C_3   0.193908 0.014732 0.746901 0.263246
C28   C     C_3   0.192743 0.984823 0.245596 0.267379
H21   H     H_    0.702509 0.480071 0.668811 0.141350
H22   H     H_    0.693386 0.523346 0.169184 0.137514
H23   H     H_    0.197339 0.978096 0.668844 0.142611
H24   H     H_    0.195823 0.021296 0.167109 0.143492
O45   O     O_3   0.081330 0.529680 0.090830 -0.229916
O46   O     O_3   0.081330 0.470320 0.590830 -0.209136
O47   O     O_3   0.581330 0.029680 0.090830 -0.225006
O48   O     O_3   0.581330 0.970320 0.590830 -0.216535
P13   P     P_3+3 0.908658 0.688824 0.067883 0.557722
P14   P     P_3+3 0.908166 0.311393 0.567939 0.565250
P15   P     P_3+3 0.408215 0.188414 0.069031 0.559605
P16   P     P_3+3 0.407102 0.812543 0.570198 0.618903
C29   C     C_3   0.006962 0.237805 0.707583 0.261496
C30   C     C_3   0.009512 0.760790 0.208785 0.262188
C31   C     C_3   0.512499 0.738194 0.615306 0.298427
C32   C     C_3   0.508085 0.261197 0.209699 0.261046
C33   C     C_R   0.141807 0.684409 0.832380 0.098758
C34   C     C_R   0.136812 0.311624 0.336963 0.091642
C35   C     C_R   0.639716 0.185741 0.834062 0.096399
C36   C     C_R   0.638440 0.812761 0.331676 0.086703
C37   C     C_R   0.189416 0.728744 0.902391 -0.074842
C38   C     C_R   0.186074 0.268525 0.405166 -0.070509
C39   C     C_R   0.687360 0.230018 0.903959 -0.067629
C40   C     C_R   0.687545 0.769559 0.400984 -0.045963
C41   C     C_R   0.781429 0.322630 0.040971 -0.029668
C42   C     C_R   0.782694 0.677971 0.538058 -0.026441
C43   C     C_R   0.284293 0.820920 0.039011 -0.034149
C44   C     C_R   0.281932 0.177280 0.540270 -0.028450
C45   C     C_R   0.739915 0.324813 0.885801 0.079282
C46   C     C_R   0.740351 0.675109 0.383425 0.090322
C47   C     C_R   0.241767 0.823679 0.884906 0.086977
C48   C     C_R   0.239704 0.174546 0.385629 0.084054
C49   C     C_R   0.200631 0.776857 0.817753 -0.099959
C50   C     C_R   0.197429 0.220700 0.319818 -0.093128
C51   C     C_R   0.698834 0.277931 0.818997 -0.093003
C52   C     C_R   0.698459 0.721384 0.316437 -0.107645
C53   C     C_R   0.833635 0.366346 0.106968 0.154687
C54   C     C_R   0.835585 0.634900 0.603946 0.159011
C55   C     C_R   0.335947 0.864968 0.105217 0.157032
C56   C     C_R   0.334693 0.134153 0.605787 0.155730
H25   H     H_    0.173837 0.781161 0.697493 0.217658
H26   H     H_    0.169801 0.216036 0.200002 0.213877
H27   H     H_    0.672561 0.281928 0.698301 0.214978
H28   H     H_    0.670873 0.716603 0.196394 0.195799
C57   C     C_R   0.865369 0.361858 0.268532 0.041699
C58   C     C_R   0.869697 0.640902 0.763835 0.026311
C59   C     C_R   0.368812 0.859764 0.266040 0.026785
C60   C     C_R   0.367819 0.139442 0.766489 0.027185
C61   C     C_R   0.160753 0.634039 0.082885 0.111198
C62   C     C_R   0.157449 0.363114 0.587567 0.134966
C63   C     C_R   0.659606 0.134825 0.084131 0.115977
C64   C     C_R   0.656581 0.862947 0.585687 0.146831
C65   C     C_R   0.210389 0.678405 0.149884 -0.157547
C66   C     C_R   0.208596 0.319718 0.652462 -0.132950
C67   C     C_R   0.709490 0.179046 0.150581 -0.130646
C68   C     C_R   0.707363 0.819418 0.650462 -0.140011
C69   C     C_R   0.224124 0.726375 0.061145 0.081277
C70   C     C_R   0.221530 0.271394 0.563530 0.102540
C71   C     C_R   0.722062 0.227651 0.062654 0.105232
C72   C     C_R   0.721839 0.771933 0.560554 0.085016
C73   C     C_R   0.244813 0.676972 0.305616 -0.049595
C74   C     C_R   0.243851 0.321489 0.807442 -0.098413
C75   C     C_R   0.745406 0.176742 0.305065 -0.078936
C76   C     C_R   0.743008 0.821485 0.805200 -0.087218
C77   C     C_R   0.786071 0.222240 0.379725 0.518982
C78   C     C_R   0.784940 0.776686 0.878564 0.501756
C79   C     C_R   0.285572 0.722577 0.379724 0.563766
C80   C     C_R   0.284698 0.276076 0.880894 0.518322
C81   C     C_R   0.803741 0.270541 0.294679 -0.203785
C82   C     C_R   0.804341 0.729643 0.792447 -0.192060
C83   C     C_R   0.305463 0.769504 0.293384 -0.167845
C84   C     C_R   0.303703 0.228887 0.794715 -0.189467
C85   C     C_R   0.769817 0.273598 0.132866 0.031698
C86   C     C_R   0.770676 0.726729 0.630208 0.028590
C87   C     C_R   0.272441 0.772035 0.131005 0.010500
C88   C     C_R   0.270027 0.226012 0.632732 0.033851
C89   C     C_R   0.853043 0.315029 0.361596 0.116685
C90   C     C_R   0.855260 0.686360 0.858793 0.114026
C91   C     C_R   0.356349 0.812949 0.359387 0.103205
C92   C     C_R   0.353989 0.185250 0.861097 0.112540
C93   C     C_R   0.129384 0.637369 0.922041 0.194657
C94   C     C_R   0.121643 0.356531 0.430308 0.179236
C95   C     C_R   0.626606 0.139107 0.924374 0.186115
C96   C     C_R   0.623323 0.857892 0.425845 0.166938
H29   H     H_    0.238777 0.640679 0.376167 0.207195
H30   H     H_    0.235900 0.356758 0.878784 0.193764
H31   H     H_    0.739707 0.140108 0.374690 0.199102
H32   H     H_    0.735744 0.857094 0.876299 0.195665
Cl1   Cl    Cl    0.374583 0.506039 0.275296 -0.364905
Cl2   Cl    Cl    0.392619 0.485064 0.905435 -0.457724
Cl3   Cl    Cl    0.876416 0.011971 0.265674 -0.402687
Cl4   Cl    Cl    0.888880 0.988918 0.887770 -0.427077
N1    N     N_3   0.309250 0.413179 0.125893 -0.159106
H33   H     H_    0.288593 0.436513 0.025996 0.208972
H34   H     H_    0.360478 0.402205 0.123461 0.249393
N2    N     N_3   0.350472 0.526520 0.623005 -0.109476
H35   H     H_    0.315016 0.549770 0.538360 0.199647
H36   H     H_    0.353071 0.483203 0.592724 0.242391
N3    N     N_3   0.815078 0.915902 0.126221 -0.154195
H37   H     H_    0.792145 0.937365 0.024403 0.209723
H38   H     H_    0.866577 0.906683 0.121919 0.247723
N4    N     N_3   0.843272 0.044138 0.622481 -0.144623
H39   H     H_    0.802816 0.064085 0.541694 0.175634
H40   H     H_    0.854561 0.003839 0.582128 0.239419
N5    N     N_3   0.772597 0.573603 0.963649 -0.188317
H41   H     H_    0.768006 0.610209 0.894914 0.035620
H42   H     H_    0.822411 0.575602 0.038975 0.193526
N6    N     N_3   0.763448 0.426932 0.452484 -0.186273
H43   H     H_    0.758878 0.390939 0.380725 0.061081
H44   H     H_    0.811605 0.424162 0.533740 0.186469
N7    N     N_3   0.267701 0.073911 0.956191 -0.184447
H45   H     H_    0.260638 0.110035 0.884962 0.057275
H46   H     H_    0.317359 0.077433 0.031633 0.185544
N8    N     N_3   0.266628 0.926146 0.453283 -0.183617
H47   H     H_    0.263282 0.890033 0.382279 0.059451
H48   H     H_    0.314901 0.924429 0.534346 0.192077
N9    N     N_3   0.678331 0.567541 0.661627 -0.138537
H49   H     H_    0.667527 0.598103 0.737888 0.188170
H50   H     H_    0.720585 0.583608 0.624089 0.079276
N10   N     N_3   0.668904 0.435807 0.150788 -0.147134
H51   H     H_    0.654728 0.403398 0.217742 0.185031
H52   H     H_    0.711218 0.419965 0.112574 0.092606
N11   N     N_3   0.173572 0.065863 0.650455 -0.148862
H53   H     H_    0.157414 0.097905 0.715811 0.186329
H54   H     H_    0.216759 0.082515 0.617424 0.083013
N12   N     N_3   0.172909 0.933281 0.149664 -0.147884
H55   H     H_    0.158620 0.900984 0.216817 0.184612
H56   H     H_    0.215978 0.917459 0.114598 0.086445
Cl5   Cl    Cl    0.628179 0.496700 0.837664 -0.505699
Cl6   Cl    Cl    0.622148 0.503245 0.343466 -0.486987
Cl7   Cl    Cl    0.124634 0.998408 0.838883 -0.512932
Cl8   Cl    Cl    0.123602 0.000499 0.338306 -0.504038
N13   N     N_3   0.062898 0.261481 0.643834 -0.245644
H57   H     H_    0.043893 0.271143 0.526385 0.062012
H58   H     H_    0.080058 0.299498 0.704075 0.141459
N14   N     N_3   0.062919 0.737435 0.136143 -0.248325
H59   H     H_    0.083119 0.700438 0.197368 0.136234
H60   H     H_    0.041141 0.725715 0.020874 0.065090
N15   N     N_3   0.514467 0.753478 0.457364 -0.208788
H61   H     H_    0.511731 0.798069 0.443669 0.105968
H62   H     H_    0.563313 0.744803 0.439106 -0.045918
N16   N     N_3   0.562165 0.238107 0.138728 -0.247708
H63   H     H_    0.582022 0.200961 0.199542 0.137286
H64   H     H_    0.541051 0.226813 0.022924 0.062599
N17   N     N_3   0.029576 0.138223 0.621048 -0.147563
H65   H     H_    0.980383 0.135592 0.542994 0.189557
H66   H     H_    0.065298 0.156708 0.565403 0.062191
N18   N     N_3   0.032712 0.860873 0.127584 -0.143392
H67   H     H_    0.982968 0.863377 0.051729 0.188273
H68   H     H_    0.067617 0.843092 0.068930 0.067217
N19   N     N_3   0.583060 0.652885 0.557594 -0.183904
H69   H     H_    0.556219 0.648755 0.441987 0.168902
H70   H     H_    0.627460 0.679146 0.570128 0.039118
N20   N     N_3   0.530168 0.361403 0.127671 -0.142723
H71   H     H_    0.480386 0.363586 0.051859 0.191974
H72   H     H_    0.565224 0.343815 0.069090 0.066051
Cl9   Cl    Cl    0.106623 0.170115 0.895301 -0.686099
Cl10  Cl    Cl    0.113338 0.825827 0.394682 -0.697926
Cl11  Cl    Cl    0.586965 0.668848 0.848598 -0.657634
Cl12  Cl    Cl    0.611116 0.327078 0.395237 -0.694508
Cl13  Cl    Cl    0.888696 0.148566 0.145171 -0.436410
Cl14  Cl    Cl    0.895898 0.851507 0.658827 -0.485054
Cl15  Cl    Cl    0.412051 0.666735 0.263762 -0.575180
Cl16  Cl    Cl    0.394143 0.351461 0.660061 -0.508359
N21   N     N_3   0.732286 0.376144 0.795308 -0.169145
H73   H     H_    0.679566 0.388260 0.772517 0.150485
H74   H     H_    0.742687 0.366171 0.688557 0.177590
N22   N     N_3   0.731809 0.623305 0.294650 -0.169278
H75   H     H_    0.678976 0.611406 0.275111 0.144426
H76   H     H_    0.741073 0.632648 0.186520 0.167580
N23   N     N_3   0.231935 0.875910 0.797952 -0.169310
H77   H     H_    0.179569 0.888088 0.783600 0.144661
H78   H     H_    0.238931 0.867391 0.687396 0.179770
N24   N     N_3   0.232055 0.123075 0.295308 -0.168674
H79   H     H_    0.179529 0.110258 0.275186 0.146729
H80   H     H_    0.241294 0.133081 0.187532 0.179380
Cl17  Cl    Cl    0.799325 0.214539 0.582090 -0.498779
Cl18  Cl    Cl    0.797354 0.782603 0.080857 -0.526471
Cl19  Cl    Cl    0.299626 0.715646 0.582275 -0.513929
Cl20  Cl    Cl    0.295065 0.280680 0.082786 -0.526483
Cl21  Cl    Cl    0.911510 0.421030 0.367434 -0.547316
Cl22  Cl    Cl    0.925962 0.586275 0.856735 -0.555291
Cl23  Cl    Cl    0.415336 0.918869 0.364391 -0.560172
Cl24  Cl    Cl    0.420678 0.083135 0.861287 -0.551079
Cl25  Cl    Cl    0.081306 0.578670 0.823807 -0.424713
Cl26  Cl    Cl    0.058853 0.406801 0.343533 -0.444676
Cl27  Cl    Cl    0.574017 0.082423 0.828609 -0.428467
Cl28  Cl    Cl    0.564224 0.910754 0.337234 -0.446972
Cl29  Cl    Cl    0.959550 0.143046 0.835755 -0.451115
Cl30  Cl    Cl    0.967878 0.855348 0.350915 -0.475037
Cl31  Cl    Cl    0.465289 0.624646 0.626271 -0.431523
Cl32  Cl    Cl    0.465335 0.355490 0.350984 -0.469504
Cl33  Cl    Cl    0.909157 0.259924 0.985560 -0.513589
Cl34  Cl    Cl    0.913263 0.740602 0.489451 -0.507416
Cl35  Cl    Cl    0.414156 0.763225 0.943206 -0.540805
Cl36  Cl    Cl    0.411475 0.240620 0.490520 -0.511131
N25   N     N_3   0.026741 0.147985 0.256459 -0.134196
H81   H     H_    0.072179 0.169741 0.314612 0.049079
H82   H     H_    0.033830 0.134398 0.149324 0.273287
N26   N     N_3   0.034201 0.850026 0.766115 -0.141643
H83   H     H_    0.078948 0.827629 0.823796 0.048533
H84   H     H_    0.041845 0.863692 0.659625 0.266757
N27   N     N_3   0.437723 0.638761 0.998907 -0.102892
H85   H     H_    0.465449 0.646778 0.915845 0.238209
H86   H     H_    0.385931 0.651983 0.953699 0.214121
N28   N     N_3   0.532474 0.350385 0.766030 -0.138860
H87   H     H_    0.577365 0.328208 0.823848 0.047781
H88   H     H_    0.539955 0.363992 0.659358 0.269605
Cl37  Cl    Cl    0.225748 0.459865 0.444105 -0.699285
Cl38  Cl    Cl    0.248856 0.542269 0.954787 -0.615971
Cl39  Cl    Cl    0.733803 0.957634 0.448777 -0.687586
Cl40  Cl    Cl    0.741643 0.040193 0.954325 -0.602692
Cl41  Cl    Cl    0.169212 0.430899 0.155759 -0.517841
Cl42  Cl    Cl    0.202430 0.570333 0.652116 -0.563681
Cl43  Cl    Cl    0.675106 0.931921 0.155894 -0.519052
Cl44  Cl    Cl    0.692179 0.070276 0.655670 -0.554232

loop_
_geom_bond_atom_site_label_1
_geom_bond_atom_site_label_2
_geom_bond_distance
_ccdc_geom_bond_type
C40   C52   1.390094 A    
C23   H19   1.104951 S    
C41   C45   1.422445 A    
C27   N11   1.461339 S    
O22   P13   1.766926 S    
P9    O41   1.750245 S    
C44   C48   1.423488 A    
P11   O43   1.755004 S    
C74   C80   1.388192 A    
P12   O44   1.753377 S    
C43   C47   1.422048 A    
C75   C77   1.386485 A    
N24   H79   1.044746 S    
C16   Cl44  1.725913 S    
C47   N23   1.424460 S    
C4    C32   1.552690 S    
C19   H15   1.112375 S    
C13   Cl41  1.720899 S    
P4    C56   1.950849 S    
C24   H20   1.102428 S    
N14   H59   1.041953 S    
P15   C92   1.896793 S    
P4    Ba4   3.501636 S    
H2    C30   1.107901 S    
C76   C78   1.387284 A    
O2    Ba2   2.882212 S    
P2    O18   1.767193 S    
P4    O8    1.605209 S    
C55   C59   1.423903 A    
C21   C25   1.549787 S    
C51   H27   1.075843 S    
C20   N4    1.463192 S    
C4    Cl12  1.786914 S    
N12   H56   1.037364 S    
C23   C27   1.556217 S    
P9    O29   1.761028 S    
N10   H51   1.037223 S    
C93   Cl25  1.757241 S    
N5    H42   1.042910 S    
C42   C54   1.458555 A    
O12   Ba4   2.888210 S    
C69   C87   1.451939 A    
C68   C72   1.427704 A    
C70   C88   1.453136 A    
O39   C16   1.415812 S    
C75   H31   1.072405 S    
C18   H14   1.101609 S    
C73   H29   1.072827 S    
P5    O46   1.611869 S    
N28   H87   1.042778 S    
C22   H18   1.100962 S    
C7    Cl35  1.761242 S    
C3    N19   1.458734 S    
O17   C21   1.386096 S    
C54   C58   1.422774 A    
C8    H8    1.114983 S    
C79   Cl19  1.762144 S    
C80   Cl20  1.759876 S    
C82   C86   1.434451 A    
O13   P14   1.544121 D    
C18   Cl2   1.788465 S    
O15   P16   1.539275 D    
P1    O1    1.617870 D    
C14   Cl42  1.730809 S    
C41   C53   1.455404 A    
P5    O25   1.618852 D    
C39   C51   1.391461 A    
P7    O27   1.618852 D    
P8    O28   1.617722 D    
O28   Ba4   2.879111 S    
O20   C24   1.397052 S    
C16   C20   1.569696 S    
P6    C61   1.917474 S    
C48   N24   1.422996 S    
N19   H70   1.044582 S    
N20   H72   1.042297 S    
C22   C26   1.552549 S    
C59   C91   1.422629 A    
C50   H26   1.076485 S    
C6    H6    1.114681 S    
Ba1   O46   3.083316 S    
N23   H78   1.043825 S    
C35   C39   1.421660 A    
P3    O7    1.599902 S    
C82   C90   1.439426 A    
C33   C37   1.422537 A    
C83   C91   1.435535 A    
P1    Ba1   3.499740 S    
C9    H9    1.104916 S    
Ba4   O48   2.908146 S    
P3    Ba3   3.499740 S    
C3    Cl11  1.780395 S    
N16   H64   1.044603 S    
P5    O37   1.808034 S    
C84   C88   1.432431 A    
O31   Ba3   2.888910 S    
P3    C55   1.958234 S    
O18   C22   1.397473 S    
P7    C64   1.941008 S    
P8    C63   1.920617 S    
P1    C53   1.954405 S    
C43   C87   1.448568 A    
O25   Ba1   2.884875 S    
O9    P14   1.756906 S    
C10   Cl14  1.793623 S    
C14   Cl38  1.717307 S    
C29   N13   1.458863 S    
C58   C90   1.420060 A    
O44   C8    1.412798 S    
N6    H44   1.042937 S    
P13   C90   1.899753 S    
C62   C94   1.411644 A    
N17   H65   1.044554 S    
C6    C10   1.563667 S    
C2    N18   1.460087 S    
N13   H57   1.044711 S    
C34   C94   1.406465 A    
C32   N16   1.462812 S    
N25   H82   1.043942 S    
N18   H68   1.042184 S    
O8    Ba3   2.909523 S    
C25   N9    1.448465 S    
P10   O42   1.754182 S    
C65   C73   1.385629 A    
P12   O32   1.751528 S    
C95   Cl27  1.753158 S    
C39   C71   1.410920 A    
C2    C30   1.552725 S    
P6    O38   1.780013 S    
N1    H34   1.043310 S    
C42   C86   1.447154 A    
Ba2   O45   3.083535 S    
N26   H84   1.043655 S    
N9    H49   1.036809 S    
C28   N12   1.461355 S    
C24   C28   1.553306 S    
O42   C6    1.413086 S    
P2    Ba2   3.501636 S    
O30   Ba2   2.882182 S    
C5    Cl33  1.775356 S    
C35   C95   1.406664 A    
C36   C96   1.414623 A    
O41   C5    1.410741 S    
O11   P16   1.751284 S    
O26   Ba2   2.879111 S    
Ba3   O48   3.083316 S    
O10   P13   1.760197 S    
P7    Ba3   3.503271 S    
P5    Ba1   3.503271 S    
N8    H48   1.042493 S    
P9    O33   1.548501 D    
C44   C56   1.457113 A    
P10   O30   1.750629 S    
P11   O35   1.546210 D    
C94   Cl26  1.737044 S    
N25   H81   1.043374 S    
C43   C55   1.454687 A    
N27   H86   1.045078 S    
C26   Cl6   1.789889 S    
C68   C76   1.384145 A    
C7    C11   1.552485 S    
C11   N27   1.455438 S    
C10   N26   1.462373 S    
C41   C85   1.449333 A    
C25   H21   1.107572 S    
C25   Cl5   1.789676 S    
C27   H23   1.107712 S    
C12   H12   1.104868 S    
N2    H36   1.042604 S    
O24   C32   1.408331 S    
N20   H71   1.044783 S    
C8    C12   1.563569 S    
O22   C30   1.408186 S    
N4    H40   1.042728 S    
C2    Cl30  1.774216 S    
O29   Ba1   2.888910 S    
C3    C31   1.574800 S    
C1    Cl29  1.772180 S    
C52   H28   1.078283 S    
C46   C52   1.395560 A    
C47   C49   1.393481 A    
O21   C29   1.407647 S    
C81   C85   1.432754 A    
N9    H50   1.035040 S    
N14   H60   1.045010 S    
C38   C50   1.390301 A    
C65   C69   1.426013 A    
P6    O26   1.617722 D    
C80   C84   1.434968 A    
C12   N28   1.462475 S    
N22   H75   1.045073 S    
N3    H38   1.043644 S    
O37   C14   1.419873 S    
O5    Ba2   2.900128 S    
C13   C17   1.568480 S    
O7    Ba4   2.900128 S    
C15   C19   1.572677 S    
P12   C35   1.879974 S    
C19   Cl3   1.791068 S    
O21   P14   1.768070 S    
N10   H52   1.038722 S    
O23   P16   1.766337 S    
P8    O40   1.790295 S    
C64   C68   1.438504 A    
C48   C50   1.394156 A    
C16   Cl40  1.704914 S    
P3    O3    1.617870 D    
O11   Ba3   2.881455 S    
P4    O20   1.765514 S    
O40   C15   1.410371 S    
C4    Cl32  1.774061 S    
P8    O47   1.606480 S    
C37   C49   1.392002 A    
C34   C38   1.421492 A    
N28   H88   1.043622 S    
C81   C89   1.436458 A    
C60   Cl24  1.752774 S    
C84   C92   1.437888 A    
C66   C70   1.427692 A    
C57   Cl21  1.752609 S    
H1    C29   1.106568 S    
N23   H77   1.044251 S    
C67   C75   1.384106 A    
C78   C82   1.435140 A    
C17   N1    1.459171 S    
N15   H62   1.031057 S    
C8    Cl36  1.777531 S    
C9    N25   1.463097 S    
C96   Cl28  1.740952 S    
C21   N5    1.458691 S    
P8    Ba4   3.501322 S    
P14   C89   1.891733 S    
C60   C92   1.419994 A    
N3    H37   1.036118 S    
C63   C95   1.414278 A    
P1    O5    1.599902 S    
C64   C96   1.416771 A    
O38   C13   1.404807 S    
N7    H45   1.038999 S    
C74   H30   1.068149 S    
P6    O45   1.606480 S    
C17   H13   1.111933 S    
C30   N14   1.463205 S    
O6    Ba1   2.909523 S    
N16   H63   1.041530 S    
C14   C18   1.567939 S    
C27   Cl7   1.789152 S    
C28   H24   1.107240 S    
O9    Ba1   2.881455 S    
C4    N20   1.460112 S    
P12   O36   1.548520 D    
C66   C74   1.383835 A    
N5    H41   1.036929 S    
P7    O39   1.803642 S    
C44   C88   1.447688 A    
C73   C79   1.387562 A    
N11   H54   1.036054 S    
Ba1   O45   2.898757 S    
O14   P13   1.544482 D    
C17   Cl1   1.796378 S    
C23   N7    1.459189 S    
C72   C86   1.454932 A    
C15   Cl43  1.718095 S    
C26   N10   1.461234 S    
N12   H55   1.037391 S    
P16   C91   1.896642 S    
C61   C65   1.438369 A    
C6    Cl34  1.778258 S    
N24   H80   1.044127 S    
P9    C34   1.887895 S    
P11   C36   1.902285 S    
C3    Cl31  1.789014 S    
C37   C69   1.411407 A    
C20   Cl4   1.790120 S    
P10   O34   1.547939 D    
P11   O31   1.752490 S    
C11   Cl15  1.771858 S    
C5    H5    1.115406 S    
C12   Cl16  1.792932 S    
C7    H7    1.093617 S    
P7    O48   1.611869 S    
C10   H10   1.105095 S    
C1    Cl9   1.786606 S    
C56   C60   1.423487 A    
O10   Ba2   2.888210 S    
O16   P15   1.543623 D    
C78   Cl18  1.760546 S    
O19   C23   1.397395 S    
N27   H85   1.035344 S    
P1    O17   1.745472 S    
Ba1   Ba2   4.865631 S    
N1    H33   1.035738 S    
H4    C32   1.107658 S    
P3    O19   1.763141 S    
Ba3   Ba4   4.865631 S    
O4    Ba4   2.882212 S    
P4    O4    1.619004 D    
Ba2   O46   2.908146 S    
C49   H25   1.075571 S    
C5    C9    1.561145 S    
C45   N21   1.423968 S    
C38   C70   1.412078 A    
P10   C33   1.879134 S    
N21   H74   1.044087 S    
C20   H16   1.110029 S    
Ba3   O47   2.898757 S    
Ba4   O47   3.083535 S    
C24   N8    1.459477 S    
C53   C57   1.424023 A    
C45   C51   1.393145 A    
C1    C29   1.551755 S    
P2    O2    1.619004 D    
C36   C40   1.424009 A    
C83   C87   1.432877 A    
O43   C7    1.408779 S    
C28   Cl8   1.789054 S    
N6    H43   1.039058 S    
O12   P15   1.758449 S    
N17   H66   1.042918 S    
O23   C31   1.419965 S    
C79   C83   1.438232 A    
C58   Cl22  1.751864 S    
C46   N22   1.421666 S    
N13   H58   1.041166 S    
P5    C62   1.933044 S    
C67   C71   1.426091 A    
N7    H46   1.042978 S    
C77   C81   1.439080 A    
N18   H67   1.044780 S    
P6    Ba2   3.501322 S    
N21   H73   1.044314 S    
N2    H35   1.043588 S    
C19   N3    1.461256 S    
N22   H76   1.044044 S    
C63   C67   1.437590 A    
C11   H11   1.107005 S    
N19   H69   1.038822 S    
P2    O6    1.605209 S    
C18   N2    1.456556 S    
N26   H83   1.042913 S    
C26   H22   1.106786 S    
C22   N6    1.460964 S    
C59   Cl23  1.752531 S    
C2    Cl10  1.786571 S    
C40   C72   1.415587 A    
O24   P15   1.766975 S    
C42   C46   1.424352 A    
O1    Ba1   2.876519 S    
N15   H61   1.039757 S    
P2    C54   1.950939 S    
O3    Ba3   2.876519 S    
C1    N17   1.460824 S    
H3    C31   1.114489 S    
C9    Cl13  1.790833 S    
C31   N15   1.458490 S    
C13   Cl37  1.673466 S    
C71   C85   1.451628 A    
C57   C89   1.420457 A    
C15   Cl39  1.686646 S    
O32   Ba4   2.882182 S    
N8    H47   1.039162 S    
C61   C93   1.415084 A    
C76   H32   1.068988 S    
C62   C66   1.440876 A    
C77   Cl17  1.763775 S    
N4    H39   1.041819 S    
N11   H53   1.038522 S    
O27   Ba3   2.884875 S    
C33   C93   1.406110 A    
C21   H17   1.107810 S    
