data_mof_unit_61302.cif
_audit_creation_date              2012-12-10T17:50:12-0500
_audit_creation_method            fapswitch 2.2
_symmetry_space_group_name_H-M    P1
_symmetry_Int_Tables_number       1
_space_group_crystal_system       triclinic
_cell_length_a                    27.790369
_cell_length_b                    36.174415
_cell_length_c                    27.794036
_cell_angle_alpha                 89.99971
_cell_angle_beta                  90.00049
_cell_angle_gamma                 90.016146
_cell_volume                      27941.3527636

loop_
_atom_site_label
_atom_site_type_symbol
_atom_type_description
_atom_site_fract_x
_atom_site_fract_y
_atom_site_fract_z
_atom_type_partial_charge
C1    C     C_R   0.500019 0.650319 0.249977 0.830929
C2    C     C_R   0.000017 0.650319 0.250021 0.830747
C3    C     C_1   0.499976 0.249996 0.431115 -0.153273
C4    C     C_1   0.499976 0.250004 0.931113 -0.150993
C5    C     C_1   0.499976 0.250005 0.068887 -0.151010
C6    C     C_1   0.499975 0.749996 0.068885 -0.153189
C7    C     C_1   0.499976 0.749996 0.931115 -0.153285
C8    C     C_1   0.999976 0.750004 0.931113 -0.150984
C9    C     C_1   0.999976 0.750005 0.068887 -0.151008
C10   C     C_1   0.999975 0.249996 0.068885 -0.153185
C11   C     C_1   0.999975 0.249996 0.931115 -0.153289
C12   C     C_1   0.999976 0.250004 0.431113 -0.150983
C13   C     C_R   0.000040 0.349681 0.250015 0.825590
C14   C     C_1   0.999976 0.250005 0.568886 -0.151002
C15   C     C_1   0.999975 0.749996 0.568885 -0.153163
C16   C     C_1   0.999976 0.749996 0.431115 -0.153270
C17   C     C_1   0.499972 0.750007 0.474551 -0.002967
C18   C     C_1   0.499972 0.750008 0.525449 -0.002977
C19   C     C_1   0.499971 0.249993 0.525448 -0.004898
C20   C     C_1   0.499971 0.249994 0.474552 -0.004938
C21   C     C_1   0.499972 0.250007 0.974551 -0.002973
C22   C     C_1   0.499972 0.250008 0.025449 -0.002983
C23   C     C_1   0.499971 0.749993 0.025448 -0.004912
C24   C     C_R   0.000042 0.349681 0.749982 0.825772
C25   C     C_1   0.499971 0.749994 0.974552 -0.004951
C26   C     C_1   0.999972 0.750007 0.974551 -0.002967
C27   C     C_1   0.999972 0.750007 0.025449 -0.002980
C28   C     C_1   0.999971 0.249993 0.025448 -0.004909
C29   C     C_1   0.999971 0.249994 0.974552 -0.004951
C30   C     C_1   0.999972 0.250007 0.474551 -0.002962
C31   C     C_1   0.999972 0.250008 0.525449 -0.002975
C32   C     C_1   0.999971 0.749993 0.525448 -0.004888
C33   C     C_1   0.999971 0.749993 0.474552 -0.004932
C34   C     C_R   0.499985 0.750002 0.120620 0.820307
C35   C     C_R   0.000019 0.150318 0.249977 0.830946
C36   C     C_R   0.499985 0.750002 0.879380 0.820245
C37   C     C_R   0.499985 0.249998 0.879377 0.821365
C38   C     C_R   0.499985 0.249998 0.120623 0.821288
C39   C     C_R   0.499985 0.250002 0.620620 0.820311
C40   C     C_R   0.499985 0.250002 0.379380 0.820249
C41   C     C_R   0.499985 0.749998 0.379377 0.821364
C42   C     C_R   0.499985 0.749998 0.620623 0.821287
C43   C     C_R   0.999985 0.750002 0.620620 0.820318
C44   C     C_R   0.999985 0.750002 0.379380 0.820252
C45   C     C_R   0.999985 0.249998 0.379377 0.821369
C46   C     C_R   0.000017 0.150319 0.750021 0.830742
C47   C     C_R   0.999985 0.249998 0.620623 0.821280
C48   C     C_R   0.999985 0.250002 0.120620 0.820309
C49   C     C_R   0.999985 0.250002 0.879380 0.820246
C50   C     C_R   0.999985 0.749997 0.879377 0.821374
C51   C     C_R   0.999985 0.749998 0.120623 0.821285
C52   C     C_R   0.370619 0.749999 0.249996 0.821649
C53   C     C_R   0.370619 0.750000 0.750005 0.821692
C54   C     C_R   0.370619 0.249999 0.749996 0.821649
C55   C     C_R   0.370619 0.250000 0.250005 0.821688
C56   C     C_R   0.870619 0.749999 0.749996 0.821650
C57   C     C_R   0.000040 0.849681 0.750015 0.825587
C58   C     C_R   0.870619 0.750000 0.250005 0.821693
C59   C     C_R   0.870619 0.249999 0.249996 0.821649
C60   C     C_R   0.870619 0.250000 0.750005 0.821704
C61   C     C_R   0.629375 0.750002 0.249998 0.820483
C62   C     C_R   0.629375 0.750002 0.750003 0.820453
C63   C     C_R   0.629375 0.250002 0.749998 0.820481
C64   C     C_R   0.629375 0.250002 0.250003 0.820458
C65   C     C_R   0.129376 0.750002 0.749998 0.820484
C66   C     C_R   0.129375 0.750002 0.250003 0.820461
C67   C     C_R   0.129376 0.250002 0.249998 0.820485
C68   C     C_R   0.000042 0.849681 0.249982 0.825750
C69   C     C_R   0.129375 0.250002 0.750003 0.820458
C70   C     C_1   0.681112 0.750008 0.249997 -0.153223
C71   C     C_1   0.681112 0.750006 0.750006 -0.153277
C72   C     C_1   0.681112 0.250008 0.749997 -0.153221
C73   C     C_1   0.681112 0.250006 0.250006 -0.153271
C74   C     C_1   0.181112 0.750008 0.749997 -0.153222
C75   C     C_1   0.181112 0.750006 0.250006 -0.153270
C76   C     C_1   0.181112 0.250008 0.249997 -0.153224
C77   C     C_1   0.181112 0.250006 0.750006 -0.153273
C78   C     C_1   0.724550 0.750008 0.250002 -0.006091
C79   C     C_3   0.509147 0.978365 0.300919 -0.391470
C80   C     C_1   0.724550 0.750005 0.750002 -0.006215
C81   C     C_1   0.724550 0.250008 0.750002 -0.006085
C82   C     C_1   0.724550 0.250005 0.250002 -0.006202
C83   C     C_1   0.224550 0.750008 0.750002 -0.006091
C84   C     C_1   0.224550 0.750005 0.250002 -0.006197
C85   C     C_1   0.224550 0.250008 0.250002 -0.006094
C86   C     C_1   0.224550 0.250005 0.750002 -0.006203
C87   C     C_1   0.775447 0.750004 0.250009 -0.006306
C88   C     C_1   0.775447 0.750001 0.749995 -0.006579
C89   C     C_1   0.775447 0.250005 0.750009 -0.006285
C90   C     C_3   0.506011 0.978366 0.698628 -0.391415
C91   C     C_1   0.775447 0.250001 0.249995 -0.006557
C92   C     C_1   0.275447 0.750004 0.750009 -0.006308
C93   C     C_1   0.275447 0.750001 0.249995 -0.006549
C94   C     C_1   0.275447 0.250004 0.250009 -0.006317
C95   C     C_1   0.275447 0.250001 0.749995 -0.006558
C96   C     C_1   0.818885 0.750001 0.250011 -0.153439
C97   C     C_1   0.818885 0.749998 0.749992 -0.153817
C98   C     C_1   0.818885 0.250001 0.750012 -0.153406
C99   C     C_1   0.818885 0.249998 0.249991 -0.153791
C100  C     C_1   0.318885 0.750001 0.750012 -0.153446
C101  C     C_3   0.502568 0.021126 0.698023 -0.409378
C102  C     C_1   0.318885 0.749998 0.249991 -0.153784
C103  C     C_1   0.318885 0.250001 0.250011 -0.153458
C104  C     C_1   0.318885 0.249998 0.749991 -0.153795
C105  C     C_3   0.536619 0.978831 0.215564 -0.434300
C106  C     C_3   0.538567 0.978833 0.782178 -0.434280
C107  C     C_3   0.539532 0.021701 0.779937 -0.417374
C108  C     C_3   0.537722 0.021699 0.217744 -0.417166
C109  C     C_3   0.536605 0.478831 0.715549 -0.434300
C110  C     C_3   0.538460 0.478833 0.282310 -0.434274
C111  C     C_3   0.539433 0.521701 0.280073 -0.417362
C112  C     C_R   0.500017 0.650319 0.750021 0.830733
C113  C     C_3   0.505751 0.021125 0.301732 -0.409532
C114  C     C_3   0.537708 0.521699 0.717728 -0.417154
C115  C     C_3   0.036639 0.978831 0.715585 -0.434300
C116  C     C_3   0.038639 0.978833 0.282090 -0.434281
C117  C     C_3   0.039600 0.021701 0.279848 -0.417381
C118  C     C_3   0.037740 0.021699 0.717765 -0.417168
C119  C     C_3   0.036667 0.478831 0.215615 -0.434302
C120  C     C_3   0.038923 0.478834 0.781735 -0.434284
C121  C     C_3   0.039862 0.521701 0.779484 -0.417406
C122  C     C_3   0.037766 0.521699 0.217796 -0.417175
C123  C     C_R   0.404759 0.960210 0.259115 0.155397
C124  C     C_3   0.509169 0.478365 0.800915 -0.391471
C125  C     C_R   0.377620 0.932453 0.236023 -0.176698
C126  C     C_R   0.338786 0.915647 0.259316 -0.118755
C127  C     C_R   0.326291 0.926317 0.305902 -0.102109
C128  C     C_R   0.352621 0.953817 0.329269 -0.146182
C129  C     C_R   0.391590 0.970620 0.306200 -0.112172
C130  C     C_R   0.404327 0.960207 0.746631 0.155544
C131  C     C_R   0.378622 0.932453 0.771315 -0.177241
C132  C     C_R   0.338451 0.915652 0.750404 -0.120031
C133  C     C_R   0.323174 0.926323 0.704655 -0.102114
C134  C     C_R   0.348055 0.953818 0.679743 -0.145916
C135  C     C_3   0.506191 0.478366 0.198650 -0.391422
C136  C     C_R   0.388347 0.970616 0.700423 -0.111898
C137  C     C_R   0.400585 0.039887 0.761718 0.129924
C138  C     C_R   0.361393 0.032736 0.792602 -0.143719
C139  C     C_R   0.316152 0.048129 0.783785 -0.126816
C140  C     C_R   0.309242 0.071200 0.744204 -0.111401
C141  C     C_R   0.347604 0.078964 0.713464 -0.134963
C142  C     C_R   0.392951 0.063572 0.722020 -0.143845
C143  C     C_R   0.400122 0.039891 0.244280 0.129836
C144  C     C_R   0.394890 0.063577 0.284364 -0.143104
C145  C     C_R   0.350144 0.078977 0.295624 -0.134134
C146  C     C_3   0.502751 0.521126 0.198032 -0.409388
C147  C     C_R   0.310004 0.071219 0.267242 -0.110966
C148  C     C_R   0.314517 0.048144 0.227320 -0.126781
C149  C     C_R   0.359144 0.032745 0.215804 -0.143994
C150  C     C_R   0.404763 0.460210 0.759155 0.155397
C151  C     C_R   0.377614 0.432453 0.736075 -0.176695
C152  C     C_R   0.338790 0.415647 0.759385 -0.118743
C153  C     C_R   0.326315 0.426318 0.805975 -0.102109
C154  C     C_R   0.352655 0.453817 0.829331 -0.146190
C155  C     C_R   0.391614 0.470620 0.806246 -0.112175
C156  C     C_R   0.404342 0.460207 0.246302 0.155537
C157  C     C_3   0.505773 0.521126 0.801729 -0.409537
C158  C     C_R   0.378553 0.432453 0.270898 -0.177212
C159  C     C_R   0.338455 0.415651 0.249847 -0.119955
C160  C     C_R   0.323336 0.426322 0.204046 -0.102114
C161  C     C_R   0.348302 0.453818 0.179221 -0.145940
C162  C     C_R   0.388522 0.470617 0.200040 -0.111912
C163  C     C_R   0.400549 0.539887 0.261376 0.129918
C164  C     C_R   0.361251 0.532737 0.292125 -0.143731
C165  C     C_R   0.316041 0.548130 0.283152 -0.126814
C166  C     C_R   0.309268 0.571202 0.243548 -0.111379
C167  C     C_R   0.347735 0.578965 0.212941 -0.134916
C168  C     C_3   0.009117 0.978365 0.800924 -0.391471
C169  C     C_R   0.393052 0.563572 0.221652 -0.143805
C170  C     C_R   0.400119 0.539891 0.744322 0.129838
C171  C     C_R   0.394905 0.563577 0.784408 -0.143100
C172  C     C_R   0.350163 0.578977 0.795687 -0.134134
C173  C     C_R   0.310011 0.571219 0.767322 -0.110961
C174  C     C_R   0.314508 0.548144 0.727398 -0.126775
C175  C     C_R   0.359130 0.532745 0.715863 -0.143996
C176  C     C_R   0.904753 0.960210 0.759059 0.155397
C177  C     C_R   0.877628 0.932453 0.735952 -0.176706
C178  C     C_R   0.838780 0.915647 0.759222 -0.118765
C179  C     C_3   0.005894 0.978366 0.198615 -0.391410
C180  C     C_R   0.826258 0.926317 0.805801 -0.102108
C181  C     C_R   0.852574 0.953817 0.829183 -0.146176
C182  C     C_R   0.891556 0.970620 0.806137 -0.112169
C183  C     C_R   0.904319 0.960207 0.246848 0.155547
C184  C     C_R   0.878671 0.932452 0.271589 -0.177261
C185  C     C_R   0.838453 0.915651 0.250768 -0.120079
C186  C     C_R   0.823073 0.926322 0.205054 -0.102115
C187  C     C_R   0.847897 0.953818 0.180087 -0.145902
C188  C     C_R   0.888235 0.970616 0.200676 -0.111888
C189  C     C_R   0.900611 0.039887 0.261942 0.129927
C190  C     C_3   0.002450 0.021126 0.198017 -0.409374
C191  C     C_R   0.861489 0.032736 0.292915 -0.143709
C192  C     C_R   0.816228 0.048128 0.284199 -0.126814
C193  C     C_R   0.809230 0.071201 0.244634 -0.111416
C194  C     C_R   0.847522 0.078964 0.213809 -0.134994
C195  C     C_R   0.892888 0.063572 0.222262 -0.143874
C196  C     C_R   0.900125 0.039891 0.744221 0.129836
C197  C     C_R   0.894870 0.063577 0.784303 -0.143111
C198  C     C_R   0.850117 0.078977 0.795536 -0.134139
C199  C     C_R   0.809993 0.071219 0.767131 -0.110971
C200  C     C_R   0.814530 0.048144 0.727212 -0.126781
C201  C     C_3   0.005720 0.021125 0.801735 -0.409529
C202  C     C_R   0.859164 0.032745 0.715722 -0.143992
C203  C     C_R   0.904745 0.460210 0.258981 0.155398
C204  C     C_R   0.877639 0.432453 0.235851 -0.176714
C205  C     C_R   0.838772 0.415647 0.259089 -0.118789
C206  C     C_R   0.826212 0.426317 0.305657 -0.102103
C207  C     C_R   0.852508 0.453818 0.329061 -0.146156
C208  C     C_R   0.891510 0.470620 0.306047 -0.112167
C209  C     C_R   0.904285 0.460206 0.747725 0.155564
C210  C     C_R   0.878864 0.432453 0.772701 -0.177336
C211  C     C_R   0.838456 0.415652 0.752251 -0.120282
C212  C     C_3   0.009074 0.478365 0.300932 -0.391466
C213  C     C_R   0.822657 0.426323 0.706679 -0.102119
C214  C     C_R   0.847252 0.453818 0.681485 -0.145842
C215  C     C_R   0.887779 0.470616 0.701703 -0.111850
C216  C     C_R   0.900715 0.539886 0.762853 0.129943
C217  C     C_R   0.861879 0.532735 0.794183 -0.143670
C218  C     C_R   0.816539 0.548126 0.785882 -0.126813
C219  C     C_R   0.809177 0.571197 0.746382 -0.111473
C220  C     C_R   0.847185 0.578961 0.715207 -0.135121
C221  C     C_R   0.892627 0.563570 0.723245 -0.143983
C222  C     C_R   0.900129 0.539891 0.244139 0.129834
C223  C     C_R   0.500040 0.349681 0.750015 0.825585
C224  C     C_3   0.005414 0.478366 0.698563 -0.391396
C225  C     C_R   0.894841 0.563577 0.284216 -0.143122
C226  C     C_R   0.850078 0.578977 0.295412 -0.134136
C227  C     C_R   0.809979 0.571220 0.266974 -0.110978
C228  C     C_R   0.814549 0.548145 0.227058 -0.126788
C229  C     C_R   0.859192 0.532745 0.215605 -0.143990
C230  C     C_3   0.001963 0.521126 0.697997 -0.409344
C231  C     C_3   0.005677 0.521125 0.301739 -0.409521
C232  C     C_1   0.999557 0.610712 0.249830 -0.144837
C233  C     C_1   0.999526 0.610712 0.750209 -0.144773
C234  C     C_1   0.999796 0.389290 0.750143 -0.140316
C235  C     C_1   0.999817 0.389290 0.249874 -0.140447
C236  C     C_1   0.999557 0.110712 0.749831 -0.144839
C237  C     C_1   0.999530 0.110712 0.250204 -0.144785
C238  C     C_1   0.999799 0.889290 0.250141 -0.140331
C239  C     C_R   0.500041 0.349681 0.249982 0.825736
C240  C     C_1   0.999817 0.889290 0.749875 -0.140449
C241  C     C_1   0.499558 0.610712 0.749831 -0.144839
C242  C     C_1   0.499532 0.610712 0.250201 -0.144791
C243  C     C_1   0.499800 0.389290 0.250140 -0.140341
C244  C     C_1   0.499817 0.389290 0.749875 -0.140454
C245  C     C_1   0.499557 0.110712 0.249831 -0.144840
C246  C     C_1   0.499530 0.110712 0.750203 -0.144788
C247  C     C_1   0.499799 0.889290 0.750141 -0.140336
C248  C     C_1   0.499817 0.889290 0.249875 -0.140452
C249  C     C_3   0.497532 0.963342 0.250022 0.293398
C250  C     C_R   0.500019 0.150318 0.749977 0.830940
C251  C     C_3   0.497479 0.963342 0.750131 0.293309
C252  C     C_3   0.496423 0.036668 0.749888 0.290541
C253  C     C_3   0.496499 0.036667 0.250330 0.290522
C254  C     C_3   0.497532 0.463342 0.750024 0.293398
C255  C     C_3   0.497482 0.463342 0.250123 0.293314
C256  C     C_3   0.496428 0.536668 0.249876 0.290542
C257  C     C_3   0.496499 0.536667 0.750332 0.290518
C258  C     C_3   0.997531 0.963342 0.750021 0.293397
C259  C     C_3   0.997479 0.963342 0.250137 0.293307
C260  C     C_3   0.996423 0.036668 0.249896 0.290542
C261  C     C_R   0.500017 0.150319 0.250021 0.830739
C262  C     C_3   0.996498 0.036667 0.750328 0.290523
C263  C     C_3   0.997531 0.463342 0.250019 0.293394
C264  C     C_3   0.997472 0.463342 0.750160 0.293289
C265  C     C_3   0.996412 0.536668 0.749929 0.290535
C266  C     C_3   0.996497 0.536667 0.250325 0.290520
C267  C     C_3   0.947701 0.521489 0.229315 -0.165378
C268  C     C_3   0.949211 0.521486 0.774308 -0.165437
C269  C     C_3   0.948672 0.477845 0.771373 -0.162586
C270  C     C_3   0.947365 0.477848 0.232279 -0.162466
C271  C     C_3   0.947685 0.021489 0.729358 -0.165377
C272  C     C_R   0.500040 0.849681 0.250015 0.825588
C273  C     C_3   0.949000 0.021487 0.273842 -0.165431
C274  C     C_3   0.948487 0.977845 0.270902 -0.162575
C275  C     C_3   0.947351 0.977848 0.732323 -0.162466
C276  C     C_3   0.447665 0.521489 0.729411 -0.165377
C277  C     C_3   0.448869 0.521487 0.273550 -0.165426
C278  C     C_3   0.448373 0.477845 0.270608 -0.162564
C279  C     C_3   0.447334 0.477848 0.732376 -0.162466
C280  C     C_3   0.447673 0.021489 0.229389 -0.165377
C281  C     C_3   0.448947 0.021487 0.773726 -0.165428
C282  C     C_3   0.448441 0.977845 0.770785 -0.162570
C283  C     C_R   0.500042 0.849681 0.749982 0.825746
C284  C     C_3   0.447341 0.977848 0.232354 -0.162466
C285  C     C_1   0.998490 0.577410 0.249955 -0.120348
C286  C     C_1   0.998430 0.577411 0.750160 -0.120249
C287  C     C_1   0.999127 0.422590 0.750202 -0.106390
C288  C     C_1   0.999167 0.422590 0.249862 -0.106534
C289  C     C_1   0.998491 0.077410 0.749956 -0.120349
C290  C     C_1   0.998438 0.077410 0.250146 -0.120264
C291  C     C_1   0.999132 0.922590 0.250194 -0.106407
C292  C     C_1   0.999167 0.922590 0.749863 -0.106536
C293  C     C_1   0.498492 0.577410 0.749958 -0.120348
C294  C     C_R   0.000019 0.650319 0.749977 0.830968
C295  C     C_1   0.498441 0.577411 0.250136 -0.120273
C296  C     C_1   0.499134 0.422590 0.250189 -0.106418
C297  C     C_1   0.499168 0.422590 0.749864 -0.106540
C298  C     C_1   0.498491 0.077410 0.249957 -0.120350
C299  C     C_1   0.498438 0.077410 0.750142 -0.120267
C300  C     C_1   0.499132 0.922590 0.750192 -0.106411
C301  C     C_1   0.499168 0.922590 0.249863 -0.106537
C302  C     C_1   0.499976 0.750004 0.431113 -0.150988
C303  C     C_1   0.499976 0.750005 0.568886 -0.151004
C304  C     C_1   0.499975 0.249996 0.568885 -0.153175
H1    H     H_    0.073238 0.530919 0.232061 0.182096
H2    H     H_    0.574061 0.530923 0.263871 0.181835
H3    H     H_    0.361776 0.014854 0.184660 0.114440
H4    H     H_    0.386613 0.423550 0.699986 0.113805
H5    H     H_    0.318361 0.394306 0.741269 0.129058
H6    H     H_    0.296180 0.413328 0.823945 0.127136
H7    H     H_    0.342785 0.462244 0.865370 0.128409
H8    H     H_    0.410558 0.492222 0.825054 0.123292
H9    H     H_    0.389600 0.423550 0.306414 0.113952
H10   H     H_    0.319092 0.394314 0.269103 0.128587
H11   H     H_    0.292218 0.413336 0.187830 0.126994
H12   H     H_    0.336387 0.462246 0.143806 0.128368
H13   H     H_    0.573877 0.467799 0.270310 0.181058
H14   H     H_    0.406362 0.492216 0.180179 0.123284
H15   H     H_    0.365646 0.514847 0.323071 0.114458
H16   H     H_    0.286232 0.542146 0.306976 0.124661
H17   H     H_    0.274239 0.583144 0.236634 0.126241
H18   H     H_    0.342461 0.597010 0.182324 0.135690
H19   H     H_    0.421423 0.570635 0.196999 0.128134
H20   H     H_    0.424637 0.570635 0.807405 0.127825
H21   H     H_    0.346647 0.597023 0.826554 0.135541
H22   H     H_    0.275436 0.583167 0.776220 0.126554
H23   H     H_    0.283388 0.542164 0.705312 0.124688
H24   H     H_    0.572648 0.467795 0.725507 0.181264
H25   H     H_    0.361749 0.514854 0.684718 0.114443
H26   H     H_    0.886663 0.923550 0.699872 0.113806
H27   H     H_    0.818369 0.894306 0.741086 0.129052
H28   H     H_    0.796105 0.913327 0.823740 0.127141
H29   H     H_    0.842669 0.962244 0.865211 0.128425
H30   H     H_    0.910482 0.992222 0.824964 0.123296
H31   H     H_    0.889920 0.923550 0.307042 0.113968
H32   H     H_    0.819200 0.894313 0.270134 0.128544
H33   H     H_    0.791863 0.913336 0.189016 0.126985
H34   H     H_    0.835780 0.962246 0.144741 0.128379
H35   H     H_    0.573214 0.030919 0.231958 0.182109
H36   H     H_    0.905961 0.992216 0.180713 0.123289
H37   H     H_    0.866060 0.014847 0.323835 0.114457
H38   H     H_    0.786556 0.042144 0.308192 0.124658
H39   H     H_    0.774162 0.083143 0.237920 0.126211
H40   H     H_    0.842073 0.097009 0.183223 0.135708
H41   H     H_    0.921118 0.070635 0.197448 0.128166
H42   H     H_    0.924579 0.070636 0.807329 0.127834
H43   H     H_    0.846571 0.097023 0.826400 0.135549
H44   H     H_    0.775410 0.083168 0.775995 0.126548
H45   H     H_    0.783432 0.042164 0.705095 0.124684
H46   H     H_    0.574105 0.030923 0.763616 0.181822
H47   H     H_    0.861813 0.014854 0.684579 0.114440
H48   H     H_    0.886704 0.423550 0.199779 0.113802
H49   H     H_    0.818376 0.394306 0.240936 0.129044
H50   H     H_    0.796044 0.413327 0.323572 0.127149
H51   H     H_    0.842573 0.462244 0.365081 0.128447
H52   H     H_    0.910419 0.492222 0.324890 0.123303
H53   H     H_    0.890437 0.423551 0.808050 0.113993
H54   H     H_    0.819380 0.394316 0.771793 0.128474
H55   H     H_    0.791300 0.413338 0.690929 0.126967
H56   H     H_    0.834811 0.462246 0.646252 0.128393
H57   H     H_    0.573943 0.967799 0.770056 0.181045
H58   H     H_    0.905321 0.492215 0.681578 0.123295
H59   H     H_    0.866734 0.514846 0.825061 0.114454
H60   H     H_    0.787088 0.542141 0.810146 0.124654
H61   H     H_    0.774049 0.583138 0.739989 0.126162
H62   H     H_    0.841455 0.597005 0.684672 0.135735
H63   H     H_    0.920629 0.570634 0.698173 0.128214
H64   H     H_    0.924531 0.570636 0.307266 0.127845
H65   H     H_    0.846507 0.597023 0.326272 0.135563
H66   H     H_    0.775388 0.583168 0.275809 0.126547
H67   H     H_    0.783469 0.542165 0.204916 0.124680
H68   H     H_    0.572659 0.967795 0.225538 0.181262
H69   H     H_    0.861867 0.514854 0.184465 0.114436
H70   H     H_    0.485193 0.966020 0.328505 0.167497
H71   H     H_    0.480442 0.966020 0.672532 0.167653
H72   H     H_    0.472785 0.029582 0.674097 0.153782
H73   H     H_    0.074245 0.530924 0.762768 0.181781
H74   H     H_    0.477462 0.029583 0.327404 0.153649
H75   H     H_    0.485226 0.466020 0.828511 0.167492
H76   H     H_    0.480712 0.466020 0.172465 0.167642
H77   H     H_    0.473051 0.529582 0.174004 0.153771
H78   H     H_    0.477494 0.529583 0.827413 0.153644
H79   H     H_    0.985146 0.966020 0.828496 0.167501
H80   H     H_    0.980266 0.966020 0.172576 0.167661
H81   H     H_    0.972614 0.029582 0.174159 0.153789
H82   H     H_    0.977416 0.029583 0.827390 0.153652
H83   H     H_    0.985081 0.466020 0.328483 0.167509
H84   H     H_    0.074158 0.467800 0.769210 0.181003
H85   H     H_    0.979548 0.466020 0.672761 0.167690
H86   H     H_    0.971909 0.529582 0.674413 0.153816
H87   H     H_    0.977352 0.529583 0.327372 0.153661
H88   H     H_    0.546297 0.969974 0.311205 0.170938
H89   H     H_    0.542475 0.969977 0.686127 0.170930
H90   H     H_    0.535958 0.032586 0.681671 0.171904
H91   H     H_    0.540065 0.032583 0.316046 0.171835
H92   H     H_    0.546323 0.469974 0.811185 0.170939
H93   H     H_    0.542698 0.469977 0.186273 0.170926
H94   H     H_    0.536197 0.532586 0.181795 0.171896
H95   H     H_    0.072692 0.467795 0.225640 0.181257
H96   H     H_    0.540093 0.532583 0.816030 0.171833
H97   H     H_    0.046261 0.969974 0.811232 0.170937
H98   H     H_    0.042330 0.969977 0.186031 0.170930
H99   H     H_    0.035803 0.032586 0.181590 0.171908
H100  H     H_    0.040027 0.032583 0.816070 0.171837
H101  H     H_    0.046210 0.469974 0.311270 0.170938
H102  H     H_    0.041733 0.469977 0.685646 0.170938
H103  H     H_    0.035165 0.532586 0.681265 0.171925
H104  H     H_    0.039971 0.532583 0.316102 0.171841
H105  H     H_    0.444225 0.968362 0.194290 0.100574
H106  H     H_    0.073224 0.030919 0.732000 0.182103
H107  H     H_    0.447620 0.968359 0.808967 0.100777
H108  H     H_    0.453440 0.028367 0.812624 0.116603
H109  H     H_    0.449820 0.028368 0.190291 0.116468
H110  H     H_    0.444201 0.468362 0.694313 0.100575
H111  H     H_    0.447422 0.468360 0.308787 0.100767
H112  H     H_    0.453229 0.528367 0.312464 0.116597
H113  H     H_    0.449795 0.528368 0.690312 0.116470
H114  H     H_    0.944257 0.968362 0.694257 0.100575
H115  H     H_    0.947754 0.968359 0.309086 0.100785
H116  H     H_    0.953581 0.028367 0.312730 0.116608
H117  H     H_    0.074135 0.030923 0.263448 0.181813
H118  H     H_    0.949855 0.028368 0.690261 0.116469
H119  H     H_    0.944302 0.468362 0.194211 0.100574
H120  H     H_    0.948289 0.468359 0.809562 0.100812
H121  H     H_    0.954148 0.528366 0.813153 0.116627
H122  H     H_    0.949904 0.528368 0.190220 0.116469
H123  H     H_    0.529278 0.969747 0.178014 0.168994
H124  H     H_    0.533499 0.969749 0.820101 0.169192
H125  H     H_    0.538520 0.033076 0.817140 0.168745
H126  H     H_    0.534474 0.033075 0.180669 0.168605
H127  H     H_    0.529248 0.469747 0.678002 0.168996
H128  H     H_    0.073988 0.967800 0.269889 0.181036
H129  H     H_    0.533261 0.469749 0.320216 0.169185
H130  H     H_    0.538293 0.533076 0.317272 0.168742
H131  H     H_    0.534445 0.533075 0.680655 0.168609
H132  H     H_    0.029320 0.969747 0.678031 0.168995
H133  H     H_    0.033657 0.969750 0.320025 0.169197
H134  H     H_    0.038672 0.033076 0.317053 0.168750
H135  H     H_    0.034514 0.033075 0.680689 0.168605
H136  H     H_    0.029379 0.469747 0.178055 0.168993
H137  H     H_    0.034289 0.469750 0.819714 0.169219
H138  H     H_    0.039275 0.533076 0.816696 0.168766
H139  H     H_    0.072672 0.967795 0.725580 0.181259
H140  H     H_    0.034571 0.533075 0.180717 0.168604
H141  H     H_    0.386634 0.923550 0.199938 0.113803
H142  H     H_    0.318365 0.894306 0.241192 0.129054
H143  H     H_    0.296149 0.913327 0.323859 0.127139
H144  H     H_    0.342736 0.962244 0.365303 0.128419
H145  H     H_    0.410526 0.992222 0.325016 0.123295
H146  H     H_    0.389790 0.923551 0.806794 0.113960
H147  H     H_    0.319153 0.894315 0.769726 0.128560
H148  H     H_    0.292000 0.913337 0.688546 0.126988
H149  H     H_    0.336018 0.962246 0.644370 0.128374
H150  H     H_    0.573206 0.530919 0.731927 0.182121
H151  H     H_    0.406119 0.992216 0.680501 0.123286
H152  H     H_    0.365895 0.014847 0.823533 0.114456
H153  H     H_    0.286426 0.042145 0.807711 0.124658
H154  H     H_    0.274189 0.083143 0.737410 0.126223
H155  H     H_    0.342224 0.097008 0.682866 0.135701
H156  H     H_    0.421237 0.070634 0.697269 0.128153
H157  H     H_    0.424613 0.070636 0.307373 0.127830
H158  H     H_    0.346615 0.097022 0.326490 0.135547
H159  H     H_    0.275425 0.083167 0.276126 0.126551
H160  H     H_    0.283406 0.042164 0.205222 0.124685
O1    O     O_3   0.499990 0.750000 0.250000 -0.477181
O2    O     O_R   0.527870 0.668020 0.722120 -0.637642
O3    O     O_R   0.972140 0.331980 0.722150 -0.633118
O4    O     O_R   0.972140 0.168020 0.222150 -0.639130
O5    O     O_R   0.972140 0.168020 0.777850 -0.638912
O6    O     O_R   0.972140 0.831980 0.777850 -0.633095
O7    O     O_R   0.972140 0.831980 0.222150 -0.633115
O8    O     O_R   0.527870 0.331980 0.722120 -0.640002
O9    O     O_R   0.527870 0.331980 0.277880 -0.640050
O10   O     O_R   0.527870 0.168020 0.777880 -0.637578
O11   O     O_R   0.527870 0.168020 0.222120 -0.637645
O12   O     O_R   0.527870 0.831980 0.222120 -0.640004
O13   O     O_R   0.527870 0.831980 0.777880 -0.640056
O14   O     O_R   0.027870 0.668020 0.777880 -0.637566
O15   O     O_R   0.027870 0.668020 0.222120 -0.637647
O16   O     O_R   0.027870 0.331980 0.222120 -0.640009
O17   O     O_3   0.499990 0.750000 0.750000 -0.477201
O18   O     O_R   0.027870 0.331980 0.777880 -0.640074
O19   O     O_R   0.027870 0.168020 0.277880 -0.637576
O20   O     O_R   0.027870 0.168020 0.722120 -0.637646
O21   O     O_R   0.027870 0.831980 0.722120 -0.640007
O22   O     O_R   0.027870 0.831980 0.277880 -0.640061
O23   O     O_R   0.472130 0.728510 0.143730 -0.636657
O24   O     O_R   0.472130 0.728510 0.856270 -0.636754
O25   O     O_R   0.472130 0.271490 0.856270 -0.634109
O26   O     O_R   0.472130 0.271490 0.143730 -0.634170
O27   O     O_R   0.472130 0.228510 0.643730 -0.636650
O28   O     O_3   0.499990 0.250000 0.750000 -0.477181
O29   O     O_R   0.472130 0.228510 0.356270 -0.636752
O30   O     O_R   0.472130 0.771490 0.356270 -0.634108
O31   O     O_R   0.472130 0.771490 0.643730 -0.634174
O32   O     O_R   0.972130 0.728510 0.643730 -0.636620
O33   O     O_R   0.972130 0.728510 0.356270 -0.636740
O34   O     O_R   0.972130 0.271490 0.356270 -0.634104
O35   O     O_R   0.972130 0.271490 0.643730 -0.634179
O36   O     O_R   0.972130 0.228510 0.143730 -0.636642
O37   O     O_R   0.972130 0.228510 0.856270 -0.636747
O38   O     O_R   0.972130 0.771490 0.856270 -0.634108
O39   O     O_3   0.499990 0.250000 0.250000 -0.477200
O40   O     O_R   0.972130 0.771490 0.143730 -0.634173
O41   O     O_R   0.393720 0.728520 0.222140 -0.635412
O42   O     O_R   0.393720 0.728520 0.777860 -0.635340
O43   O     O_R   0.393720 0.271480 0.777860 -0.634493
O44   O     O_R   0.393720 0.271480 0.222140 -0.634304
O45   O     O_R   0.393720 0.228520 0.722140 -0.635419
O46   O     O_R   0.393720 0.228520 0.277860 -0.635336
O47   O     O_R   0.393720 0.771480 0.277860 -0.634492
O48   O     O_R   0.393720 0.771480 0.722140 -0.634288
O49   O     O_R   0.893720 0.728520 0.722140 -0.635447
O50   O     O_3   0.999990 0.750000 0.750000 -0.477182
O51   O     O_R   0.893720 0.728520 0.277860 -0.635347
O52   O     O_R   0.893720 0.271480 0.277860 -0.634478
O53   O     O_R   0.893720 0.271480 0.722140 -0.634237
O54   O     O_R   0.893720 0.228520 0.222140 -0.635429
O55   O     O_R   0.893720 0.228520 0.777860 -0.635361
O56   O     O_R   0.893720 0.771480 0.777860 -0.634477
O57   O     O_R   0.893720 0.771480 0.222140 -0.634278
O58   O     O_R   0.606280 0.728500 0.277860 -0.635534
O59   O     O_R   0.606280 0.728500 0.722140 -0.635518
O60   O     O_R   0.606280 0.271500 0.722140 -0.635128
O61   O     O_3   0.999990 0.750000 0.250000 -0.477202
O62   O     O_R   0.606280 0.271500 0.277860 -0.635150
O63   O     O_R   0.606280 0.228500 0.777860 -0.635541
O64   O     O_R   0.606280 0.228500 0.222140 -0.635522
O65   O     O_R   0.606280 0.771500 0.222140 -0.635135
O66   O     O_R   0.606280 0.771500 0.777860 -0.635154
O67   O     O_R   0.106280 0.728500 0.777860 -0.635539
O68   O     O_R   0.106280 0.728500 0.222140 -0.635522
O69   O     O_R   0.106280 0.271500 0.222140 -0.635137
O70   O     O_R   0.106280 0.271500 0.777860 -0.635157
O71   O     O_R   0.106280 0.228500 0.277860 -0.635536
O72   O     O_3   0.999990 0.250000 0.250000 -0.477181
O73   O     O_R   0.106280 0.228500 0.722140 -0.635520
O74   O     O_R   0.106280 0.771500 0.722140 -0.635135
O75   O     O_R   0.106280 0.771500 0.277860 -0.635154
O76   O     O_R   0.527850 0.771500 0.143710 -0.634697
O77   O     O_R   0.527850 0.771500 0.856290 -0.634701
O78   O     O_R   0.527850 0.228500 0.856290 -0.634911
O79   O     O_R   0.527850 0.228500 0.143710 -0.634902
O80   O     O_R   0.527850 0.271500 0.643710 -0.634692
O81   O     O_R   0.527850 0.271500 0.356290 -0.634696
O82   O     O_R   0.527850 0.728500 0.356290 -0.634909
O83   O     O_3   0.999990 0.250000 0.750000 -0.477203
O84   O     O_R   0.527850 0.728500 0.643710 -0.634896
O85   O     O_R   0.027850 0.771500 0.643710 -0.634706
O86   O     O_R   0.027850 0.771500 0.356290 -0.634704
O87   O     O_R   0.027850 0.228500 0.356290 -0.634912
O88   O     O_R   0.027850 0.228500 0.643710 -0.634903
O89   O     O_R   0.027850 0.271500 0.143710 -0.634704
O90   O     O_R   0.027850 0.271500 0.856290 -0.634706
O91   O     O_R   0.027850 0.728500 0.856290 -0.634909
O92   O     O_R   0.027850 0.728500 0.143710 -0.634905
O93   O     O_R   0.472140 0.668020 0.222150 -0.639114
O94   O     O_R   0.527870 0.668020 0.277880 -0.637580
O95   O     O_R   0.472140 0.668020 0.777850 -0.638911
O96   O     O_R   0.472140 0.331980 0.777850 -0.633096
O97   O     O_R   0.472140 0.331980 0.222150 -0.633115
O98   O     O_R   0.472140 0.168020 0.722150 -0.639123
O99   O     O_R   0.472140 0.168020 0.277850 -0.638910
O100  O     O_R   0.472140 0.831980 0.277850 -0.633095
O101  O     O_R   0.472140 0.831980 0.722150 -0.633115
O102  O     O_R   0.972140 0.668020 0.722150 -0.639158
O103  O     O_R   0.972140 0.668020 0.277850 -0.638911
O104  O     O_R   0.972140 0.331980 0.277850 -0.633091
Zn1   Zn    Zn3+2 0.539790 0.780710 0.210180 0.974696
Zn2   Zn    Zn3+2 0.039790 0.780710 0.289820 0.974642
Zn3   Zn    Zn3+2 0.039790 0.219290 0.289820 0.976873
Zn4   Zn    Zn3+2 0.039790 0.219290 0.710180 0.976763
Zn5   Zn    Zn3+2 0.039790 0.280710 0.210180 0.974689
Zn6   Zn    Zn3+2 0.039790 0.280710 0.789820 0.974630
Zn7   Zn    Zn3+2 0.039790 0.719290 0.789820 0.976884
Zn8   Zn    Zn3+2 0.039790 0.719290 0.210180 0.976764
Zn9   Zn    Zn3+2 0.460190 0.719300 0.210200 0.974321
Zn10  Zn    Zn3+2 0.460190 0.719300 0.789800 0.974355
Zn11  Zn    Zn3+2 0.460190 0.280700 0.789800 0.980065
Zn12  Zn    Zn3+2 0.539790 0.780710 0.789820 0.974639
Zn13  Zn    Zn3+2 0.460190 0.280700 0.210200 0.980199
Zn14  Zn    Zn3+2 0.460190 0.219300 0.710200 0.974324
Zn15  Zn    Zn3+2 0.460190 0.219300 0.289800 0.974362
Zn16  Zn    Zn3+2 0.460190 0.780700 0.289800 0.980069
Zn17  Zn    Zn3+2 0.460190 0.780700 0.710200 0.980213
Zn18  Zn    Zn3+2 0.960190 0.719300 0.710200 0.974326
Zn19  Zn    Zn3+2 0.960190 0.719300 0.289800 0.974371
Zn20  Zn    Zn3+2 0.960190 0.280700 0.289800 0.980085
Zn21  Zn    Zn3+2 0.960190 0.280700 0.710200 0.980251
Zn22  Zn    Zn3+2 0.960190 0.219300 0.210200 0.974321
Zn23  Zn    Zn3+2 0.539790 0.219290 0.789820 0.976866
Zn24  Zn    Zn3+2 0.960190 0.219300 0.789800 0.974361
Zn25  Zn    Zn3+2 0.960190 0.780700 0.789800 0.980080
Zn26  Zn    Zn3+2 0.960190 0.780700 0.210200 0.980219
Zn27  Zn    Zn3+2 0.539790 0.219290 0.210180 0.976766
Zn28  Zn    Zn3+2 0.539790 0.280710 0.710180 0.974706
Zn29  Zn    Zn3+2 0.539790 0.280710 0.289820 0.974650
Zn30  Zn    Zn3+2 0.539790 0.719290 0.289820 0.976868
Zn31  Zn    Zn3+2 0.539790 0.719290 0.710180 0.976772
Zn32  Zn    Zn3+2 0.039790 0.780710 0.710180 0.974697

loop_
_geom_bond_atom_site_label_1
_geom_bond_atom_site_label_2
_ccdc_geom_bond_type
C61   C70   S    
C111  H2    S    
C264  C269  S    
C62   O59   A    
C115  H139  S    
O85   Zn32  S    
C19   C20   S    
C74   C83   T    
C46   O5    A    
C219  H61   S    
O1    Zn16  S    
C15   C32   T    
O92   Zn8   S    
C176  C182  A    
C190  H81   S    
C175  H25   S    
C126  C127  A    
C210  H53   S    
C60   C98   S    
C108  C253  S    
C106  C107  S    
C69   O70   A    
C143  C144  A    
O83   Zn24  S    
C8    C26   T    
C126  H142  S    
O41   Zn9   S    
C110  C111  S    
C220  C221  A    
C179  H98   S    
C262  C271  S    
O102  Zn18  S    
C263  C270  S    
C249  C301  S    
C222  C229  A    
O67   Zn7   S    
C226  H65   S    
C122  H1    S    
C42   O31   A    
C211  H54   S    
C16   C44   S    
O69   Zn5   S    
C88   C97   T    
O57   Zn26  S    
C119  H136  S    
C214  H56   S    
O37   Zn24  S    
C51   O40   A    
C258  C275  S    
C199  C200  A    
C169  H19   S    
O97   Zn13  S    
C21   C22   S    
C184  H31   S    
O99   Zn15  S    
C228  C229  A    
C190  H99   S    
C146  H77   S    
O28   Zn14  S    
O80   Zn28  S    
C260  C290  S    
C43   O32   A    
C148  H160  S    
O91   Zn7   S    
O2    Zn31  S    
C190  C260  S    
C135  H93   S    
C140  C141  A    
C114  H150  S    
C121  C265  S    
C61   O65   A    
C206  C207  A    
O72   Zn20  S    
C250  O10   A    
C213  C214  A    
O61   Zn26  S    
O64   Zn27  S    
O36   Zn22  S    
C82   C91   S    
C171  H20   S    
C251  C282  S    
C138  H152  S    
O16   Zn5   S    
C134  H149  S    
C223  O96   A    
C205  H49   S    
C224  H85   S    
C11   C49   S    
C253  C280  S    
C65   O67   A    
O77   Zn12  S    
C254  C279  S    
C56   O49   A    
C48   O36   A    
C115  C118  S    
O87   Zn3   S    
C26   C27   S    
C216  C217  A    
C154  C155  A    
C228  H67   S    
C193  H39   S    
C158  C159  A    
C101  C252  S    
C8    C50   S    
C52   O41   A    
O25   Zn11  S    
C189  C273  S    
C28   C29   S    
C46   O20   A    
C121  H138  S    
C280  H109  S    
C115  H132  S    
O17   Zn17  S    
C255  C296  S    
O75   Zn2   S    
C108  H126  S    
C111  H130  S    
C139  C140  A    
C87   C96   T    
C63   O60   A    
C251  C300  S    
C166  H17   S    
C144  C145  A    
C156  C158  A    
C130  C131  A    
C217  C218  A    
C80   C88   S    
C254  C297  S    
C183  C188  A    
C266  C285  S    
O28   Zn23  S    
C24   O18   A    
C276  H113  S    
C45   O34   A    
C44   O33   A    
C84   C93   S    
C24   C234  S    
C86   C95   S    
C149  H3    S    
C17   C302  T    
C267  H122  S    
O11   Zn27  S    
C193  C194  A    
C139  H153  S    
C231  C266  S    
O24   Zn10  S    
C19   C304  T    
C239  C243  S    
C186  C187  A    
C252  C281  S    
C76   C85   T    
O55   Zn24  S    
C180  H28   S    
C112  O2    A    
C78   C87   S    
C137  C142  A    
O88   Zn4   S    
C249  C284  S    
C57   O21   A    
C110  H13   S    
C69   C77   S    
C147  C148  A    
C294  O102  A    
O32   Zn18  S    
C14   C31   T    
C245  C261  S    
C128  C129  A    
C242  C295  T    
C167  C169  A    
C204  H48   S    
C147  H159  S    
C272  O100  A    
C209  C215  A    
C64   O62   A    
C107  C252  S    
O49   Zn18  S    
O20   Zn4   S    
O35   Zn21  S    
C172  C173  A    
C267  C270  S    
C1    O94   A    
O54   Zn22  S    
C131  H146  S    
C278  H111  S    
C67   O71   A    
C234  C287  T    
C279  H110  S    
C109  C254  S    
C146  H94   S    
C184  C185  A    
C259  C274  S    
O82   Zn30  S    
C189  C191  A    
O81   Zn29  S    
C150  C279  S    
C216  C268  S    
C109  H24   S    
C59   O54   A    
C160  H11   S    
C120  H84   S    
C157  H96   S    
C245  C298  T    
C124  H92   S    
O63   Zn23  S    
C141  H155  S    
C118  C262  S    
C38   O26   A    
C64   C73   S    
C230  H86   S    
C271  H118  S    
O50   Zn32  S    
O51   Zn19  S    
C236  C289  T    
O90   Zn6   S    
O39   Zn27  S    
O50   Zn18  S    
C187  H34   S    
C2    C232  S    
C224  H102  S    
C227  H66   S    
O39   Zn13  S    
C277  C278  S    
O47   Zn16  S    
C47   O35   A    
C35   O4    A    
C166  C167  A    
C56   C97   S    
C179  H80   S    
C58   O57   A    
C2    O15   A    
C17   C18   S    
C42   C303  S    
O84   Zn31  S    
C194  H40   S    
C49   O90   A    
C63   C72   S    
C3    C40   S    
O10   Zn23  S    
C158  H9    S    
C256  C277  S    
C108  H35   S    
C201  C262  S    
C114  H131  S    
C179  C259  S    
C261  O99   A    
C125  H141  S    
C163  C277  S    
C222  C225  A    
C243  C296  T    
C191  H37   S    
C65   C74   S    
C39   C304  S    
O17   Zn10  S    
C156  C278  S    
C253  C298  S    
C34   O76   A    
O27   Zn14  S    
C119  H95   S    
C212  H83   S    
C143  C149  A    
C101  H90   S    
C18   C303  T    
O19   Zn3   S    
C209  C210  A    
C268  C269  S    
C185  H32   S    
O22   Zn2   S    
C116  C259  S    
C109  C114  S    
O39   Zn15  S    
C200  C202  A    
C56   O56   A    
C150  C155  A    
C79   C113  S    
O7    Zn26  S    
C35   O19   A    
O29   Zn15  S    
C260  C273  S    
C176  C275  S    
C120  C121  S    
C122  C266  S    
C62   O66   A    
C258  C292  S    
C191  C192  A    
C155  H8    S    
O58   Zn30  S    
C136  H151  S    
C231  H87   S    
C64   O64   A    
C198  H43   S    
O62   Zn29  S    
C181  H29   S    
C41   C302  S    
C67   O69   A    
C90   C251  S    
C262  C289  S    
C89   C98   T    
C217  H59   S    
C15   C43   S    
C172  H21   S    
C45   O87   A    
O43   Zn11  S    
C174  H23   S    
C261  O11   A    
C246  C299  T    
O72   Zn3   S    
C200  H45   S    
C143  C280  S    
C62   C71   S    
C124  H75   S    
O40   Zn26  S    
C197  C198  A    
C114  C257  S    
C1    C242  S    
C116  H128  S    
O4    Zn22  S    
C165  H16   S    
C204  C205  A    
C226  C227  A    
O17   Zn31  S    
C150  C151  A    
C220  H62   S    
C107  H125  S    
C91   C99   T    
C173  H22   S    
O44   Zn13  S    
O94   Zn30  S    
O46   Zn15  S    
C212  C263  S    
C40   O29   A    
C140  H154  S    
C7    C36   S    
C9    C51   S    
O89   Zn5   S    
C230  H103  S    
C36   O24   A    
C116  H133  S    
C161  C162  A    
C218  H60   S    
C224  C264  S    
C181  C182  A    
C95   C104  T    
O28   Zn11  S    
C47   O88   A    
C52   C102  S    
C151  H4    S    
O17   Zn12  S    
C54   C104  S    
C164  C165  A    
C123  C284  S    
C43   O85   A    
C241  C293  T    
C30   C31   S    
C54   O45   A    
C59   O52   A    
C123  C125  A    
O21   Zn32  S    
C90   H89   S    
O60   Zn28  S    
C250  O98   A    
C168  C258  S    
C216  C221  A    
C247  C283  S    
O86   Zn2   S    
C182  H30   S    
C35   C237  S    
C129  H145  S    
C151  C152  A    
C109  H127  S    
O73   Zn4   S    
C239  O9    A    
O95   Zn10  S    
C72   C81   T    
C55   O46   A    
C257  C293  S    
C58   O51   A    
C13   C235  S    
C13   O104  A    
C81   C89   S    
C90   H71   S    
C194  C195  A    
C137  C281  S    
C233  C286  T    
C5    C38   S    
C39   O27   A    
C252  C299  S    
C231  H104  S    
C133  H148  S    
C240  C292  T    
O1    Zn1   S    
C145  C147  A    
C49   O37   A    
C170  C175  A    
C53   C100  S    
C66   O75   A    
C130  C136  A    
C113  C253  S    
C207  C208  A    
C248  C301  T    
C162  H14   S    
C57   O6    A    
C124  C254  S    
C219  C220  A    
C117  C260  S    
O12   Zn1   S    
C183  C274  S    
O23   Zn9   S    
C173  C174  A    
O30   Zn16  S    
O83   Zn21  S    
O56   Zn25  S    
C275  H114  S    
C106  C251  S    
C206  H50   S    
C271  C275  S    
O100  Zn16  S    
C273  H116  S    
C224  C230  S    
C256  C295  S    
C274  H115  S    
C189  C195  A    
C105  H68   S    
C66   O68   A    
O1    Zn30  S    
C248  C272  S    
O6    Zn25  S    
C110  C255  S    
C124  C157  S    
O31   Zn17  S    
C3    C20   T    
C41   O82   A    
C208  H52   S    
C14   C47   S    
O72   Zn22  S    
C112  C241  S    
C52   O47   A    
O45   Zn14  S    
C255  C278  S    
C10   C48   S    
C133  C134  A    
O34   Zn20  S    
O13   Zn12  S    
O14   Zn7   S    
O53   Zn21  S    
C131  C132  A    
C73   C82   T    
C153  H6    S    
C9    C27   T    
C235  C288  T    
C203  C208  A    
C186  H33   S    
C10   C28   T    
C111  C256  S    
C212  C231  S    
C68   O7    A    
O76   Zn1   S    
C257  C276  S    
C263  C288  S    
C12   C30   T    
C152  H5    S    
C55   O44   A    
C168  H79   S    
C69   O73   A    
C113  H74   S    
C269  H120  S    
C93   C102  T    
C178  C180  A    
C54   O43   A    
C268  H121  S    
C53   O48   A    
C247  C300  T    
C121  H73   S    
C7    C25   T    
C232  C285  T    
C2    O103  A    
C32   C33   S    
O98   Zn14  S    
C105  C249  S    
C187  C188  A    
C50   O38   A    
C192  C193  A    
C222  C267  S    
C1    O93   A    
C185  C186  A    
O61   Zn8   S    
C168  H97   S    
C221  H63   S    
C66   C75   S    
O28   Zn28  S    
C24   O3    A    
C68   O22   A    
C161  H12   S    
C41   O30   A    
O96   Zn11  S    
C163  C169  A    
C167  H18   S    
C42   O84   A    
C138  C139  A    
C199  H44   S    
C197  H42   S    
C6    C34   S    
C23   C25   S    
C4    C37   S    
O74   Zn32  S    
C177  C178  A    
C170  C171  A    
C239  O97   A    
C117  H134  S    
O83   Zn4   S    
O50   Zn25  S    
C44   O86   A    
C201  H100  S    
C135  C255  S    
C127  H143  S    
C180  C181  A    
O65   Zn1   S    
C128  H144  S    
C171  C172  A    
C165  C166  A    
O104  Zn20  S    
C70   C78   T    
C59   C99   S    
C122  H140  S    
C163  C164  A    
C183  C184  A    
C170  C276  S    
C212  H101  S    
C40   O81   A    
C205  C206  A    
C168  C201  S    
O71   Zn3   S    
C223  O8    A    
C188  H36   S    
C46   C236  S    
C75   C84   T    
C215  H58   S    
O15   Zn8   S    
C196  C271  S    
O38   Zn25  S    
C203  C270  S    
O39   Zn29  S    
C237  C290  T    
C34   O23   A    
C13   O16   A    
O66   Zn12  S    
C48   O89   A    
C164  H15   S    
C55   C103  S    
C196  C197  A    
O79   Zn27  S    
C116  C117  S    
C144  H157  S    
C227  C228  A    
C58   C96   S    
C177  H26   S    
C145  H158  S    
C105  H123  S    
C174  C175  A    
C101  H72   S    
C106  H124  S    
C60   O53   A    
C119  C263  S    
C5    C22   T    
C159  C160  A    
O59   Zn31  S    
C132  C133  A    
C120  C264  S    
C37   O78   A    
C38   O79   A    
C283  O101  A    
C37   O25   A    
C198  C199  A    
C106  H57   S    
C39   O80   A    
C223  C244  S    
C135  H76   S    
O103  Zn19  S    
C154  H7    S    
C135  C146  S    
C209  C269  S    
C156  C162  A    
O3    Zn21  S    
C123  C129  A    
C281  H108  S    
C79   C249  S    
C282  H107  S    
O42   Zn10  S    
C159  H10   S    
C207  H51   S    
C71   C80   T    
C244  C297  T    
C118  H106  S    
C276  C279  S    
O48   Zn17  S    
C229  H69   S    
C105  C108  S    
C157  C257  S    
C61   O58   A    
C283  O13   A    
O61   Zn19  S    
C195  H41   S    
C148  C149  A    
C178  H27   S    
C214  C215  A    
C134  C136  A    
O61   Zn2   S    
C281  C282  S    
C157  H78   S    
C53   O42   A    
O5    Zn24  S    
O68   Zn8   S    
C90   C101  S    
C16   C33   T    
O70   Zn6   S    
C85   C94   S    
C213  H55   S    
C259  C291  S    
O18   Zn6   S    
C120  H137  S    
C225  C226  A    
C118  H135  S    
C152  C153  A    
C79   H88   S    
C265  C286  S    
O26   Zn13  S    
O78   Zn23  S    
C176  C177  A    
C211  C213  A    
C77   C86   T    
C203  C204  A    
O93   Zn9   S    
C284  H105  S    
C277  H112  S    
C196  C202  A    
C79   H70   S    
C112  O95   A    
O50   Zn7   S    
C92   C100  T    
O9    Zn29  S    
C246  C250  S    
C119  C122  S    
C192  H38   S    
C225  H64   S    
C63   O63   A    
C201  H82   S    
C146  C256  S    
C264  C287  S    
C50   O91   A    
O101  Zn17  S    
C280  C284  S    
C117  H117  S    
C12   C45   S    
C115  C258  S    
C94   C103  T    
C132  H147  S    
C238  C291  T    
C113  H91   S    
C65   O74   A    
C137  C138  A    
C160  C161  A    
C294  O14   A    
C233  C294  S    
C270  H119  S    
C130  C282  S    
C68   C238  S    
C141  C142  A    
C4    C21   T    
C60   O55   A    
C218  C219  A    
C125  C126  A    
C179  C190  S    
C36   O77   A    
C6    C23   T    
C51   O92   A    
C272  O12   A    
O83   Zn6   S    
O33   Zn19  S    
C265  C268  S    
O52   Zn20  S    
C57   C240  S    
C266  C267  S    
C107  H46   S    
O1    Zn9   S    
C11   C29   T    
C83   C92   S    
C210  C211  A    
O8    Zn28  S    
C67   C76   S    
C110  H129  S    
C153  C154  A    
C202  H47   S    
O72   Zn5   S    
C127  C128  A    
C142  H156  S    
C230  C265  S    
C273  C274  S    
