data_mof_unit_52964.cif
_audit_creation_date              2012-12-11T15:42:47-0500
_audit_creation_method            fapswitch 2.2
_symmetry_space_group_name_H-M    P1
_symmetry_Int_Tables_number       1
_space_group_crystal_system       triclinic
_cell_length_a                    6.927562
_cell_length_b                    14.570294
_cell_length_c                    16.184655
_cell_angle_alpha                 90.405224
_cell_angle_beta                  89.838117
_cell_angle_gamma                 89.940452
_cell_volume                      1633.57599756

loop_
_atom_site_label
_atom_site_type_symbol
_atom_type_description
_atom_site_fract_x
_atom_site_fract_y
_atom_site_fract_z
_atom_type_partial_charge
O1    O     O_R   0.505810 0.583360 0.413880 -0.540527
O2    O     O_R   0.175870 0.595480 0.585520 -0.543181
O3    O     O_R   0.005540 0.416640 0.586120 -0.541163
C1    C     C_R   0.344508 0.616936 0.615028 0.694788
O4    O     O_R   0.176100 0.594390 0.414490 -0.543710
O5    O     O_R   0.005770 0.415540 0.413870 -0.541308
C2    C     C_R   0.345254 0.616263 0.385528 0.686078
O6    O     O_R   0.505580 0.584460 0.586130 -0.540382
O7    O     O_3   0.339190 0.441320 0.500000 -0.369525
V1    V     V_3+5 0.064350 0.510890 0.500000 1.399080
O8    O     O_R   0.676050 0.404520 0.414480 -0.544182
C3    C     C_R   0.845289 0.382101 0.385700 0.684991
O9    O     O_R   0.675830 0.405610 0.585510 -0.540507
C4    C     C_R   0.844998 0.383701 0.613765 0.745410
V2    V     V_3+5 0.564340 0.489110 0.500000 1.401336
O10   O     O_3   0.839370 0.558680 0.500000 -0.370675
C5    C     C_2   0.720412 0.209035 0.786225 -0.129781
C6    C     C_2   0.885823 0.181837 0.822574 -0.313355
H1    H     H_    0.584328 0.180388 0.807244 0.137362
H2    H     H_    0.023610 0.209794 0.803694 0.127616
C7    C     C_2   0.707913 0.277514 0.718311 -0.136558
C8    C     C_2   0.861521 0.315519 0.680572 -0.310422
H3    H     H_    0.563709 0.296579 0.698568 0.134546
H4    H     H_    0.006873 0.297155 0.698461 0.129426
C9    C     C_R   0.047404 0.222887 0.219129 -0.156400
H5    H     H_    0.188280 0.204204 0.195206 0.117201
C10   C     C_R   0.036333 0.286889 0.283921 -0.152284
H6    H     H_    0.169165 0.315705 0.307752 0.118638
C11   C     C_R   0.856610 0.313356 0.317307 -0.045636
C12   C     C_R   0.688258 0.274088 0.284013 -0.156434
H7    H     H_    0.547383 0.292775 0.307935 0.116906
C13   C     C_R   0.699329 0.210085 0.219221 -0.151779
H8    H     H_    0.566498 0.181273 0.195386 0.119180
C14   C     C_R   0.879057 0.183597 0.185854 -0.046523
C15   C     C_R   0.202112 0.740905 0.706174 -0.168918
H9    H     H_    0.071616 0.740576 0.669471 0.125494
C16   C     C_R   0.216436 0.802400 0.772723 -0.183420
H10   H     H_    0.096424 0.848397 0.784437 0.122248
C17   C     C_R   0.383285 0.806294 0.822440 -0.066365
C18   C     C_R   0.537241 0.743630 0.804523 0.085312
C19   C     C_R   0.521410 0.684091 0.735836 -0.172753
H11   H     H_    0.638299 0.636866 0.722056 0.115698
C20   C     C_R   0.355751 0.682168 0.686106 -0.067146
C21   C     C_R   0.188344 0.722947 0.283625 -0.156314
H12   H     H_    0.047508 0.705132 0.307809 0.116472
C22   C     C_R   0.199494 0.785930 0.218769 -0.152880
H13   H     H_    0.066707 0.814801 0.195169 0.118646
C23   C     C_R   0.379195 0.811529 0.185171 -0.045498
C24   C     C_R   0.547342 0.771807 0.217893 -0.158385
H14   H     H_    0.688130 0.789451 0.193535 0.118325
C25   C     C_R   0.536184 0.708837 0.282774 -0.152513
H15   H     H_    0.668930 0.679813 0.306250 0.118247
C26   C     C_R   0.356555 0.683704 0.316767 -0.046283
O11   O     O_R   0.230120 0.912300 0.917180 -0.541543
O12   O     O_R   0.559740 0.902430 0.088770 -0.542193
O13   O     O_R   0.729930 0.081310 0.089370 -0.539872
C27   C     C_R   0.390547 0.879923 0.117243 0.679333
O14   O     O_R   0.559840 0.901330 0.917750 -0.541869
O15   O     O_R   0.730030 0.080210 0.917120 -0.535821
C28   C     C_R   0.391598 0.876975 0.890183 0.680165
O16   O     O_R   0.230020 0.913400 0.089430 -0.542065
O17   O     O_3   0.396460 0.055470 0.003290 -0.366295
V3    V     V_3+5 0.671360 0.985960 0.003250 1.391621
O18   O     O_R   0.059740 0.091300 0.917690 -0.543687
C29   C     C_R   0.891074 0.113242 0.889455 0.746998
O19   O     O_R   0.059640 0.092400 0.088720 -0.543175
C30   C     C_R   0.890396 0.114805 0.117500 0.688698
V4    V     V_3+5 0.171350 0.007820 0.003190 1.389980
O20   O     O_3   0.896380 0.938200 0.003220 -0.375947
C31   C     C_3   0.717780 0.734797 0.857185 -0.359372
C32   C     C_3   0.672064 0.693353 0.942038 -0.282987
C33   C     C_3   0.853792 0.685178 0.994645 -0.749445
H16   H     H_    0.960942 0.639637 0.963718 0.219800
H17   H     H_    0.919432 0.753753 0.004955 0.241056
H18   H     H_    0.816065 0.655534 0.055614 0.208285
H19   H     H_    0.565122 0.736039 0.976077 0.187463
H20   H     H_    0.608835 0.623861 0.933315 0.185683
H21   H     H_    0.824849 0.689063 0.826186 0.163111
H22   H     H_    0.792784 0.801621 0.863044 0.193884

loop_
_geom_bond_atom_site_label_1
_geom_bond_atom_site_label_2
_ccdc_geom_bond_type
O19   V4    S    
C3    C11   S    
C10   C11   A    
C19   H11   S    
C15   H9    S    
C1    O6    A    
C23   C27   S    
O11   C28   A    
C6    C29   S    
C11   C12   A    
C18   C31   S    
O18   V4    S    
C15   C16   A    
O5    C3    A    
C32   H19   S    
C31   H21   S    
O14   C28   A    
V2    O10   S    
O8    V2    S    
C21   C26   A    
V3    O20   S    
V4    O20   S    
C24   C25   A    
O12   V3    S    
C31   C32   S    
O1    V2    S    
C15   C20   A    
O7    V1    S    
C9    C14   A    
O19   C30   A    
C7    C8    D    
C19   C20   A    
C33   H18   S    
C21   C22   A    
C22   C23   A    
C25   H15   S    
C33   H17   S    
C17   C18   A    
O4    C2    A    
C9    H5    S    
C5    C7    S    
C25   C26   A    
C13   C14   A    
O2    C1    A    
C16   H10   S    
O17   V3    S    
C5    C6    D    
O13   V3    S    
O12   C27   A    
O3    C4    A    
C23   C24   A    
O6    V2    S    
O9    V2    S    
C8    H4    S    
C2    C26   S    
O2    V1    S    
C32   H20   S    
C21   H12   S    
O14   V3    S    
C22   H13   S    
C18   C19   A    
C31   H22   S    
O1    C2    A    
C33   H16   S    
C14   C30   S    
O5    V1    S    
O8    C3    A    
C27   O16   A    
C1    C20   S    
C9    C10   A    
O13   C30   A    
O15   V3    S    
O17   V4    S    
C13   H8    S    
C4    C8    S    
C7    H3    S    
O7    V2    S    
O4    V1    S    
C16   C17   A    
O3    V1    S    
V1    O10   S    
O18   C29   A    
C12   C13   A    
O16   V4    S    
C12   H7    S    
C17   C28   S    
C5    H1    S    
C6    H2    S    
C32   C33   S    
O11   V4    S    
C24   H14   S    
C10   H6    S    
O9    C4    A    
O15   C29   A    
