data_mof_unit_30296.cif
_audit_creation_date              2012-12-10T16:48:00-0500
_audit_creation_method            fapswitch 2.2
_symmetry_space_group_name_H-M    P1
_symmetry_Int_Tables_number       1
_space_group_crystal_system       triclinic
_cell_length_a                    7.772691
_cell_length_b                    8.604829
_cell_length_c                    10.704316
_cell_angle_alpha                 90.997006
_cell_angle_beta                  85.582699
_cell_angle_gamma                 93.623939
_cell_volume                      712.322833934

loop_
_atom_site_label
_atom_site_type_symbol
_atom_type_description
_atom_site_fract_x
_atom_site_fract_y
_atom_site_fract_z
_atom_type_partial_charge
C1    C     C_R   0.545219 0.794673 0.500232 0.974619
C2    C     C_2   0.566720 0.958237 0.501694 -0.524533
C3    C     C_3   0.239799 0.990887 0.694832 -0.267024
C4    C     C_2   0.429119 0.044533 0.526518 0.346189
C5    C     C_R   0.501358 0.497984 0.737217 0.904659
C6    C     C_R   0.454325 0.205979 0.507797 0.848659
C7    C     C_R   0.499728 0.506448 0.262681 0.932127
C8    C     C_2   0.647798 0.519060 0.058609 -0.155308
C9    C     C_2   0.501199 0.529462 0.131474 -0.334823
C10   C     C_2   0.647463 0.526459 0.924320 -0.166745
C11   C     C_2   0.502865 0.488334 0.868793 -0.326649
H1    H     H_    0.770613 0.502320 0.096995 0.175721
H2    H     H_    0.108867 0.939236 0.724236 0.179248
H3    H     H_    0.380545 0.558869 0.095958 0.149719
H4    H     H_    0.768453 0.559386 0.870782 0.165117
H5    H     H_    0.382358 0.447845 0.919011 0.144338
H6    H     H_    0.696282 0.008467 0.476020 0.170605
H7    H     H_    0.013611 0.381923 0.406718 0.196101
H8    H     H_    0.986422 0.618082 0.593313 0.196617
H9    H     H_    0.247589 0.113529 0.729803 0.148149
H10   H     H_    0.335132 0.922235 0.738977 0.149568
N1    N     N_2   0.950320 0.457950 0.466680 -0.170616
N2    N     N_2   0.049680 0.542050 0.533320 -0.163203
O1    O     O_R   0.389250 0.738570 0.508180 -0.543442
O2    O     O_R   0.678390 0.711630 0.486820 -0.629785
O3    O     O_R   0.355470 0.513470 0.691600 -0.631068
O4    O     O_R   0.644610 0.486520 0.670240 -0.623861
O5    O     O_R   0.321610 0.288370 0.513180 -0.599391
O6    O     O_R   0.610750 0.261430 0.491820 -0.645033
O7    O     O_R   0.355390 0.513480 0.329760 -0.629537
O8    O     O_R   0.644530 0.486530 0.308400 -0.615763
O9    O     O_3   0.263450 0.983414 0.562940 -0.567932
Zn1   Zn    Zn3+2 0.306940 0.517990 0.514260 0.970516
Zn2   Zn    Zn3+2 0.693060 0.482010 0.485740 0.942761

loop_
_geom_bond_atom_site_label_1
_geom_bond_atom_site_label_2
_ccdc_geom_bond_type
C2    C4    D    
C9    H3    S    
C11   H5    S    
O3    Zn1   S    
H8    N2    S    
O1    Zn1   S    
C3    H2    S    
O2    Zn2   S    
C8    H1    S    
O8    Zn2   S    
C3    H9    S    
C7    O7    A    
C5    O4    A    
C2    H6    S    
C1    O2    A    
C4    O9    S    
C8    C10   S    
O5    Zn1   S    
C5    C11   S    
C10   H4    S    
O4    Zn2   S    
C3    O9    S    
N1    Zn2   S    
C3    H10   S    
C7    O8    A    
C10   C11   D    
C5    O3    A    
C6    O6    A    
C1    O1    A    
C4    C6    S    
C1    C2    S    
C7    C9    S    
N1    N2    D    
O7    Zn1   S    
H7    N1    S    
O6    Zn2   S    
C6    O5    A    
C8    C9    D    
N2    Zn1   S    
