data_mof_unit_11492.cif
_audit_creation_date              2012-12-10T16:47:50-0500
_audit_creation_method            fapswitch 2.2
_symmetry_space_group_name_H-M    P1
_symmetry_Int_Tables_number       1
_space_group_crystal_system       triclinic
_cell_length_a                    7.87723
_cell_length_b                    8.557768
_cell_length_c                    10.688354
_cell_angle_alpha                 92.739076
_cell_angle_beta                  84.000444
_cell_angle_gamma                 93.454559
_cell_volume                      714.64450959

loop_
_atom_site_label
_atom_site_type_symbol
_atom_type_description
_atom_site_fract_x
_atom_site_fract_y
_atom_site_fract_z
_atom_type_partial_charge
C1    C     C_R   0.545187 0.794304 0.496920 0.998114
C2    C     C_2   0.569052 0.957852 0.495484 -0.282169
C3    C     C_2   0.431302 0.042186 0.502504 -0.358815
C4    C     C_R   0.500076 0.506554 0.737330 0.961531
C5    C     C_R   0.454849 0.205726 0.502478 0.923987
C6    C     C_R   0.502524 0.505387 0.262950 0.952874
C7    C     C_2   0.643774 0.568519 0.057007 0.430134
C8    C     C_2   0.509149 0.505623 0.129914 -0.418529
C9    C     C_2   0.646293 0.542847 0.922532 -0.191876
C10   C     C_2   0.500617 0.536852 0.869137 -0.354241
H1    H     H_    0.403502 0.440069 0.090561 0.144389
H2    H     H_    0.768915 0.528355 0.867860 0.210273
H3    H     H_    0.379456 0.563032 0.922022 0.174061
H4    H     H_    0.699514 0.008432 0.489240 0.215970
H5    H     H_    0.301033 0.991845 0.507969 0.229890
H6    H     H_    0.006908 0.362903 0.420964 0.165747
H7    H     H_    0.003683 0.710245 0.949194 0.369927
H8    H     H_    0.121795 0.899534 0.716965 0.366323
N1    N     N_2   0.950320 0.457950 0.466680 -0.106992
N2    N     N_2   0.049680 0.542050 0.533320 0.103514
O1    O     O_R   0.389250 0.738570 0.508180 -0.572870
O2    O     O_2   0.940505 0.575504 0.161829 -0.296928
O3    O     O_3   0.924271 0.783759 0.995088 -0.501291
O4    O     O_2   0.993797 0.836542 0.493912 -0.290654
O5    O     O_2   0.835486 0.724319 0.682471 -0.303714
O6    O     O_3   0.152341 0.792060 0.688394 -0.542238
O7    O     O_R   0.678390 0.711630 0.486820 -0.518425
O8    O     O_R   0.355470 0.513470 0.691600 -0.597778
O9    O     O_R   0.644610 0.486520 0.670240 -0.591396
O10   O     O_R   0.321610 0.288370 0.513180 -0.648263
O11   O     O_R   0.610750 0.261430 0.491820 -0.630316
O12   O     O_R   0.355390 0.513480 0.329760 -0.619306
O13   O     O_R   0.644530 0.486530 0.308400 -0.560590
O14   O     O_2   0.756780 0.794550 0.216921 -0.260514
S1    S     S_3+6 0.819377 0.681499 0.112837 0.071505
S2    S     S_3+6 0.999165 0.725312 0.597918 0.147526
Zn1   Zn    Zn3+2 0.306940 0.517990 0.514260 1.076739
Zn2   Zn    Zn3+2 0.693060 0.482010 0.485740 1.104398

loop_
_geom_bond_atom_site_label_1
_geom_bond_atom_site_label_2
_ccdc_geom_bond_type
O9    Zn2   S    
C6    O12   A    
O11   Zn2   S    
C1    O1    A    
O2    S1    D    
N1    Zn2   S    
C9    C10   D    
C4    O9    A    
H8    O6    S    
C6    O13   A    
N1    N2    D    
C2    C3    D    
C3    H5    S    
C7    C8    D    
H7    O3    S    
O12   Zn1   S    
N2    Zn1   S    
O4    S2    D    
O8    Zn1   S    
C8    H1    S    
C1    C2    S    
O6    S2    S    
C4    O8    A    
C5    O10   A    
O3    S1    S    
H6    N1    S    
C2    H4    S    
C9    H2    S    
O5    S2    D    
C4    C10   S    
N2    S2    S    
O1    Zn1   S    
C7    C9    S    
O14   S1    D    
C1    O7    A    
C6    C8    S    
O7    Zn2   S    
C3    C5    S    
C7    S1    S    
O13   Zn2   S    
O10   Zn1   S    
C5    O11   A    
C10   H3    S    
