data_mof_unit_48479.cif
_audit_creation_date              2013-03-05T15:45:31-0500
_audit_creation_method            fapswitch 2.2
_symmetry_space_group_name_H-M    P1
_symmetry_Int_Tables_number       1
_space_group_crystal_system       triclinic
_cell_length_a                    9.798304
_cell_length_b                    10.94555
_cell_length_c                    13.512414
_cell_angle_alpha                 94.043072
_cell_angle_beta                  81.672917
_cell_angle_gamma                 110.971676
_cell_volume                      1338.64041884

loop_
_atom_site_label
_atom_site_type_symbol
_atom_site_description
_atom_site_fract_x
_atom_site_fract_y
_atom_site_fract_z
_atom_type_partial_charge
O1    O     O_R   0.426290 0.668220 0.490680 -0.603098
O2    O     O_R   0.659360 0.703290 0.520190 -0.525531
C1    C     C_R   0.555444 0.746583 0.508951 0.747103
O3    O     O_R   0.326580 0.473880 0.629020 -0.502564
O4    O     O_R   0.559660 0.508940 0.658530 -0.605628
C2    C     C_R   0.420639 0.474068 0.689766 0.889203
Cu1   Cu    Cu3+1 0.362000 0.479240 0.482530 1.025658
Cu2   Cu    Cu3+1 0.638000 0.520760 0.517470 1.095647
O5    O     O_R   0.340640 0.296710 0.479810 -0.569847
O6    O     O_R   0.573710 0.331780 0.509320 -0.509306
O7    O     O_R   0.440340 0.491060 0.341470 -0.604651
O8    O     O_R   0.673420 0.526120 0.370980 -0.480255
C3    C     C_R   0.443018 0.253689 0.494530 0.785265
C4    C     C_R   0.578605 0.513139 0.309578 0.860536
C5    C     C_R   0.814032 0.540242 0.056384 0.362125
C6    C     C_R   0.627214 0.519269 0.200826 -0.132778
C7    C     C_R   0.222701 0.390257 0.836025 0.345570
C8    C     C_R   0.181329 0.371803 0.940422 0.384350
C9    C     C_R   0.288994 0.411225 0.004779 -0.203162
C10   C     C_R   0.440895 0.452434 0.968409 0.032991
C11   C     C_R   0.480555 0.449312 0.863805 -0.039589
C12   C     C_R   0.553908 0.487581 0.032736 0.017734
C13   C     C_R   0.704253 0.514410 0.991845 -0.048429
C14   C     C_R   0.739193 0.507029 0.887259 0.340001
C15   C     C_R   0.625967 0.457013 0.828711 -0.165289
C16   C     C_R   0.521323 0.499363 0.136617 -0.298700
C17   C     C_R   0.773753 0.536906 0.161170 0.320779
C18   C     C_R   0.373744 0.437032 0.797662 -0.132560
H1    H     H_    0.412461 0.492691 0.169915 0.183478
H2    H     H_    0.248509 0.397464 0.083165 0.170983
H3    H     H_    0.656436 0.422852 0.755357 0.241378
H4    H     H_    0.351061 0.850855 0.544688 0.167213
C19   C     C_2   0.581083 0.887706 0.519498 0.173156
C20   C     C_2   0.461555 0.923791 0.539775 -0.239922
C21   C     C_2   0.412511 0.111915 0.492249 0.173806
C22   C     C_2   0.469295 0.059728 0.556464 0.378176
H5    H     H_    0.134717 0.599368 0.548371 0.163694
N1    N     N_2   0.845330 0.551960 0.543750 -0.275452
C23   C     C_2   0.921941 0.492927 0.486742 0.560633
H6    H     H_    0.100812 0.365136 0.416841 0.225657
N2    N     N_2   0.154690 0.448120 0.456210 -0.280440
C24   C     C_2   0.080799 0.518985 0.499419 -0.088882
H7    H     H_    0.897599 0.619904 0.595489 0.202114
O9    O     O_3   0.875229 0.548542 0.225613 -0.703312
H8    H     H_    0.947897 0.509672 0.193062 0.336289
O10   O     O_3   0.336342 0.032721 0.419012 -0.715651
H9    H     H_    0.309872 0.087995 0.375641 0.345735
N3    N     N_R   0.729466 0.982397 0.506942 0.160487
O11   O     O_R   0.839296 0.951725 0.526373 -0.294559
O12   O     O_R   0.757543 0.095194 0.467297 -0.317053
O13   O     O_3   0.853968 0.406322 0.414409 -0.628321
H10   H     H_    0.929809 0.400309 0.359477 0.311512
N4    N     N_R   0.887399 0.560433 0.837188 0.163197
O14   O     O_R   0.925938 0.505176 0.754926 -0.385135
O15   O     O_R   0.966168 0.681646 0.855686 -0.299693
O16   O     O_3   0.957925 0.559453 0.016585 -0.653741
H11   H     H_    0.024517 0.623605 0.059674 0.343839
O17   O     O_3   0.119771 0.361240 0.769833 -0.650589
H12   H     H_    0.020215 0.342779 0.806712 0.378657
O18   O     O_3   0.036890 0.316228 0.982932 -0.690988
H13   H     H_    0.986766 0.241494 0.939633 0.337376
N5    N     N_R   0.525324 0.129300 0.645240 0.121908
O19   O     O_R   0.456768 0.199618 0.697024 -0.413297
O20   O     O_R   0.620817 0.099007 0.686425 -0.287832

loop_
_geom_bond_atom_site_label_1
_geom_bond_atom_site_label_2
_geom_bond_distance
_ccdc_geom_bond_type
C15   H3    1.073932 S    
O4    Cu2   1.943943 S    
C23   O13   1.379645 S    
C13   C14   1.408695 A    
C14   C15   1.383758 A    
N5    O19   1.300473 A    
C2    C18   1.502330 S    
N2    C24   1.297076 D    
C5    C17   1.413152 A    
C21   C22   1.351290 D    
C9    H2    1.076999 S    
N5    O20   1.301553 A    
C7    O17   1.382003 S    
Cu2   O8    1.960833 S    
C5    O16   1.380364 S    
C6    C17   1.406891 A    
N3    O12   1.301694 A    
O2    C1    1.297950 A    
C14   N4    1.439382 S    
N1    H7    1.030478 S    
N4    O14   1.300403 A    
O16   H11   0.991075 S    
Cu1   O7    1.943944 S    
C7    C18   1.412080 A    
C12   C13   1.427974 A    
N1    C23   1.297661 D    
Cu2   N1    2.016158 S    
O3    Cu1   1.960835 S    
C22   N5    1.443241 S    
C8    O18   1.378588 S    
H6    N2    1.027949 S    
C11   C18   1.437175 A    
C19   C20   1.351160 D    
C3    C21   1.470461 S    
C23   C24   1.511967 S    
C20   C22   1.465380 S    
N4    O15   1.301749 A    
C6    C16   1.396073 A    
O4    C2    1.289709 A    
O7    C4    1.300275 A    
C4    C6    1.476179 S    
O3    C2    1.319345 A    
C5    C13   1.420115 A    
C1    C19   1.473421 S    
O13   H10   0.987863 S    
O8    C4    1.297614 A    
Cu1   Cu2   2.683779 S    
C10   C11   1.411966 A    
C16   H1    1.074903 S    
C7    C8    1.418094 A    
C8    C9    1.393659 A    
C12   C16   1.401077 A    
H5    C24   1.084972 S    
Cu1   O5    1.931137 S    
C19   N3    1.446209 S    
C11   C15   1.409245 A    
O10   H9    0.991506 S    
N3    O11   1.301008 A    
O5    C3    1.294874 A    
O17   H12   0.986423 S    
O1    Cu1   1.934645 S    
C21   O10   1.384766 S    
C17   O9    1.381160 S    
Cu2   O6    1.934647 S    
O2    Cu2   1.931135 S    
O9    H8    0.990548 S    
C9    C10   1.413881 A    
Cu1   N2    2.016314 S    
C10   C12   1.434018 A    
O18   H13   0.990363 S    
O1    C1    1.296829 A    
O6    C3    1.294951 A    
H4    C20   1.087119 S    
