data_mof_unit_23256.cif
_audit_creation_date              2012-12-10T21:00:36-0500
_audit_creation_method            fapswitch 2.2
_symmetry_space_group_name_H-M    P1
_symmetry_Int_Tables_number       1
_space_group_crystal_system       triclinic
_cell_length_a                    18.147199
_cell_length_b                    18.203361
_cell_length_c                    18.292006
_cell_angle_alpha                 119.941354
_cell_angle_beta                  89.774853
_cell_angle_gamma                 120.117832
_cell_volume                      4277.25830885

loop_
_atom_site_label
_atom_site_type_symbol
_atom_type_description
_atom_site_fract_x
_atom_site_fract_y
_atom_site_fract_z
_atom_type_partial_charge
C1    C     C_R   0.107130 0.220128 0.609888 0.824825
C2    C     C_3   0.450898 0.897249 0.948201 -0.059123
C3    C     C_3   0.219593 0.109603 0.226642 -0.812909
C4    C     C_3   0.349058 0.998001 0.879453 0.094670
C5    C     C_3   0.258506 0.948908 0.817555 -0.846894
C6    C     C_3   0.650733 0.002338 0.121494 0.083622
C7    C     C_3   0.742073 0.050913 0.181631 -0.833245
C8    C     C_3   0.450330 0.031496 0.043930 -0.304794
C9    C     C_3   0.549769 0.968535 0.956222 -0.303507
C10   C     C_3   0.413050 0.433564 0.448391 -0.152928
C11   C     C_3   0.586956 0.566449 0.551615 -0.152767
C12   C     C_3   0.479732 0.403839 0.445868 -0.183663
C13   C     C_3   0.520273 0.596173 0.554138 -0.183562
C14   C     C_3   0.550661 0.499836 0.449209 0.075323
C15   C     C_3   0.449344 0.500176 0.550795 0.074941
C16   C     C_3   0.484879 0.529548 0.450843 -0.184557
C17   C     C_R   0.891918 0.780136 0.390270 0.832289
C18   C     C_3   0.515126 0.470464 0.549162 -0.184980
C19   C     C_R   0.134156 0.180937 0.839316 -0.136475
C20   C     C_R   0.862908 0.816860 0.159646 -0.137806
C21   C     C_R   0.392952 0.781075 0.888484 0.820388
C22   C     C_R   0.607064 0.218933 0.111560 0.820059
C23   C     C_R   0.122480 0.138730 0.748580 -0.101740
C24   C     C_R   0.871796 0.857807 0.249821 -0.087419
C25   C     C_R   0.041782 0.099219 0.690792 0.258766
C26   C     C_R   0.952967 0.902408 0.310467 0.267417
C27   C     C_R   0.973367 0.102778 0.725069 -0.128491
C28   C     C_3   0.921464 0.405229 0.449282 -0.177891
C29   C     C_R   0.024511 0.904551 0.279461 -0.126079
C30   C     C_R   0.985454 0.145282 0.815874 -0.171453
C31   C     C_R   0.015009 0.862675 0.189098 -0.171861
C32   C     C_R   0.065808 0.184362 0.872971 -0.098860
C33   C     C_R   0.934308 0.819065 0.129254 -0.100321
C34   C     C_R   0.986495 0.946051 0.537926 0.445655
C35   C     C_R   0.004389 0.054479 0.462799 0.443744
C36   C     C_R   0.950363 0.893007 0.445134 -0.249490
C37   C     C_R   0.043297 0.107748 0.555552 -0.263915
C38   C     C_R   0.965298 0.948615 0.407039 -0.190510
C39   C     C_3   0.078094 0.594258 0.550681 -0.167729
C40   C     C_R   0.026754 0.052107 0.593759 -0.202387
C41   C     C_R   0.651181 0.657105 0.827677 -0.262407
C42   C     C_R   0.348759 0.342979 0.172204 -0.262471
C43   C     C_R   0.599602 0.591046 0.853010 -0.147933
C44   C     C_R   0.400471 0.408839 0.146741 -0.147237
C45   C     C_R   0.112236 0.501954 0.890956 0.782596
C46   C     C_R   0.887810 0.498100 0.109092 0.784241
C47   C     C_R   0.597828 0.632177 0.940901 0.171180
C48   C     C_R   0.402072 0.367482 0.058791 0.171801
C49   C     C_R   0.650582 0.740058 0.003816 -0.281659
C50   C     C_3   0.428657 0.965137 0.941844 0.591491
C51   C     C_R   0.348970 0.259580 0.995937 -0.281759
C52   C     C_R   0.703253 0.805944 0.978973 -0.212907
C53   C     C_R   0.296154 0.193885 0.020901 -0.214366
C54   C     C_R   0.703007 0.766429 0.890792 0.571727
C55   C     C_R   0.296580 0.233620 0.109151 0.571611
C56   C     C_R   0.593640 0.562255 0.026054 -0.271849
C57   C     C_R   0.406257 0.437027 0.973312 -0.271607
C58   C     C_R   0.549813 0.499941 0.056548 -0.052995
C59   C     C_R   0.450117 0.499623 0.943066 -0.053293
C60   C     C_R   0.454660 0.436490 0.030360 0.002480
C61   C     C_3   0.571456 0.034918 0.058311 0.592987
C62   C     C_R   0.545257 0.562977 0.969167 0.002658
C63   C     C_R   0.235875 0.848798 0.052020 -0.141338
C64   C     C_R   0.764425 0.151299 0.948050 -0.141485
C65   C     C_R   0.189454 0.756750 0.046935 -0.144033
C66   C     C_R   0.810858 0.243209 0.952909 -0.146526
C67   C     C_R   0.097248 0.681628 0.997464 0.156343
C68   C     C_R   0.902950 0.318614 0.002766 0.154843
C69   C     C_R   0.392358 0.500093 0.607760 0.767625
C70   C     C_R   0.607643 0.499911 0.392241 0.766645
C71   C     C_R   0.052063 0.699876 0.953552 -0.155381
C72   C     C_3   0.526644 0.036844 0.949233 -0.367547
C73   C     C_R   0.948019 0.300806 0.047303 -0.155263
C74   C     C_R   0.099090 0.791519 0.957895 -0.134072
C75   C     C_R   0.900985 0.209286 0.043157 -0.133562
C76   C     C_R   0.190983 0.865934 0.007058 -0.056079
C77   C     C_R   0.809203 0.134579 0.993599 -0.054834
C78   C     C_R   0.989451 0.580718 0.045733 -0.264695
C79   C     C_R   0.010735 0.419510 0.954479 -0.265972
C80   C     C_R   0.943041 0.495958 0.051353 -0.049057
C81   C     C_R   0.057102 0.504219 0.948801 -0.048993
C82   C     C_R   0.953240 0.413746 0.004600 -0.007727
C83   C     C_3   0.473464 0.963183 0.050914 -0.367931
C84   C     C_R   0.046934 0.586462 0.995583 -0.008177
C85   C     C_R   0.394076 0.499377 0.887924 0.796382
C86   C     C_R   0.605907 0.500532 0.111992 0.795986
C87   C     C_R   0.108713 0.499849 0.607580 0.765744
C88   C     C_R   0.891153 0.500000 0.392418 0.768464
C89   C     C_3   0.015967 0.429138 0.447668 -0.138552
C90   C     C_3   0.983597 0.570331 0.552305 -0.130939
C91   C     C_3   0.042526 0.524041 0.447229 -0.179144
C92   C     C_3   0.957047 0.475418 0.552732 -0.182197
C93   C     C_3   0.948832 0.500066 0.449583 0.060373
C94   C     C_3   0.549185 0.102776 0.051931 -0.059223
C95   C     C_3   0.050770 0.499468 0.550393 0.054114
C96   C     C_3   0.066723 0.907771 0.591594 0.076186
C97   C     C_3   0.056219 0.805733 0.527231 -0.290853
C98   C     C_3   0.145155 0.817919 0.543961 -1.029143
C99   C     C_3   0.957399 0.144923 0.448383 0.163052
C100  C     C_3   0.860218 0.063868 0.384347 -0.408642
C101  C     C_3   0.805756 0.109778 0.405622 -0.986762
C102  C     C_3   0.732713 0.800376 0.782213 0.073500
C103  C     C_3   0.779300 0.890980 0.773692 -0.810002
C104  C     C_3   0.266660 0.200032 0.217915 0.074800
H1    H     H_    0.076775 0.543883 0.403043 0.129189
H2    H     H_    0.087557 0.938690 0.325363 0.113800
H3    H     H_    0.932456 0.147712 0.841933 0.145556
H4    H     H_    0.070281 0.864323 0.165514 0.145676
H5    H     H_    0.650867 0.621926 0.759378 0.112955
H6    H     H_    0.349251 0.378358 0.240557 0.112914
H7    H     H_    0.560831 0.507795 0.804132 0.122689
H8    H     H_    0.439471 0.492119 0.195564 0.122924
H9    H     H_    0.651590 0.773177 0.072457 0.144719
H10   H     H_    0.347806 0.226303 0.927248 0.143806
H11   H     H_    0.029728 0.370858 0.405237 0.143813
H12   H     H_    0.922762 0.455417 0.596832 0.131143
H13   H     H_    0.969801 0.628529 0.594855 0.143171
H14   H     H_    0.744911 0.888932 0.028752 0.156837
H15   H     H_    0.254241 0.110875 0.971149 0.156651
H16   H     H_    0.666552 0.609954 0.045228 0.174387
H17   H     H_    0.333299 0.389036 0.953905 0.175446
H18   H     H_    0.227185 0.937181 0.010931 0.148994
H19   H     H_    0.772995 0.063435 0.989891 0.149388
H20   H     H_    0.306404 0.907239 0.091601 0.127103
H21   H     H_    0.693972 0.092658 0.908219 0.127027
H22   H     H_    0.224883 0.744508 0.082322 0.106120
H23   H     H_    0.075059 0.217193 0.943242 0.131044
H24   H     H_    0.775521 0.255150 0.917092 0.106397
H25   H     H_    0.980656 0.643173 0.916048 0.123692
H26   H     H_    0.019336 0.357755 0.085143 0.124219
H27   H     H_    0.064180 0.805156 0.923653 0.134458
H28   H     H_    0.935800 0.195978 0.077872 0.134676
H29   H     H_    0.982972 0.644681 0.082601 0.174760
H30   H     H_    0.017270 0.355612 0.917675 0.174670
H31   H     H_    0.856256 0.327755 0.406660 0.133874
H32   H     H_    0.143221 0.671839 0.593320 0.141396
H33   H     H_    0.547438 0.067940 0.908267 0.136493
H34   H     H_    0.927092 0.786930 0.059360 0.131667
H35   H     H_    0.452720 0.932077 0.091877 0.136209
H36   H     H_    0.409920 0.058440 0.078949 0.155116
H37   H     H_    0.590211 0.941614 0.921249 0.155458
H38   H     H_    0.464050 0.325029 0.400265 0.127034
H39   H     H_    0.535952 0.674982 0.599736 0.127158
H40   H     H_    0.340528 0.379724 0.408072 0.132694
H41   H     H_    0.659476 0.620290 0.591946 0.132875
H42   H     H_    0.473480 0.553423 0.409236 0.122665
H43   H     H_    0.526526 0.446590 0.590769 0.122478
H44   H     H_    0.087577 0.931128 0.660890 0.159966
H45   H     H_    0.196135 0.210906 0.883542 0.126734
H46   H     H_    0.122908 0.969721 0.587342 0.104450
H47   H     H_    0.005412 0.746175 0.536346 0.248649
H48   H     H_    0.032887 0.779269 0.457286 0.201778
H49   H     H_    0.197531 0.877826 0.535890 0.267551
H50   H     H_    0.135504 0.743088 0.495117 0.266437
H51   H     H_    0.168431 0.840565 0.612391 0.266806
H52   H     H_    0.987633 0.212609 0.444409 0.177456
H53   H     H_    0.957163 0.174158 0.518306 0.094124
H54   H     H_    0.860091 0.034845 0.314538 0.236638
H55   H     H_    0.827669 0.998069 0.390966 0.208285
H56   H     H_    0.800643 0.783276 0.113260 0.126752
H57   H     H_    0.802794 0.136474 0.474313 0.263482
H58   H     H_    0.735908 0.049778 0.357605 0.269959
H59   H     H_    0.836952 0.176444 0.400236 0.262298
H60   H     H_    0.658482 0.757727 0.753328 0.147149
H61   H     H_    0.754958 0.749482 0.744145 0.147805
H62   H     H_    0.853679 0.935731 0.801870 0.272387
H63   H     H_    0.760917 0.861495 0.702175 0.210934
H64   H     H_    0.757869 0.943110 0.810170 0.242751
H65   H     H_    0.244750 0.251313 0.255925 0.147766
H66   H     H_    0.340833 0.242296 0.246744 0.147012
H67   H     H_    0.176361 0.137674 0.723621 0.089723
H68   H     H_    0.240576 0.057004 0.190150 0.242854
H69   H     H_    0.237983 0.139208 0.298191 0.210746
H70   H     H_    0.145267 0.065340 0.198585 0.272802
H71   H     H_    0.402835 0.035020 0.855228 0.136879
H72   H     H_    0.358862 0.058342 0.947915 0.144300
H73   H     H_    0.203719 0.916253 0.842860 0.255342
H74   H     H_    0.258632 0.008051 0.813880 0.196532
H75   H     H_    0.245626 0.885541 0.749557 0.257408
H76   H     H_    0.638886 0.940230 0.052957 0.145331
H77   H     H_    0.598081 0.967614 0.147785 0.137902
H78   H     H_    0.815166 0.853132 0.271834 0.094235
H79   H     H_    0.756918 0.115561 0.249804 0.264572
H80   H     H_    0.741761 0.991834 0.185570 0.203027
H81   H     H_    0.795702 0.081704 0.154504 0.253590
H82   H     H_    0.910686 0.072382 0.681355 0.112977
O1    O     O_3   0.251620 0.500000 0.748430 -0.487065
O2    O     O_R   0.570330 0.268390 0.136490 -0.656546
O3    O     O_R   0.134680 0.268390 0.572240 -0.608489
O4    O     O_R   0.865320 0.731610 0.427760 -0.592047
O5    O     O_R   0.306670 0.731630 0.863510 -0.593567
O6    O     O_R   0.693330 0.268370 0.136490 -0.593753
O7    O     O_R   0.135450 0.439270 0.865360 -0.645206
O8    O     O_R   0.864550 0.560730 0.134640 -0.645541
O9    O     O_R   0.429670 0.560710 0.692610 -0.647989
O10   O     O_R   0.570330 0.439290 0.307390 -0.648139
O11   O     O_R   0.308540 0.439240 0.865360 -0.651757
O12   O     O_3   0.748380 0.500000 0.251570 -0.487736
O13   O     O_R   0.691460 0.560760 0.134640 -0.652690
O14   O     O_R   0.133580 0.439310 0.571150 -0.661188
O15   O     O_R   0.866420 0.560690 0.428850 -0.663612
O16   O     O_R   0.430770 0.560690 0.864590 -0.639142
O17   O     O_R   0.569230 0.439310 0.135410 -0.639190
O18   O     O_R   0.133580 0.560760 0.692610 -0.627531
O19   O     O_R   0.866420 0.439240 0.307390 -0.626960
O20   O     O_3   0.982868 0.894114 0.574821 -0.608088
O21   O     O_3   0.010662 0.105567 0.423934 -0.620066
O22   O     O_3   0.758537 0.838817 0.873147 -0.631472
O23   O     O_R   0.134680 0.560740 0.864590 -0.634295
O24   O     O_3   0.240897 0.161426 0.126932 -0.631412
O25   O     O_3   0.349350 0.919890 0.877630 -0.601599
O26   O     O_3   0.650877 0.080241 0.122438 -0.601465
O27   O     O_R   0.865320 0.439260 0.135410 -0.633565
O28   O     O_R   0.306670 0.439270 0.571150 -0.641747
O29   O     O_R   0.693330 0.560730 0.428850 -0.641661
O30   O     O_R   0.135450 0.268370 0.694460 -0.646134
O31   O     O_R   0.864550 0.731630 0.305540 -0.653589
O32   O     O_R   0.429670 0.731610 0.863510 -0.656532
Zn1   Zn    Zn3+2 0.207400 0.586780 0.791530 0.996132
Zn2   Zn    Zn3+2 0.792600 0.413220 0.208470 0.997320
Zn3   Zn    Zn3+2 0.208510 0.413230 0.792630 0.951734
Zn4   Zn    Zn3+2 0.791490 0.586770 0.207370 0.949714
Zn5   Zn    Zn3+2 0.383150 0.586740 0.791530 0.956656
Zn6   Zn    Zn3+2 0.616850 0.413260 0.208470 0.955930
Zn7   Zn    Zn3+2 0.207400 0.413250 0.618010 0.961930
Zn8   Zn    Zn3+2 0.792600 0.586750 0.381990 0.967067

loop_
_geom_bond_atom_site_label_1
_geom_bond_atom_site_label_2
_ccdc_geom_bond_type
C3    C104  S    
C15   C18   S    
C49   H9    S    
C89   H11   S    
O19   Zn2   S    
C103  H63   S    
C8    C50   S    
C30   H3    S    
C28   H31   S    
C41   C43   A    
C64   C77   A    
C91   H1    S    
C66   C68   A    
O9    Zn5   S    
C9    C72   S    
C104  O24   S    
C88   O19   A    
C47   C62   S    
C63   C65   A    
C97   C98   S    
O32   Zn5   S    
C11   C18   S    
O1    Zn1   S    
C34   O20   S    
C102  H60   S    
C4    O25   S    
C74   C76   A    
C7    H80   S    
C9    C61   S    
C70   O29   A    
C32   H23   S    
C101  H58   S    
O12   Zn4   S    
C24   C26   A    
C37   C40   A    
O11   Zn3   S    
C10   C15   S    
C25   C40   S    
O1    Zn7   S    
C11   C14   S    
C78   C80   A    
C3    H68   S    
C57   C59   A    
C6    H76   S    
C71   H25   S    
C63   C76   A    
C58   C60   A    
C8    C83   S    
C98   H51   S    
C69   O9    A    
C16   H42   S    
C31   H4    S    
O28   Zn7   S    
C50   C72   S    
O30   Zn3   S    
C5    H75   S    
C2    C50   S    
C71   C74   A    
C88   C93   S    
C96   O20   S    
C3    H69   S    
C48   C51   A    
C20   C24   A    
C12   H38   S    
C65   C67   A    
C4    H71   S    
C87   C95   S    
C31   C33   A    
C46   O8    A    
C28   C89   S    
C17   C36   S    
C88   O15   A    
C89   C91   S    
C39   C90   S    
C67   C71   A    
C63   H20   S    
C86   O13   A    
O8    Zn4   S    
C72   C94   S    
C49   C52   A    
O7    Zn3   S    
C98   H49   S    
C103  H64   S    
C41   H5    S    
C74   H27   S    
C99   H52   S    
C27   C30   A    
C73   C75   A    
C2    C83   S    
C14   C70   S    
C42   C44   A    
C87   O14   A    
C2    C21   S    
C15   C69   S    
C19   C32   A    
C58   C86   S    
C39   C91   S    
C67   C84   S    
O27   Zn2   S    
C52   C54   A    
O12   Zn6   S    
C48   C60   S    
C39   H32   S    
C53   C55   A    
C45   O7    A    
O15   Zn8   S    
C96   H44   S    
O3    Zn7   S    
C51   H10   S    
O18   Zn1   S    
C24   H78   S    
O23   Zn1   S    
C90   H13   S    
C5    H74   S    
C101  H59   S    
C35   C38   A    
C8    C94   S    
C47   C49   A    
C18   H43   S    
C61   C83   S    
O5    Zn1   S    
C79   C81   A    
C9    H37   S    
C61   C94   S    
C11   H41   S    
C57   C60   A    
C6    H77   S    
C68   C73   A    
C22   C94   S    
C45   O23   A    
C6    O26   S    
C99   O21   S    
C28   C93   S    
C51   C53   A    
C27   H82   S    
C64   C66   A    
C89   C95   S    
C19   C23   A    
C101  H57   S    
C59   C85   S    
C2    C9    S    
C77   H19   S    
C78   C84   A    
C42   C55   A    
C91   C93   S    
C92   H12   S    
C3    H70   S    
C90   C92   S    
C99   C100  S    
C33   H34   S    
C46   O27   A    
C96   H46   S    
C96   C97   S    
C1    O30   A    
C97   H47   S    
C28   C92   S    
O13   Zn4   S    
C10   H40   S    
C75   C77   A    
C39   C95   S    
O10   Zn6   S    
C10   C12   S    
C85   O16   A    
C26   C29   A    
C20   C33   A    
C44   H8    S    
C80   C82   A    
C72   H33   S    
C12   C14   S    
C50   O25   S    
C5    H73   S    
C102  H61   S    
C54   O22   S    
C21   O32   A    
C99   H53   S    
C20   H56   S    
C83   H35   S    
C56   C62   A    
C29   H2    S    
O6    Zn2   S    
C22   O6    A    
C68   C82   S    
O2    Zn6   S    
C87   O18   A    
C81   C84   A    
C17   O31   A    
C75   H28   S    
C90   C93   S    
C104  H66   S    
C85   O11   A    
O31   Zn4   S    
C79   H30   S    
C73   H26   S    
C59   C62   A    
C35   C37   A    
C14   C16   S    
O4    Zn8   S    
O12   Zn2   S    
O16   Zn5   S    
C7    H81   S    
C45   C81   S    
C69   O28   A    
C4    C5    S    
C79   C82   A    
O12   Zn8   S    
C53   H15   S    
C102  O22   S    
C6    C7    S    
C56   H16   S    
C1    C37   S    
C17   O4    A    
C25   C27   A    
O1    Zn3   S    
C7    H79   S    
C8    H36   S    
O29   Zn8   S    
C26   C38   S    
C65   H22   S    
C13   C15   S    
C42   H6    S    
C76   H18   S    
C29   C31   A    
C10   C16   S    
C55   O24   S    
C30   C32   A    
C98   H50   S    
C11   C13   S    
C100  H55   S    
O1    Zn5   S    
C36   C38   A    
C100  C101  S    
C19   H45   S    
C97   H48   S    
C56   C58   A    
O17   Zn6   S    
C34   C36   A    
O14   Zn7   S    
C92   C95   S    
C22   O2    A    
C102  C103  S    
C78   H29   S    
C41   C54   A    
C21   O5    A    
C57   H17   S    
C13   H39   S    
C43   H7    S    
C100  H54   S    
C35   O21   S    
C23   C25   A    
C23   H67   S    
C103  H62   S    
C70   O10   A    
C64   H21   S    
C4    H72   S    
C13   C16   S    
C12   C18   S    
C34   C40   A    
C46   C80   S    
C66   H24   S    
C43   C47   A    
C86   O17   A    
C61   O26   S    
C44   C48   A    
C1    O3    A    
C104  H65   S    
C52   H14   S    
