data_mof_unit_41349.cif
_audit_creation_date              2012-12-10T19:33:10-0500
_audit_creation_method            fapswitch 2.2
_symmetry_space_group_name_H-M    P1
_symmetry_Int_Tables_number       1
_space_group_crystal_system       triclinic
_cell_length_a                    8.721204
_cell_length_b                    15.875561
_cell_length_c                    16.995903
_cell_angle_alpha                 94.740386
_cell_angle_beta                  91.998873
_cell_angle_gamma                 83.579178
_cell_volume                      2329.61055482

loop_
_atom_site_label
_atom_site_type_symbol
_atom_type_description
_atom_site_fract_x
_atom_site_fract_y
_atom_site_fract_z
_atom_type_partial_charge
C1    C     C_R   0.494472 0.491147 0.348450 0.810837
C2    C     C_R   0.505532 0.508853 0.651551 0.810842
C3    C     C_R   0.411679 0.763212 0.468620 0.340743
C4    C     C_R   0.588319 0.236788 0.531381 0.340740
C5    C     C_R   0.421167 0.851214 0.471059 -0.263721
C6    C     C_R   0.578832 0.148785 0.528941 -0.263722
C7    C     C_R   0.538520 0.888255 0.514697 0.346491
C8    C     C_R   0.461482 0.111744 0.485301 0.346494
C9    C     C_R   0.646148 0.834135 0.555639 -0.319501
C10   C     C_R   0.353855 0.165865 0.444357 -0.319502
C11   C     C_R   0.634546 0.745867 0.552315 0.005568
C12   C     C_R   0.365457 0.254133 0.447683 0.005567
C13   C     C_R   0.205382 0.522134 0.500856 0.880919
C14   C     C_R   0.794618 0.477865 0.499143 0.880919
C15   C     C_2   0.039750 0.533985 0.501447 -0.369879
C16   C     C_2   0.960250 0.466015 0.498552 -0.369872
C17   C     C_R   0.481374 0.490857 0.261827 -0.087175
C18   C     C_R   0.518643 0.509142 0.738177 -0.087216
C19   C     C_R   0.545730 0.555049 0.226214 -0.281374
C20   C     C_R   0.454461 0.444887 0.773786 -0.281403
C21   C     C_R   0.527929 0.563313 0.145256 0.187151
C22   C     C_R   0.472272 0.436634 0.854746 0.187125
C23   C     C_R   0.448242 0.503949 0.098293 0.330230
C24   C     C_R   0.551794 0.496065 0.901713 0.330288
C25   C     C_R   0.381134 0.441042 0.133343 -0.230999
C26   C     C_R   0.618729 0.559037 0.866671 -0.230973
C27   C     C_R   0.396340 0.433411 0.214801 0.146617
C28   C     C_R   0.603515 0.566662 0.785213 0.146623
Cu1   Cu    Cu3+1 0.492520 0.415770 0.496210 0.933554
Cu2   Cu    Cu3+1 0.507480 0.584230 0.503790 0.933547
H1    H     H_    0.391830 0.399611 0.738049 0.179000
H2    H     H_    0.608490 0.600267 0.261950 0.178954
H3    H     H_    0.318194 0.397085 0.096220 0.151368
H4    H     H_    0.681545 0.603047 0.903800 0.151346
H5    H     H_    0.718937 0.705563 0.584205 0.138632
H6    H     H_    0.281068 0.294437 0.415791 0.138639
N1    N     N_2   0.435605 0.504989 0.015478 -0.245636
N2    N     N_2   0.564438 0.495022 0.984527 -0.245631
N3    N     N_R   0.518730 0.710760 0.509500 -0.163544
N4    N     N_R   0.481270 0.289240 0.490500 -0.163541
N5    N     N_2   0.551018 0.978253 0.519013 -0.239565
N6    N     N_2   0.448983 0.021747 0.480984 -0.239564
O1    O     O_R   0.493000 0.421040 0.382520 -0.572564
O2    O     O_R   0.507000 0.578960 0.617480 -0.572572
O3    O     O_R   0.505640 0.563310 0.388930 -0.595911
O4    O     O_R   0.494360 0.436690 0.611070 -0.595920
O5    O     O_R   0.269980 0.445280 0.497530 -0.583005
O6    O     O_R   0.730020 0.554720 0.502470 -0.583012
O7    O     O_R   0.282610 0.587550 0.503940 -0.587533
O8    O     O_R   0.717390 0.412450 0.496060 -0.587530
H7    H     H_    0.983185 0.598714 0.504313 0.168828
H8    H     H_    0.016814 0.401286 0.495685 0.168831
C29   C     C_3   0.409112 0.362753 0.887922 -0.837743
H9    H     H_    0.449769 0.353769 0.949495 0.248525
H10   H     H_    0.281034 0.372634 0.885957 0.233396
H11   H     H_    0.447753 0.303024 0.851932 0.222892
C30   C     C_3   0.591286 0.637132 0.112074 -0.837702
H12   H     H_    0.550443 0.646217 0.050546 0.248482
H13   H     H_    0.552993 0.696869 0.148135 0.222871
H14   H     H_    0.719356 0.627089 0.113919 0.233434
C31   C     C_3   0.317124 0.365883 0.249557 -0.833008
H15   H     H_    0.246660 0.331647 0.204440 0.219885
H16   H     H_    0.404425 0.318079 0.274168 0.247587
H17   H     H_    0.238527 0.395373 0.296621 0.225201
C32   C     C_3   0.682561 0.634263 0.750469 -0.832943
H18   H     H_    0.752916 0.668557 0.795594 0.219859
H19   H     H_    0.761237 0.604829 0.703417 0.225210
H20   H     H_    0.595163 0.682008 0.725847 0.247608
C33   C     C_3   0.724129 0.268316 0.577562 -0.786912
H21   H     H_    0.692307 0.327190 0.614817 0.257051
H22   H     H_    0.774903 0.221672 0.619128 0.182567
H23   H     H_    0.817004 0.276041 0.536703 0.227847
C34   C     C_3   0.275866 0.731684 0.422442 -0.786894
H24   H     H_    0.307685 0.672808 0.385188 0.257057
H25   H     H_    0.182993 0.723962 0.463302 0.227838
H26   H     H_    0.225091 0.778327 0.380875 0.182570
H27   H     H_    0.665015 0.109159 0.560656 0.160753
H28   H     H_    0.334983 0.890840 0.439344 0.160755
H29   H     H_    0.738996 0.860149 0.590169 0.152412
H30   H     H_    0.261009 0.139851 0.409827 0.152413

loop_
_geom_bond_atom_site_label_1
_geom_bond_atom_site_label_2
_ccdc_geom_bond_type
C2    C18   S    
N5    N6    D    
Cu2   O3    S    
C29   H9    S    
C2    O4    A    
Cu1   Cu2   S    
Cu1   O5    S    
C22   C24   A    
Cu2   O6    S    
C19   C21   A    
C24   C26   A    
C9    H29   S    
C30   H13   S    
C15   C16   D    
C33   H22   S    
C34   H24   S    
C31   H16   S    
C27   C31   S    
C1    O1    A    
C4    N4    A    
C2    O2    A    
C32   H19   S    
C24   N2    S    
C15   H7    S    
C12   H6    S    
C7    N5    S    
C3    N3    A    
Cu1   O1    S    
C34   H25   S    
Cu2   O2    S    
C33   H21   S    
C19   H2    S    
C4    C33   S    
C26   H4    S    
C22   C29   S    
Cu1   O8    S    
C29   H10   S    
C17   C27   A    
C18   C28   A    
C4    C6    A    
C5    C7    A    
C10   H30   S    
C6    H27   S    
C14   O6    A    
C3    C5    A    
C23   N1    S    
C12   N4    A    
C31   H17   S    
C21   C30   S    
N1    N2    D    
C32   H20   S    
C11   N3    A    
C9    C11   A    
C10   C12   A    
C13   O7    A    
Cu2   O7    S    
C20   C22   A    
C13   C15   S    
C34   H26   S    
C14   C16   S    
C33   H23   S    
C13   O5    A    
C29   H11   S    
C7    C9    A    
C1    C17   S    
C16   H8    S    
C8    N6    S    
C30   H14   S    
C6    C8    A    
C25   C27   A    
C26   C28   A    
Cu1   O4    S    
C21   C23   A    
C28   C32   S    
C1    O3    A    
C30   H12   S    
C14   O8    A    
Cu1   N4    S    
C11   H5    S    
C17   C19   A    
Cu2   N3    S    
C18   C20   A    
C23   C25   A    
C31   H15   S    
C3    C34   S    
C8    C10   A    
C32   H18   S    
C5    H28   S    
C25   H3    S    
C20   H1    S    
