data_mof_unit_49657.cif
_audit_creation_date              2012-12-10T16:57:42-0500
_audit_creation_method            fapswitch 2.2
_symmetry_space_group_name_H-M    P1
_symmetry_Int_Tables_number       1
_space_group_crystal_system       triclinic
_cell_length_a                    7.77964
_cell_length_b                    8.556572
_cell_length_c                    19.138063
_cell_angle_alpha                 91.38831
_cell_angle_beta                  85.235577
_cell_angle_gamma                 93.635931
_cell_volume                      1266.77665339

loop_
_atom_site_label
_atom_site_type_symbol
_atom_type_description
_atom_site_fract_x
_atom_site_fract_y
_atom_site_fract_z
_atom_type_partial_charge
C1    C     C_R   0.545736 0.794700 0.498213 0.937202
C2    C     C_R   0.614362 0.408612 0.176484 0.334104
C3    C     C_R   0.505672 0.502375 0.854623 -0.209112
C4    C     C_R   0.490346 0.491765 0.145438 -0.204704
C5    C     C_R   0.626473 0.416240 0.813049 0.420689
C6    C     C_R   0.367413 0.575479 0.187010 0.417749
C7    C     C_R   0.624822 0.417941 0.740524 -0.206527
C8    C     C_R   0.370936 0.576260 0.259438 -0.209616
C9    C     C_R   0.504131 0.502245 0.709743 -0.168732
C10   C     C_R   0.495256 0.496344 0.290225 -0.162831
C11   C     C_R   0.492563 0.494719 0.070154 0.424891
C12   C     C_R   0.454264 0.205300 0.501782 0.937166
C13   C     C_R   0.503298 0.499201 0.929960 0.426630
C14   C     C_2   0.569877 0.958186 0.497163 -0.340231
C15   C     C_2   0.430124 0.041813 0.502824 -0.337452
C16   C     C_R   0.501327 0.500665 0.634278 0.901322
C17   C     C_R   0.498630 0.499233 0.365705 0.892701
C18   C     C_R   0.385286 0.587767 0.750944 -0.200207
C19   C     C_R   0.615894 0.412674 0.249026 -0.223677
C20   C     C_R   0.385088 0.589603 0.823535 0.420222
F1    F     F_    0.030160 0.357268 0.437237 -0.555277
F2    F     F_    0.969842 0.642753 0.562753 -0.553154
H1    H     H_    0.294105 0.654516 0.726220 0.214854
H2    H     H_    0.956950 0.760374 0.185752 0.399473
H3    H     H_    0.709646 0.348812 0.273685 0.215261
H4    H     H_    0.715380 0.351244 0.707856 0.206754
H5    H     H_    0.278692 0.641437 0.291975 0.216622
H6    H     H_    0.701899 0.009166 0.491743 0.209720
H7    H     H_    0.298101 0.990833 0.508243 0.210189
H8    H     H_    0.250563 0.918479 0.934313 0.415558
H9    H     H_    0.618404 0.076967 0.142515 0.365503
H10   H     H_    0.765659 0.093411 0.910165 0.420009
N1    N     N_R   0.556221 0.628592 0.966279 -0.055266
N2    N     N_R   0.439623 0.365308 0.033856 -0.050364
N3    N     N_R   0.551065 0.626310 0.035676 -0.075901
N4    N     N_R   0.444610 0.367666 0.964457 -0.056334
N5    N     N_2   0.950330 0.457950 0.481240 0.256972
N6    N     N_2   0.049670 0.542050 0.518760 0.257110
O1    O     O_R   0.389250 0.738570 0.504600 -0.614175
O2    O     O_2   0.153677 0.611147 0.935372 -0.198503
O3    O     O_3   0.337665 0.866652 0.902581 -0.483669
O4    O     O_2   0.842283 0.386416 0.063428 -0.163588
O5    O     O_2   0.911380 0.258899 0.169681 -0.249585
O6    O     O_3   0.667470 0.129193 0.099040 -0.475677
O7    O     O_2   0.917969 0.259727 0.794894 -0.266841
O8    O     O_2   0.862177 0.399485 0.906915 -0.200805
O9    O     O_3   0.678045 0.142016 0.884449 -0.479745
O10   O     O_2   0.290412 0.834651 0.124332 -0.254872
O11   O     O_2   0.137254 0.589146 0.090439 -0.198129
O12   O     O_R   0.610750 0.261430 0.495400 -0.614951
O13   O     O_3   0.046401 0.715025 0.211654 -0.541690
O14   O     O_R   0.678400 0.711620 0.492580 -0.578761
O15   O     O_R   0.321600 0.288380 0.507420 -0.578223
O16   O     O_R   0.355380 0.513500 0.607880 -0.605252
O17   O     O_R   0.644620 0.486500 0.392120 -0.605507
O18   O     O_R   0.644530 0.486550 0.595850 -0.582353
O19   O     O_R   0.355470 0.513450 0.404150 -0.583043
O20   O     O_2   0.093545 0.746274 0.829480 -0.250290
S1    S     S_3+6 0.233646 0.702526 0.873594 0.101184
S2    S     S_3+6 0.767179 0.296896 0.126488 0.098762
S3    S     S_3+6 0.779945 0.305086 0.849995 0.093524
S4    S     S_3+6 0.208637 0.680964 0.150535 0.081108
Zn1   Zn    Zn3+2 0.306930 0.517990 0.508030 1.130512
Zn2   Zn    Zn3+2 0.693070 0.482010 0.491970 1.129253

loop_
_geom_bond_atom_site_label_1
_geom_bond_atom_site_label_2
_ccdc_geom_bond_type
O9    S3    S    
C2    C4    A    
O18   Zn2   S    
H8    O3    S    
C13   N1    A    
N5    N6    D    
C1    C14   S    
O1    Zn1   S    
C17   O17   A    
C18   C20   A    
C12   O15   A    
C3    C13   S    
C12   C15   S    
C10   C19   A    
O17   Zn2   S    
C6    S4    S    
H2    O13   S    
C16   O18   A    
C1    O14   A    
C2    C19   A    
C5    S3    S    
C3    C20   A    
C16   O16   A    
O2    S1    D    
C4    C11   S    
O15   Zn1   S    
C7    H4    S    
O5    S2    D    
O6    S2    S    
O13   S4    S    
C4    C6    A    
F1    N5    S    
N1    N3    A    
C9    C16   S    
C15   H7    S    
N2    N4    A    
O14   Zn2   S    
C19   H3    S    
H10   O9    S    
C2    S2    S    
O16   Zn1   S    
C1    O1    A    
C10   C17   S    
C18   H1    S    
F2    N6    S    
C3    C5    A    
C9    C18   A    
N5    Zn2   S    
O12   Zn2   S    
O3    S1    S    
C13   N4    A    
C8    C10   A    
N6    Zn1   S    
H9    O6    S    
O4    S2    D    
C7    C9    A    
C8    H5    S    
C5    C7    A    
C6    C8    A    
O11   S4    D    
O8    S3    D    
C14   H6    S    
O20   S1    D    
C14   C15   D    
O10   S4    D    
C11   N3    A    
C11   N2    A    
O7    S3    D    
O19   Zn1   S    
C17   O19   A    
C12   O12   A    
C20   S1    S    
