data_mof_unit_46574.cif
_audit_creation_date              2012-12-10T17:49:43-0500
_audit_creation_method            fapswitch 2.2
_symmetry_space_group_name_H-M    P1
_symmetry_Int_Tables_number       1
_space_group_crystal_system       triclinic
_cell_length_a                    10.505877
_cell_length_b                    10.71449
_cell_length_c                    9.925122
_cell_angle_alpha                 88.683527
_cell_angle_beta                  88.649994
_cell_angle_gamma                 92.459235
_cell_volume                      1115.56189888

loop_
_atom_site_label
_atom_site_type_symbol
_atom_type_description
_atom_site_fract_x
_atom_site_fract_y
_atom_site_fract_z
_atom_type_partial_charge
C1    C     C_R   0.506886 0.259860 0.502305 0.857856
C2    C     C_R   0.489745 0.055957 0.631395 0.096373
C3    C     C_R   0.510454 0.125583 0.508312 -0.127373
C4    C     C_R   0.257505 0.499057 0.501555 0.859624
C5    C     C_R   0.514095 0.065457 0.384725 -0.225496
C6    C     C_R   0.497331 0.938399 0.381219 -0.229630
C7    C     C_R   0.468404 0.870473 0.500044 -0.127325
C8    C     C_R   0.331426 0.335094 0.147650 -0.138703
C9    C     C_R   0.248578 0.254211 0.081177 -0.226925
C10   C     C_R   0.248640 0.254759 0.941765 -0.158490
C11   C     C_R   0.331244 0.336527 0.867751 -0.134689
C12   C     C_3   0.964802 0.511365 0.370101 -0.150113
C13   C     C_R   0.416664 0.419502 0.931712 0.118033
C14   C     C_R   0.416941 0.418988 0.076186 0.124551
C15   C     C_R   0.579264 0.579800 0.065964 0.242355
C16   C     C_R   0.486500 0.738439 0.499498 0.876903
C17   C     C_R   0.579697 0.576657 0.922758 -0.114709
C18   C     C_R   0.742265 0.501580 0.498485 0.880545
C19   C     C_3   0.032795 0.490167 0.627465 0.253767
C20   C     C_3   0.950614 0.394880 0.553898 0.241672
C21   C     C_3   0.876863 0.501900 0.495980 -0.073123
C22   C     C_3   0.959169 0.599156 0.570065 -0.259481
C23   C     C_3   0.040023 0.402216 0.429132 -0.247315
C24   C     C_3   0.050027 0.607976 0.444358 -0.193422
C25   C     C_3   0.976964 0.185044 0.645844 -0.815112
C26   C     C_3   0.676566 0.792195 0.074884 -0.856845
C27   C     C_3   0.970423 0.470651 0.866034 -0.769542
C28   C     C_3   0.122534 0.499098 0.504125 -0.069177
C29   C     C_R   0.509992 0.103684 0.761894 -0.167021
C30   C     C_R   0.463578 0.037931 0.877010 -0.154350
C31   C     C_R   0.396913 0.924203 0.864485 -0.164050
C32   C     C_R   0.388789 0.870374 0.738451 -0.150371
C33   C     C_R   0.446777 0.931212 0.622932 0.100626
H1    H     H_    0.355748 0.875466 0.952927 0.136127
H2    H     H_    0.095714 0.695042 0.399309 0.145539
H3    H     H_    0.932439 0.520987 0.264815 0.161120
H4    H     H_    0.076767 0.322238 0.373086 0.138942
H5    H     H_    0.531788 0.116264 0.289969 0.173710
H6    H     H_    0.565617 0.188647 0.778458 0.176271
H7    H     H_    0.477371 0.076492 0.975771 0.146897
H8    H     H_    0.814678 0.247549 0.555636 0.215473
H9    H     H_    0.924429 0.108770 0.704186 0.242681
H10   H     H_    0.054273 0.223852 0.708662 0.257970
H11   H     H_    0.019217 0.145854 0.553135 0.230440
H12   H     H_    0.337283 0.781093 0.732238 0.151572
H13   H     H_    0.668091 0.660597 0.231089 0.293639
H14   H     H_    0.731479 0.852400 0.144572 0.240398
H15   H     H_    0.580458 0.829869 0.063814 0.246626
H16   H     H_    0.728672 0.796542 0.976310 0.247364
H17   H     H_    0.141467 0.547182 0.788778 0.237542
H18   H     H_    0.010839 0.458270 0.967622 0.239627
H19   H     H_    0.905411 0.388802 0.847828 0.273505
H20   H     H_    0.915635 0.557103 0.864350 0.231249
H21   H     H_    0.509733 0.893371 0.285665 0.178362
H22   H     H_    0.325549 0.328618 0.254734 0.204362
H23   H     H_    0.184289 0.190268 0.138401 0.145270
H24   H     H_    0.185389 0.190189 0.890830 0.150654
H25   H     H_    0.326803 0.331356 0.760830 0.208410
H26   H     H_    0.645414 0.636382 0.862718 0.163811
H27   H     H_    0.922254 0.678606 0.626860 0.145987
N1    N     N_R   0.498800 0.498800 0.142780 -0.161331
N2    N     N_R   0.498760 0.498720 0.857170 -0.149466
N3    N     N_2   0.890238 0.280939 0.610809 -0.305590
N4    N     N_2   0.666435 0.665032 0.128467 -0.306203
N5    N     N_2   0.072813 0.479902 0.765868 -0.306401
O1    O     O_R   0.500000 0.316780 0.614690 -0.649644
O2    O     O_R   0.499990 0.316750 0.385360 -0.638224
O3    O     O_R   0.313960 0.499980 0.614650 -0.655085
O4    O     O_R   0.313940 0.499960 0.385310 -0.627808
O5    O     O_R   0.500010 0.683250 0.614640 -0.622420
O6    O     O_R   0.500000 0.683220 0.385310 -0.634714
O7    O     O_R   0.686060 0.500040 0.614690 -0.611162
O8    O     O_R   0.686040 0.500020 0.385350 -0.645314
Zn1   Zn    Zn3+2 0.500010 0.500020 0.653130 0.913026
Zn2   Zn    Zn3+2 0.499990 0.499980 0.346870 0.917749

loop_
_geom_bond_atom_site_label_1
_geom_bond_atom_site_label_2
_ccdc_geom_bond_type
C18   C21   S    
O8    Zn2   S    
C32   H12   S    
C19   C20   S    
C25   H10   S    
N1    Zn2   S    
C12   C23   S    
C2    C29   A    
C22   H27   S    
C30   C31   A    
O3    Zn1   S    
O1    Zn1   S    
C25   H11   S    
C25   N3    S    
C26   N4    S    
C13   N2    A    
C8    C9    A    
O5    Zn1   S    
C15   N4    S    
C19   N5    S    
C13   C14   A    
C12   H3    S    
C11   H25   S    
C9    C10   A    
C26   H15   S    
C21   C22   S    
C7    C33   A    
C16   O6    A    
C6    H21   S    
C8    H22   S    
C4    O4    A    
C4    C28   S    
C27   H18   S    
C10   H24   S    
C18   O7    A    
C24   H2    S    
C19   C22   S    
C16   O5    A    
O7    Zn1   S    
C26   H16   S    
C4    O3    A    
C23   H4    S    
C14   N1    A    
C12   C21   S    
H13   N4    S    
C1    C3    S    
C29   C30   A    
C27   N5    S    
C17   N2    A    
C31   C32   A    
C20   C23   S    
C29   H6    S    
C1    O1    A    
C15   N1    A    
C31   H1    S    
C30   H7    S    
C9    H23   S    
C23   C28   S    
C19   C28   S    
C26   H14   S    
C17   H26   S    
C2    C33   A    
C7    C16   S    
C18   O8    A    
C22   C24   S    
O2    Zn2   S    
H8    N3    S    
C27   H19   S    
C15   C17   A    
C8    C14   A    
C24   C28   S    
C3    C5    A    
C25   H9    S    
C27   H20   S    
C6    C7    A    
C12   C24   S    
C32   C33   A    
C20   N3    S    
C2    C3    A    
O6    Zn2   S    
C11   C13   A    
C5    C6    A    
C1    O2    A    
O4    Zn2   S    
H17   N5    S    
C10   C11   A    
C20   C21   S    
N2    Zn1   S    
C5    H5    S    
