data_mof_unit_33740.cif
_audit_creation_date              2012-12-10T17:08:48-0500
_audit_creation_method            fapswitch 2.2
_symmetry_space_group_name_H-M    P1
_symmetry_Int_Tables_number       1
_space_group_crystal_system       triclinic
_cell_length_a                    27.779356
_cell_length_b                    11.053195
_cell_length_c                    9.914853
_cell_angle_alpha                 112.857419
_cell_angle_beta                  99.081689
_cell_angle_gamma                 90.852947
_cell_volume                      2760.40491543

loop_
_atom_site_label
_atom_site_type_symbol
_atom_type_description
_atom_site_fract_x
_atom_site_fract_y
_atom_site_fract_z
_atom_type_partial_charge
C1    C     C_R   0.494645 0.252548 0.437729 0.804840
C2    C     C_R   0.503844 0.748050 0.562505 0.839637
C3    C     C_R   0.100488 0.484594 0.481918 -0.215822
C4    C     C_R   0.896550 0.473737 0.473871 -0.213705
C5    C     C_R   0.122546 0.366182 0.418244 -0.117348
C6    C     C_R   0.871648 0.586174 0.482606 -0.124560
C7    C     C_R   0.093318 0.246019 0.353968 0.665972
C8    C     C_R   0.897970 0.699548 0.491816 0.648344
C9    C     C_R   0.129568 0.605569 0.548822 -0.242618
C10   C     C_R   0.870514 0.359735 0.465519 -0.248691
C11   C     C_R   0.354506 0.487025 0.497788 -0.304167
C12   C     C_R   0.645499 0.500636 0.498591 -0.306356
C13   C     C_R   0.971527 0.358392 0.447435 -0.118404
C14   C     C_R   0.026394 0.601402 0.525460 -0.121700
C15   C     C_R   0.974536 0.595554 0.502576 0.045387
C16   C     C_R   0.021269 0.359537 0.429720 0.052592
C17   C     C_R   0.947622 0.475726 0.474322 0.008102
C18   C     C_R   0.049277 0.481904 0.478948 0.009492
C19   C     C_R   0.945002 0.245895 0.442738 0.509631
C20   C     C_R   0.056335 0.721558 0.595941 0.518077
C21   C     C_R   0.895472 0.247104 0.452434 0.618550
C22   C     C_R   0.107020 0.723209 0.608079 0.631825
C23   C     C_R   0.407510 0.494207 0.498724 0.892079
C24   C     C_R   0.592539 0.502640 0.500315 0.892314
C25   C     C_R   0.043705 0.243065 0.361009 -0.169949
C26   C     C_R   0.948545 0.704142 0.502905 -0.170089
C27   C     C_2   0.488024 0.109450 0.397329 -0.045529
C28   C     C_2   0.504547 0.891972 0.601175 -0.054303
C29   C     C_2   0.488704 0.068481 0.508707 -0.197143
C30   C     C_2   0.488891 0.929637 0.488566 -0.197584
C31   C     C_2   0.505123 0.508721 0.083143 -0.027031
C32   C     C_2   0.499148 0.483825 0.916987 -0.041970
C33   C     C_R   0.173281 0.371822 0.420403 0.609446
C34   C     C_R   0.821042 0.581728 0.481939 0.591780
C35   C     C_R   0.180623 0.604798 0.557423 0.717542
C36   C     C_R   0.820436 0.363343 0.474848 0.710251
C37   C     C_R   0.275002 0.550081 0.421222 0.578494
C38   C     C_R   0.711271 0.397181 0.372487 0.576913
C39   C     C_R   0.325080 0.552033 0.423379 0.438287
C40   C     C_R   0.661620 0.404692 0.376909 0.463383
C41   C     C_R   0.332918 0.417790 0.570864 -0.008518
C42   C     C_R   0.680283 0.591127 0.616908 -0.020854
C43   C     C_R   0.282726 0.430118 0.583681 0.043192
C44   C     C_R   0.730519 0.567467 0.623693 0.048573
C45   C     C_R   0.253506 0.490857 0.501280 0.062853
C46   C     C_R   0.745986 0.476829 0.495232 0.058304
Cu1   Cu    Cu3+1 0.508480 0.521810 0.644910 0.914727
Cu2   Cu    Cu3+1 0.491520 0.478190 0.355090 0.972266
H1    H     H_    0.474775 0.402723 0.835147 0.125545
H2    H     H_    0.532286 0.584339 0.162585 0.150744
H3    H     H_    0.022958 0.148460 0.305119 0.239699
H4    H     H_    0.966491 0.792182 0.504778 0.253802
H5    H     H_    0.477209 0.855602 0.377172 0.188922
H6    H     H_    0.490958 0.141704 0.620953 0.155274
N1    N     N_R   0.201286 0.489171 0.493640 -0.453904
N2    N     N_R   0.797000 0.473431 0.483662 -0.449892
N3    N     N_2   0.478780 0.445430 0.137360 -0.149805
N4    N     N_2   0.521220 0.554570 0.862640 -0.167905
O1    O     O_R   0.504520 0.332330 0.577400 -0.595055
O2    O     O_R   0.495480 0.667670 0.422600 -0.588350
O3    O     O_R   0.490210 0.295500 0.332650 -0.591082
O4    O     O_R   0.509790 0.704500 0.667350 -0.596297
O5    O     O_R   0.437420 0.518430 0.622370 -0.591577
O6    O     O_R   0.562580 0.481570 0.377630 -0.530710
O7    O     O_R   0.423110 0.481600 0.377610 -0.550365
O8    O     O_R   0.576890 0.518400 0.622390 -0.596945
O9    O     O_2   0.194840 0.261042 0.352319 -0.443944
O10   O     O_2   0.795932 0.685332 0.481976 -0.471480
O11   O     O_2   0.795334 0.258641 0.476469 -0.423238
O12   O     O_2   0.209571 0.718194 0.629164 -0.425389
C47   C     C_3   0.360245 0.315728 0.614320 -0.399468
C48   C     C_3   0.346901 0.177520 0.490639 -0.353056
C49   C     C_3   0.361853 0.070045 0.545818 -0.775278
H7    H     H_    0.400052 0.091893 0.607302 0.240920
H8    H     H_    0.337210 0.062602 0.620632 0.266961
H9    H     H_    0.358854 0.973655 0.449799 0.275469
H10   H     H_    0.306859 0.161169 0.447634 0.265663
H11   H     H_    0.365825 0.168871 0.396907 0.202509
H12   H     H_    0.400368 0.334506 0.634803 0.199359
H13   H     H_    0.352211 0.317856 0.720799 0.197409
C50   C     C_3   0.665936 0.724690 0.716210 -0.395506
C51   C     C_3   0.682354 0.830692 0.664319 -0.330356
C52   C     C_3   0.670462 0.967901 0.762172 -0.791228
H14   H     H_    0.630533 0.975819 0.741970 0.241938
H15   H     H_    0.683555 0.989472 0.881635 0.280245
H16   H     H_    0.688632 0.042565 0.733415 0.268632
H17   H     H_    0.722380 0.832968 0.665518 0.265720
H18   H     H_    0.663824 0.806534 0.547895 0.222301
H19   H     H_    0.625977 0.726008 0.711925 0.192079
H20   H     H_    0.682280 0.749985 0.834263 0.205724
C53   C     C_3   0.522118 0.997232 0.758599 -0.414439
C54   C     C_3   0.546527 0.951329 0.878014 -0.442348
C55   C     C_3   0.571427 0.067904 0.017047 -0.713906
H21   H     H_    0.603273 0.112612 0.992617 0.294232
H22   H     H_    0.545590 0.144473 0.056256 0.267578
H23   H     H_    0.584640 0.033649 0.106837 0.250605
H24   H     H_    0.518714 0.899028 0.909527 0.243153
H25   H     H_    0.574960 0.885181 0.834938 0.227189
H26   H     H_    0.549398 0.067776 0.750603 0.217292
H27   H     H_    0.490345 0.051472 0.798271 0.189905
C56   C     C_3   0.481270 0.014397 0.234791 -0.413512
C57   C     C_3   0.427817 0.957540 0.172975 -0.351374
C58   C     C_3   0.422124 0.854634 0.013787 -0.792997
H28   H     H_    0.432939 0.899829 0.939552 0.246021
H29   H     H_    0.445126 0.772268 0.009525 0.252157
H30   H     H_    0.383308 0.814335 0.972732 0.256920
H31   H     H_    0.414320 0.911193 0.242611 0.241613
H32   H     H_    0.404377 0.038279 0.174167 0.218616
H33   H     H_    0.491593 0.065736 0.166100 0.218950
H34   H     H_    0.506300 0.934635 0.221565 0.195127
C59   C     C_3   0.560730 0.653181 0.957042 -0.158197
C60   C     C_3   0.607327 0.589784 0.993036 -0.377301
C61   C     C_3   0.645712 0.693145 0.109796 -0.852844
H35   H     H_    0.655317 0.769980 0.070111 0.255606
H36   H     H_    0.631628 0.740270 0.215518 0.255323
H37   H     H_    0.679259 0.645491 0.131783 0.269850
H38   H     H_    0.599216 0.513741 0.035342 0.239044
H39   H     H_    0.622786 0.540494 0.890203 0.237772
H40   H     H_    0.570086 0.712172 0.895865 0.189044
H41   H     H_    0.548672 0.722869 0.058936 0.128132
C62   C     C_3   0.442620 0.339504 0.028517 -0.158881
C63   C     C_3   0.401828 0.293486 0.089973 -0.301785
C64   C     C_3   0.369324 0.177816 0.968005 -0.948605
H42   H     H_    0.349944 0.209016 0.881888 0.260462
H43   H     H_    0.391455 0.095050 0.915554 0.267677
H44   H     H_    0.341526 0.142697 0.016636 0.273897
H45   H     H_    0.416333 0.259455 0.177519 0.244392
H46   H     H_    0.378026 0.374768 0.132547 0.258253
H47   H     H_    0.421511 0.375170 0.948378 0.137177
H48   H     H_    0.462303 0.253666 0.968002 0.142617
C65   C     C_3   0.261115 0.384817 0.690103 -0.328232
C66   C     C_3   0.279332 0.480266 0.852149 -0.405012
C67   C     C_3   0.261613 0.430338 0.960770 -0.687142
H49   H     H_    0.221006 0.422057 0.943354 0.273506
H50   H     H_    0.275030 0.332585 0.945659 0.243592
H51   H     H_    0.275937 0.500513 0.076434 0.303509
H52   H     H_    0.319909 0.494175 0.877557 0.225792
H53   H     H_    0.265426 0.578130 0.869792 0.257107
H54   H     H_    0.220674 0.380766 0.670988 0.210760
H55   H     H_    0.269944 0.282759 0.672455 0.219256
C68   C     C_3   0.766857 0.633746 0.768639 -0.325620
C69   C     C_3   0.757679 0.576273 0.881502 -0.418889
C70   C     C_3   0.791006 0.648031 0.031709 -0.689523
H56   H     H_    0.830014 0.639900 0.019284 0.261486
H57   H     H_    0.783862 0.753686 0.079149 0.275324
H58   H     H_    0.783768 0.603284 0.110080 0.262003
H59   H     H_    0.719074 0.583640 0.898153 0.229897
H60   H     H_    0.764560 0.470217 0.838106 0.251820
H61   H     H_    0.805176 0.618588 0.751864 0.205313
H62   H     H_    0.764626 0.741898 0.815606 0.216456
F1    F     F_    0.112434 0.129914 0.286029 -0.565591
F2    F     F_    0.875358 0.808013 0.493165 -0.555227
F3    F     F_    0.629097 0.319531 0.260118 -0.649260
F4    F     F_    0.344945 0.617748 0.351876 -0.640257
F5    F     F_    0.725820 0.310854 0.248446 -0.610708
F6    F     F_    0.247032 0.608554 0.342668 -0.604524
F7    F     F_    0.872299 0.136760 0.449470 -0.529013
F8    F     F_    0.133741 0.841455 0.678590 -0.536543
F9    F     F_    0.967297 0.137695 0.443453 -0.597221
F10   F     F_    0.037772 0.837731 0.666773 -0.590068

loop_
_geom_bond_atom_site_label_1
_geom_bond_atom_site_label_2
_ccdc_geom_bond_type
C33   N1    A    
C70   H58   S    
C60   H39   S    
C34   N2    A    
C55   H21   S    
C37   C45   A    
C27   C29   D    
C8    C26   A    
C49   H7    S    
C14   C18   A    
C59   C60   S    
C32   N4    D    
C62   H48   S    
Cu1   O4    S    
C47   H12   S    
C50   C51   S    
C54   H25   S    
C64   H42   S    
C56   C57   S    
C36   N2    A    
C8    F2    S    
C1    O1    A    
Cu1   O5    S    
C60   H38   S    
C2    O2    A    
C9    C22   A    
C64   H43   S    
C29   H6    S    
C66   H53   S    
C70   H56   S    
C3    C18   A    
C59   H40   S    
C63   H45   S    
C47   H13   S    
C12   C42   A    
C65   H55   S    
C48   H10   S    
C52   H14   S    
C35   O12   S    
C66   C67   S    
C5    C33   A    
C54   H24   S    
C67   H51   S    
C48   H11   S    
C57   H32   S    
C53   H27   S    
C58   H30   S    
Cu1   O8    S    
C24   O8    A    
C41   C47   S    
C61   H37   S    
C50   H19   S    
C23   O5    A    
C24   O6    A    
C41   C43   A    
C37   F6    S    
C42   C50   S    
C42   C44   A    
C38   F5    S    
C60   C61   S    
C44   C46   A    
C68   H62   S    
Cu2   O2    S    
C10   C21   A    
C30   H5    S    
Cu1   O1    S    
C13   C19   A    
C39   F4    S    
C68   H61   S    
N4    C59   S    
C69   H60   S    
Cu2   N3    S    
C65   H54   S    
C48   C49   S    
C4    C6    A    
C34   O10   S    
C53   C54   S    
C5    C7    A    
C44   C68   S    
C15   C26   A    
C6    C8    A    
C22   F8    S    
C66   H52   S    
C35   N1    A    
C27   C56   S    
C6    C34   A    
C59   H41   S    
C12   C40   A    
C25   H3    S    
C29   C30   S    
C3    C9    A    
C26   H4    S    
Cu1   Cu2   S    
C57   H31   S    
C58   H29   S    
C11   C39   A    
C43   C45   A    
C62   C63   S    
C43   C65   S    
C7    F1    S    
C4    C17   A    
C16   C18   A    
C52   H15   S    
C20   C22   A    
C55   H23   S    
C67   H49   S    
Cu2   O7    S    
C49   H9    S    
C40   F3    S    
C1    C27   S    
C49   H8    S    
C31   H2    S    
C4    C10   A    
C65   C66   S    
C36   O11   S    
C33   O9    S    
C9    C35   A    
C61   H35   S    
C14   C20   A    
C16   C25   A    
C70   H57   S    
C19   C21   A    
C69   C70   S    
C21   F7    S    
C69   H59   S    
C31   C32   S    
C62   H47   S    
C50   H20   S    
C3    C5    A    
C1    O3    A    
C64   H44   S    
C15   C17   A    
C12   C24   S    
C7    C25   A    
C13   C17   A    
C19   F9    S    
C23   O7    A    
C28   C30   D    
C56   H34   S    
C47   C48   S    
C37   C39   A    
C68   C69   S    
Cu1   N4    S    
C38   C40   A    
C31   N3    D    
Cu2   O3    S    
C51   H18   S    
C11   C23   S    
C54   C55   S    
C10   C36   A    
C11   C41   A    
C28   C53   S    
C63   H46   S    
C57   C58   S    
C32   H1    S    
C38   C46   A    
Cu2   O6    S    
N3    C62   S    
C2    O4    A    
C52   H16   S    
C45   N1    S    
C55   H22   S    
C51   C52   S    
C20   F10   S    
C13   C16   A    
C46   N2    S    
C58   H28   S    
C67   H50   S    
C14   C15   A    
C2    C28   S    
C53   H26   S    
C63   C64   S    
C56   H33   S    
C51   H17   S    
C61   H36   S    
