data_mof_unit_32139.cif
_audit_creation_date              2012-12-10T17:32:19-0500
_audit_creation_method            fapswitch 2.2
_symmetry_space_group_name_H-M    P1
_symmetry_Int_Tables_number       1
_space_group_crystal_system       triclinic
_cell_length_a                    12.30974
_cell_length_b                    13.154046
_cell_length_c                    15.06257
_cell_angle_alpha                 77.452659
_cell_angle_beta                  101.54051
_cell_angle_gamma                 116.781838
_cell_volume                      2110.68179486

loop_
_atom_site_label
_atom_site_type_symbol
_atom_type_description
_atom_site_fract_x
_atom_site_fract_y
_atom_site_fract_z
_atom_type_partial_charge
C1    C     C_R   0.854727 0.286363 0.507844 0.788203
C2    C     C_R   0.089619 0.473180 0.112893 0.065617
C3    C     C_R   0.832597 0.555602 0.008586 -0.216356
C4    C     C_R   0.831838 0.555200 0.916180 -0.216211
C5    C     C_R   0.916271 0.528030 0.888324 0.121646
C6    C     C_R   0.002854 0.501323 0.953776 0.059321
C7    C     C_R   0.087841 0.474079 0.925877 0.064820
C8    C     C_R   0.172779 0.446612 0.990651 -0.250431
C9    C     C_R   0.175270 0.445685 0.084252 0.147310
C10   C     C_R   0.915243 0.526761 0.795959 -0.260791
C11   C     C_R   0.000357 0.500337 0.768109 -0.066726
C12   C     C_R   0.999862 0.499972 0.671215 0.826468
C13   C     C_R   0.086404 0.474191 0.833172 -0.207110
C14   C     C_R   0.275288 0.017343 0.370609 -0.203071
C15   C     C_R   0.227180 0.835499 0.469907 -0.120376
C16   C     C_R   0.815705 0.082494 0.560934 -0.222548
C17   C     C_R   0.738195 0.964978 0.571122 0.137286
C18   C     C_R   0.613954 0.929107 0.538304 -0.141221
C19   C     C_R   0.566225 0.009534 0.495285 0.070460
C20   C     C_R   0.649562 0.124487 0.469612 0.069761
C21   C     C_R   0.438800 0.977431 0.470738 0.010323
C22   C     C_R   0.399579 0.051836 0.403316 0.118077
C23   C     C_R   0.145067 0.713607 0.488059 0.855213
C24   C     C_R   0.485015 0.159211 0.368241 -0.227060
C25   C     C_R   0.608074 0.195787 0.401580 -0.183747
C26   C     C_R   0.348487 0.875049 0.511556 0.277756
C27   C     C_R   0.190135 0.907919 0.401249 -0.266871
C28   C     C_R   0.772743 0.163040 0.510592 -0.133956
C29   C     C_R   0.332805 0.309368 0.633822 0.003836
C30   C     C_R   0.761124 0.648915 0.378483 0.070576
C31   C     C_R   0.666019 0.683067 0.354111 -0.272481
C32   C     C_R   0.562168 0.626856 0.400227 -0.208405
C33   C     C_R   0.551836 0.534866 0.471784 0.006736
C34   C     C_R   0.000298 0.500105 0.328799 0.800385
C35   C     C_R   0.652387 0.503842 0.494778 0.283718
C36   C     C_R   0.445915 0.472447 0.520993 -0.068393
C37   C     C_R   0.439717 0.376334 0.588711 0.144596
C38   C     C_R   0.540932 0.350192 0.610797 -0.287627
C39   C     C_R   0.645051 0.414123 0.566922 -0.196374
C40   C     C_R   0.344761 0.500723 0.505317 0.027364
C41   C     C_R   0.238373 0.344784 0.615289 0.031268
C42   C     C_R   0.086042 0.472390 0.205413 -0.257417
C43   C     C_R   0.001120 0.500215 0.232008 -0.071184
C44   C     C_R   0.917286 0.528180 0.166321 -0.249769
C45   C     C_R   0.917609 0.528576 0.074070 0.123073
C46   C     C_R   0.003738 0.501264 0.046973 0.030025
Cu1   Cu    Cu3+1 0.098270 0.475420 0.521130 0.954272
Cu2   Cu    Cu3+1 0.901730 0.524580 0.478870 0.908149
H1    H     H_    0.148802 0.450007 0.257760 0.160992
H2    H     H_    0.456502 0.215762 0.315432 0.139595
H3    H     H_    0.244879 0.072885 0.318184 0.139539
H4    H     H_    0.909906 0.110835 0.592306 0.149999
H5    H     H_    0.556172 0.837759 0.543468 0.177175
H6    H     H_    0.670343 0.278138 0.369560 0.174012
H7    H     H_    0.155605 0.295580 0.648225 0.119809
H8    H     H_    0.542569 0.280668 0.663794 0.162918
H9    H     H_    0.851401 0.549576 0.186842 0.152607
H10   H     H_    0.341724 0.571765 0.455189 0.126272
H11   H     H_    0.841549 0.693364 0.342573 0.122494
H12   H     H_    0.491182 0.656475 0.377710 0.133912
H13   H     H_    0.672757 0.753351 0.299206 0.143292
H14   H     H_    0.718058 0.389531 0.592547 0.210631
H15   H     H_    0.766387 0.576649 0.028930 0.141231
H16   H     H_    0.765200 0.575984 0.866521 0.147304
H17   H     H_    0.848046 0.546241 0.745988 0.156247
H18   H     H_    0.152172 0.453322 0.811888 0.160104
H19   H     H_    0.237796 0.425909 0.968040 0.145899
H20   H     H_    0.096061 0.878806 0.369601 0.162200
N1    N     N_R   0.246280 0.438190 0.553160 -0.185785
N2    N     N_R   0.754320 0.561190 0.447410 -0.205652
O1    O     O_R   0.972510 0.318130 0.526570 -0.588860
O2    O     O_R   0.806530 0.359650 0.490890 -0.602885
O3    O     O_R   0.082980 0.479210 0.647590 -0.567834
O4    O     O_R   0.917000 0.520730 0.611900 -0.614067
O5    O     O_R   0.193470 0.640350 0.509110 -0.537994
O6    O     O_R   0.027490 0.681870 0.473430 -0.604858
O7    O     O_R   0.083000 0.479270 0.388100 -0.594708
O8    O     O_R   0.917020 0.520790 0.352410 -0.596949
Cl1   Cl    Cl    0.376916 0.808087 0.624053 -0.675068
C47   C     C_3   0.786762 0.878544 0.621178 -0.403360
C48   C     C_3   0.881089 0.876529 0.569545 -0.371665
C49   C     C_3   0.924349 0.784465 0.618007 -0.783286
H21   H     H_    0.958888 0.795866 0.690830 0.242305
H22   H     H_    0.847697 0.697629 0.614539 0.259837
H23   H     H_    0.999967 0.791551 0.584075 0.259738
H24   H     H_    0.839774 0.858402 0.498748 0.231704
H25   H     H_    0.961859 0.961517 0.565350 0.214907
H26   H     H_    0.829765 0.901246 0.690663 0.196628
H27   H     H_    0.710562 0.790757 0.630153 0.207942
C50   C     C_3   0.312021 0.196927 0.697048 -0.448034
C51   C     C_3   0.281571 0.100158 0.641727 -0.335494
C52   C     C_3   0.251504 0.984703 0.703485 -0.771397
H28   H     H_    0.332453 0.987732 0.753180 0.268050
H29   H     H_    0.173238 0.962842 0.741286 0.237623
H30   H     H_    0.225631 0.916212 0.661068 0.270975
H31   H     H_    0.201027 0.092767 0.589976 0.214713
H32   H     H_    0.359938 0.119668 0.604837 0.239161
H33   H     H_    0.392346 0.206830 0.749319 0.200063
H34   H     H_    0.233943 0.171567 0.736349 0.188833
C53   C     C_3   0.268619 0.412665 0.150707 -0.412260
C54   C     C_3   0.377492 0.517046 0.187570 -0.344552
C55   C     C_3   0.459528 0.595799 0.113799 -0.787733
H35   H     H_    0.493993 0.547090 0.084205 0.239182
H36   H     H_    0.408290 0.633623 0.058432 0.264391
H37   H     H_    0.539249 0.667009 0.144511 0.227451
H38   H     H_    0.345433 0.567929 0.216753 0.214644
H39   H     H_    0.433322 0.485212 0.243708 0.214543
H40   H     H_    0.223393 0.348236 0.208450 0.156373
H41   H     H_    0.304586 0.368202 0.117478 0.189014

loop_
_geom_bond_atom_site_label_1
_geom_bond_atom_site_label_2
_ccdc_geom_bond_type
C16   C28   A    
C21   C26   A    
C54   H39   S    
C54   C55   S    
C12   O4    A    
C31   H13   S    
C19   C20   A    
C23   O6    A    
C48   C49   S    
C7    C8    A    
C45   C46   A    
C2    C46   A    
C1    O1    A    
C36   C37   A    
C19   C21   A    
C34   O7    A    
C5    C6    A    
C20   C25   A    
C33   C36   A    
C55   H37   S    
C18   C19   A    
Cu2   O8    S    
C47   H27   S    
Cu2   O6    S    
C41   H7    S    
C27   H20   S    
C18   H5    S    
C51   H31   S    
Cu1   N1    S    
C31   C32   A    
C35   N2    A    
C16   C17   A    
C1    C28   S    
C24   C25   A    
C14   C27   A    
C48   H24   S    
C15   C23   S    
C53   H41   S    
C12   O3    A    
Cu2   O2    S    
C29   C50   S    
C30   N2    A    
C13   H18   S    
C24   H2    S    
C38   C39   A    
C53   H40   S    
C1    O2    A    
C40   H10   S    
C40   N1    A    
Cu1   Cu2   S    
Cu2   O4    S    
C36   C40   A    
C25   H6    S    
Cu1   O3    S    
C23   O5    A    
C51   C52   S    
C8    C9    A    
C15   C26   A    
C20   C28   A    
C3    C45   A    
C17   C47   S    
C35   C39   A    
C43   C44   A    
C37   C38   A    
C15   C27   A    
C14   H3    S    
C7    C13   A    
C44   H9    S    
C30   H11   S    
C52   H29   S    
C17   C18   A    
C51   H32   S    
C55   H36   S    
Cu1   O1    S    
C48   H25   S    
C9    C53   S    
C49   H22   S    
C22   C24   A    
C42   C43   A    
Cu1   O7    S    
C3    C4    A    
C50   H34   S    
C44   C45   A    
C41   N1    A    
C10   H17   S    
C54   H38   S    
C39   H14   S    
C6    C46   A    
C29   C41   A    
C34   C43   S    
C16   H4    S    
Cu2   N2    S    
C47   C48   S    
C11   C12   S    
C6    C7    A    
C3    H15   S    
C49   H23   S    
C4    H16   S    
C26   Cl1   S    
C32   C33   A    
C14   C22   A    
Cu1   O5    S    
C5    C10   A    
C47   H26   S    
C34   O8    A    
C11   C13   A    
C50   C51   S    
C30   C31   A    
C2    C42   A    
C52   H28   S    
C33   C35   A    
C52   H30   S    
C55   H35   S    
C10   C11   A    
C42   H1    S    
C4    C5    A    
C38   H8    S    
C8    H19   S    
C49   H21   S    
C29   C37   A    
C32   H12   S    
C53   C54   S    
C21   C22   A    
C2    C9    A    
C50   H33   S    
