data_mof_unit_40716.cif
_audit_creation_date              2012-10-26T19:09:30-0400
_audit_creation_method            fapswitch 2.2
_symmetry_space_group_name_H-M    P1
_symmetry_Int_Tables_number       1
_space_group_crystal_system       triclinic
_cell_length_a                    10.773392
_cell_length_b                    9.520488
_cell_length_c                    19.35936
_cell_angle_alpha                 89.981786
_cell_angle_beta                  89.941734
_cell_angle_gamma                 90.03409
_cell_volume                      1985.64837518

loop_
_atom_site_label
_atom_site_type_symbol
_atom_type_description
_atom_site_fract_x
_atom_site_fract_y
_atom_site_fract_z
_atom_type_partial_charge
C1    C     C_R   0.262617 0.499938 0.500328 0.547585
C2    C     C_R   0.064305 0.525700 0.562986 -0.008307
C3    C     C_R   0.871401 0.500251 0.499406 0.033366
C4    C     C_R   0.128599 0.499744 0.500593 0.033365
C5    C     C_R   0.424393 0.074397 0.456343 0.015613
C6    C     C_R   0.575606 0.925603 0.543657 0.015610
C7    C     C_R   0.575603 0.074427 0.543657 0.015704
C8    C     C_R   0.424397 0.925573 0.456343 0.015705
C9    C     C_R   0.498673 0.627276 0.254857 -0.137899
C10   C     C_R   0.501328 0.372724 0.745143 -0.137897
C11   C     C_R   0.501366 0.627251 0.745094 -0.140746
C12   C     C_R   0.737382 0.500061 0.499671 0.547584
C13   C     C_R   0.498625 0.372749 0.254905 -0.140741
C14   C     C_R   0.498696 0.627280 0.182895 -0.120582
C15   C     C_R   0.501304 0.372720 0.817105 -0.120584
C16   C     C_R   0.501342 0.627277 0.817057 -0.120801
C17   C     C_R   0.498648 0.372723 0.182943 -0.120801
C18   C     C_R   0.498824 0.499997 0.146204 0.034295
C19   C     C_R   0.501171 0.500002 0.853796 0.034294
C20   C     C_R   0.498822 0.500019 0.291479 0.005373
C21   C     C_R   0.501174 0.499980 0.708520 0.005377
C22   C     C_3   0.142077 0.447820 0.372527 -0.382800
C23   C     C_R   0.500653 0.500003 0.929932 0.344672
C24   C     C_3   0.857920 0.551977 0.627491 -0.382804
C25   C     C_3   0.866359 0.448991 0.369787 -0.380684
C26   C     C_3   0.133639 0.551074 0.630207 -0.380715
C27   C     C_R   0.499342 0.499997 0.070068 0.344673
C28   C     C_R   0.499310 0.500017 0.367412 0.528223
C29   C     C_R   0.500688 0.499983 0.632588 0.528225
C30   C     C_R   0.066278 0.473841 0.437766 -0.014719
C31   C     C_R   0.933721 0.526091 0.562239 -0.014719
C32   C     C_R   0.935695 0.474301 0.437013 -0.008308
Cu1   Cu    Cu3+1 0.500000 0.640660 0.500000 0.925279
Cu2   Cu    Cu3+1 0.500000 0.359340 0.500000 0.925284
H1    H     H_    0.498658 0.727046 0.281726 0.127640
H2    H     H_    0.636188 0.869532 0.578626 0.104639
H3    H     H_    0.636177 0.130525 0.578632 0.109309
H4    H     H_    0.363822 0.869475 0.421368 0.109315
H5    H     H_    0.200393 0.352745 0.379389 0.140080
H6    H     H_    0.086536 0.431118 0.325273 0.126521
H7    H     H_    0.203423 0.539396 0.362484 0.133161
H8    H     H_    0.799635 0.647092 0.620683 0.140057
H9    H     H_    0.796544 0.460400 0.637474 0.133173
H10   H     H_    0.913459 0.568505 0.674760 0.126534
H11   H     H_    0.764172 0.453108 0.374619 0.148448
H12   H     H_    0.501347 0.272954 0.718274 0.127638
H13   H     H_    0.892302 0.530717 0.331469 0.130517
H14   H     H_    0.889748 0.343317 0.349331 0.132958
H15   H     H_    0.235830 0.547208 0.625354 0.148494
H16   H     H_    0.110084 0.656670 0.650698 0.132946
H17   H     H_    0.107854 0.469241 0.668504 0.130519
H18   H     H_    0.501416 0.727012 0.718187 0.126649
H19   H     H_    0.498571 0.272988 0.281813 0.126651
H20   H     H_    0.498735 0.727153 0.156125 0.137360
H21   H     H_    0.501269 0.272847 0.843874 0.137360
H22   H     H_    0.501336 0.727156 0.843789 0.137361
H23   H     H_    0.498649 0.272843 0.156211 0.137361
H24   H     H_    0.363810 0.130468 0.421374 0.104620
N1    N     N_R   0.500000 0.852070 0.500000 -0.222390
N2    N     N_R   0.500000 0.147930 0.500000 -0.222388
N3    N     N_R   0.499662 0.377345 0.034364 -0.230082
N4    N     N_R   0.500332 0.622654 0.965636 -0.230082
N5    N     N_R   0.500291 0.377349 0.965674 -0.229997
N6    N     N_R   0.499703 0.622650 0.034326 -0.229997
O1    O     O_R   0.319640 0.618740 0.500000 -0.500188
O2    O     O_R   0.680360 0.381260 0.500000 -0.500174
O3    O     O_R   0.680360 0.618740 0.500000 -0.499748
O4    O     O_R   0.319640 0.381260 0.500000 -0.499752
O5    O     O_R   0.499980 0.618820 0.400140 -0.505198
O6    O     O_R   0.500020 0.381180 0.599860 -0.505194
O7    O     O_R   0.500020 0.618820 0.599860 -0.510628
O8    O     O_R   0.499980 0.381180 0.400140 -0.510615

loop_
_geom_bond_atom_site_label_1
_geom_bond_atom_site_label_2
_ccdc_geom_bond_type
C10   H12   S    
C5    C8    A    
C2    C4    A    
C9    C14   A    
C16   H22   S    
C12   O2    A    
C6    C7    A    
C3    C12   S    
Cu1   O5    S    
C8    N1    A    
C30   C32   A    
C22   C30   S    
C11   C16   A    
C14   C18   A    
C9    C20   A    
C1    O1    A    
C28   O5    A    
Cu2   N2    S    
C13   C17   A    
C1    C4    S    
C22   H6    S    
Cu2   O2    S    
C25   C32   S    
C23   N5    A    
C17   C18   A    
C7    H3    S    
C24   C31   S    
Cu1   O1    S    
C2    C26   S    
C26   H17   S    
Cu2   O6    S    
C3    C31   A    
C25   H14   S    
C28   O8    A    
C8    H4    S    
C5    H24   S    
C16   C19   A    
C22   H5    S    
C14   H20   S    
C6    H2    S    
Cu1   Cu2   S    
C13   H19   S    
C10   C15   A    
C26   H16   S    
C10   C21   A    
C3    C32   A    
C24   H10   S    
C12   O3    A    
C9    H1    S    
C22   H7    S    
C27   N6    A    
Cu1   O7    S    
C25   H11   S    
C11   C21   A    
C20   C28   S    
Cu2   O8    S    
C7    N2    A    
C1    O4    A    
C24   H8    S    
Cu1   O3    S    
Cu1   N1    S    
C29   O6    A    
C26   H15   S    
Cu2   O4    S    
N3    N5    A    
C24   H9    S    
C25   H13   S    
C19   C23   S    
N4    N6    A    
C11   H18   S    
C27   N3    A    
C5    N2    A    
C15   C19   A    
C21   C29   S    
C6    N1    A    
C13   C20   A    
C23   N4    A    
C4    C30   A    
C18   C27   S    
C17   H23   S    
C2    C31   A    
C29   O7    A    
C15   H21   S    
