data_mof_unit_15115.cif
_audit_creation_date              2012-10-26T18:33:33-0400
_audit_creation_method            fapswitch 2.2
_symmetry_space_group_name_H-M    P1
_symmetry_Int_Tables_number       1
_space_group_crystal_system       triclinic
_cell_length_a                    15.07637
_cell_length_b                    13.692554
_cell_length_c                    10.750043
_cell_angle_alpha                 90.232831
_cell_angle_beta                  89.607494
_cell_angle_gamma                 90.023942
_cell_volume                      2219.10392418

loop_
_atom_site_label
_atom_site_type_symbol
_atom_type_description
_atom_site_fract_x
_atom_site_fract_y
_atom_site_fract_z
_atom_type_partial_charge
Br1   Br    Br    0.684747 0.551113 0.858854 -0.492055
Br2   Br    Br    0.621486 0.336614 0.889413 -0.499840
C1    C     C_R   0.328507 0.499999 0.499872 0.566193
C2    C     C_R   0.046210 0.679530 0.499625 0.274952
C3    C     C_R   0.093158 0.590473 0.500184 0.023392
C4    C     C_R   0.495155 0.500082 0.260176 0.584550
C5    C     C_R   0.046593 0.500901 0.503198 0.022408
C6    C     C_R   0.092926 0.411299 0.505120 0.016621
C7    C     C_R   0.046248 0.322808 0.508143 -0.127074
C8    C     C_R   0.953839 0.322736 0.508566 -0.117700
C9    C     C_R   0.185745 0.589052 0.498309 -0.111737
C10   C     C_R   0.231750 0.500142 0.500413 -0.012261
C11   C     C_R   0.185245 0.411585 0.503799 -0.149010
C12   C     C_3   0.588958 0.471780 0.930466 0.177262
C13   C     C_R   0.430336 0.793594 0.552131 0.011853
C14   C     C_R   0.431958 0.206697 0.556368 0.037711
C15   C     C_R   0.568182 0.793232 0.444074 0.032569
C16   C     C_R   0.567537 0.206485 0.442543 0.045380
C17   C     C_R   0.569491 0.896266 0.441889 -0.015937
C18   C     C_R   0.569268 0.103444 0.441384 -0.012843
C19   C     C_R   0.671518 0.500033 0.500298 0.582197
C20   C     C_R   0.499340 0.948201 0.498347 0.056168
C21   C     C_R   0.499475 0.051800 0.498717 0.055645
C22   C     C_R   0.428918 0.896584 0.554097 -0.020432
C23   C     C_R   0.814788 0.411537 0.505084 -0.105705
C24   C     C_R   0.429773 0.103695 0.556325 -0.011578
C25   C     C_R   0.639014 0.948377 0.384921 -0.141322
C26   C     C_R   0.638790 0.051040 0.384395 -0.136596
C27   C     C_R   0.359778 0.051582 0.612158 -0.143419
C28   C     C_R   0.359173 0.948938 0.610596 -0.145937
C29   C     C_R   0.497174 0.500272 0.740460 0.644621
C30   C     C_3   0.457298 0.601648 0.073611 0.205307
C31   C     C_3   0.432289 0.416656 0.072040 0.218818
C32   C     C_3   0.471612 0.606095 0.930506 0.200404
C33   C     C_3   0.423155 0.427020 0.928343 0.187328
C34   C     C_R   0.768352 0.500194 0.501616 0.019067
C35   C     C_3   0.588294 0.484813 0.073668 -0.314704
C36   C     C_3   0.492179 0.500909 0.122576 -0.026494
C37   C     C_3   0.494994 0.501093 0.879002 0.022683
C38   C     C_3   0.096832 0.807442 0.613056 -0.136138
C39   C     C_3   0.347608 0.690407 0.184346 -0.062149
C40   C     C_3   0.320721 0.325132 0.168710 -0.097251
C41   C     C_3   0.399778 0.746764 0.862234 -0.089961
C42   C     C_3   0.289621 0.392406 0.826919 -0.087602
C43   C     C_R   0.814638 0.589070 0.499641 -0.110367
C44   C     C_R   0.907037 0.589907 0.500629 -0.028499
C45   C     C_R   0.953605 0.500705 0.503591 0.050258
C46   C     C_R   0.907181 0.411160 0.505954 0.029760
C47   C     C_R   0.953408 0.678500 0.498020 -0.101788
Cu1   Cu    Cu3+1 0.499990 0.597420 0.500010 0.961481
Cu2   Cu    Cu3+1 0.499990 0.402580 0.500010 0.970415
H1    H     H_    0.498839 0.661376 0.114053 0.057062
H2    H     H_    0.620206 0.247050 0.397416 0.120743
H3    H     H_    0.693549 0.909766 0.340779 0.110572
H4    H     H_    0.693125 0.089426 0.339780 0.114311
H5    H     H_    0.305417 0.090183 0.656753 0.095694
H6    H     H_    0.304391 0.910539 0.654057 0.091814
H7    H     H_    0.530608 0.653378 0.912074 0.094620
H8    H     H_    0.437070 0.353298 0.887658 0.094512
H9    H     H_    0.629565 0.548658 0.101121 0.144940
H10   H     H_    0.618650 0.420215 0.119216 0.170999
H11   H     H_    0.779183 0.342718 0.506825 0.131166
H12   H     H_    0.468445 0.346776 0.090580 0.079840
H13   H     H_    0.778887 0.657733 0.497110 0.126260
H14   H     H_    0.917801 0.747193 0.494541 0.122809
H15   H     H_    0.133941 0.877282 0.607645 0.135763
H16   H     H_    0.134100 0.758091 0.676071 0.121759
H17   H     H_    0.030060 0.823866 0.652678 0.127178
H18   H     H_    0.386109 0.757443 0.162389 0.066741
H19   H     H_    0.359317 0.668283 0.281684 0.165693
H20   H     H_    0.276363 0.709565 0.177216 0.149107
H21   H     H_    0.363639 0.297727 0.244684 0.131410
H22   H     H_    0.321177 0.273002 0.089103 0.087529
H23   H     H_    0.222240 0.657208 0.495546 0.159744
H24   H     H_    0.251888 0.329458 0.205436 0.147277
H25   H     H_    0.455606 0.769425 0.800909 0.119060
H26   H     H_    0.407502 0.781617 0.954736 0.103771
H27   H     H_    0.337159 0.774041 0.821516 0.123280
H28   H     H_    0.280234 0.323143 0.878900 0.095248
H29   H     H_    0.323771 0.378202 0.736941 0.108832
H30   H     H_    0.223086 0.422533 0.806153 0.156194
H31   H     H_    0.220769 0.342753 0.505521 0.108945
H32   H     H_    0.081230 0.253700 0.509834 0.104446
H33   H     H_    0.918863 0.253590 0.510510 0.114168
H34   H     H_    0.376124 0.753122 0.593435 0.130643
H35   H     H_    0.379184 0.247329 0.601280 0.101074
H36   H     H_    0.621495 0.752473 0.400436 0.119176
N1    N     N_R   0.499930 0.743810 0.499950 -0.248334
N2    N     N_R   0.499930 0.256190 0.499950 -0.237966
O1    O     O_R   0.370250 0.582280 0.500040 -0.525725
O2    O     O_3   0.365189 0.611959 0.101962 -0.440344
O3    O     O_3   0.347584 0.419318 0.131344 -0.468771
O4    O     O_3   0.395037 0.643987 0.870810 -0.468132
O5    O     O_3   0.336774 0.461408 0.898321 -0.446860
O6    O     O_R   0.370250 0.417720 0.500040 -0.529357
O7    O     O_R   0.499970 0.582270 0.317700 -0.529564
O8    O     O_R   0.499970 0.417730 0.317700 -0.512494
O9    O     O_R   0.629730 0.582260 0.499980 -0.507884
O10   O     O_R   0.629730 0.417740 0.499980 -0.499035
O11   O     O_R   0.500000 0.582270 0.682320 -0.458807
O12   O     O_R   0.500000 0.417730 0.682320 -0.480868
O13   O     O_3   0.090688 0.767671 0.492260 -0.576883

loop_
_geom_bond_atom_site_label_1
_geom_bond_atom_site_label_2
_ccdc_geom_bond_type
Cu2   O8    S    
C6    C11   A    
C15   N1    A    
C32   O4    S    
C25   H3    S    
C5    C6    A    
C19   C34   S    
C43   C44   A    
C41   H27   S    
C44   C47   A    
C40   H24   S    
C27   C28   A    
C47   H14   S    
C1    O1    A    
C29   O12   A    
C3    C9    A    
C19   O10   A    
C30   O2    S    
C28   H6    S    
C33   H8    S    
C21   C24   A    
C30   H1    S    
C1    C10   S    
C16   H2    S    
C41   O4    S    
C12   C37   S    
Cu1   O1    S    
C6    C7    A    
C38   H16   S    
C2    O13   S    
C4    C36   S    
C30   C36   S    
C17   C25   A    
C7    C8    A    
C16   C18   A    
Cu1   N1    S    
C39   H20   S    
C14   N2    A    
C38   H15   S    
C14   H35   S    
C26   H4    S    
Cu2   O10   S    
Cu1   O9    S    
C32   C37   S    
C4    O8    A    
C42   H29   S    
C17   C20   A    
C42   H30   S    
C31   O3    S    
C3    C5    A    
C18   C26   A    
C11   H31   S    
C9    H23   S    
C5    C45   A    
C33   C37   S    
C35   C36   S    
C45   C46   A    
C18   C21   A    
C31   H12   S    
C40   H21   S    
Cu1   Cu2   S    
C34   C43   A    
C29   O11   A    
C23   C46   A    
C7    H32   S    
C13   C22   A    
C39   O2    S    
C4    O7    A    
C8    C46   A    
C20   C22   A    
Cu2   O12   S    
C39   H18   S    
C33   O5    S    
C41   H25   S    
C44   C45   A    
C40   H22   S    
C15   H36   S    
C16   N2    A    
C42   H28   S    
C2    C3    A    
C14   C24   A    
C35   H10   S    
C9    C10   A    
C27   H5    S    
C41   H26   S    
C43   H13   S    
Cu1   O11   S    
C31   C36   S    
C13   H34   S    
C2    C47   A    
Cu2   N2    S    
C12   C35   S    
C19   O9    A    
C31   C33   S    
Cu1   O7    S    
C8    H33   S    
C15   C17   A    
C29   C37   S    
C40   O3    S    
C23   H11   S    
Br2   C12   S    
C22   C28   A    
C35   H9    S    
C42   O5    S    
C23   C34   A    
C38   O13   S    
C10   C11   A    
C24   C27   A    
C38   H17   S    
Cu2   O6    S    
C25   C26   A    
C32   H7    S    
C20   C21   A    
C39   H19   S    
C1    O6    A    
Br1   C12   S    
C30   C32   S    
C13   N1    A    
