data_mof_unit_7185.cif
_audit_creation_date              2012-10-26T21:05:22-0400
_audit_creation_method            fapswitch 2.2
_symmetry_space_group_name_H-M    P1
_symmetry_Int_Tables_number       1
_space_group_crystal_system       triclinic
_cell_length_a                    9.60436
_cell_length_b                    10.820411
_cell_length_c                    13.874358
_cell_angle_alpha                 93.593427
_cell_angle_beta                  84.82492
_cell_angle_gamma                 90.830992
_cell_volume                      1433.10909338

loop_
_atom_site_label
_atom_site_type_symbol
_atom_type_description
_atom_site_fract_x
_atom_site_fract_y
_atom_site_fract_z
_atom_type_partial_charge
C1    C     C_R   0.500403 0.737790 0.505548 0.534784
C2    C     C_R   0.596740 0.933443 0.454167 -0.151312
C3    C     C_R   0.594846 0.060584 0.452270 -0.154111
C4    C     C_R   0.477332 0.494901 0.682498 0.529639
C5    C     C_R   0.494372 0.129259 0.510749 0.003295
C6    C     C_R   0.870410 0.333922 0.370274 -0.083934
C7    C     C_R   0.949551 0.251544 0.307828 -0.172487
C8    C     C_R   0.092994 0.250749 0.308559 -0.165902
C9    C     C_R   0.158273 0.332531 0.371582 -0.081195
C10   C     C_R   0.081764 0.417698 0.436836 0.155496
C11   C     C_R   0.932264 0.418086 0.436521 0.160411
C12   C     C_1   0.463834 0.488056 0.785320 -0.029507
C13   C     C_R   0.919553 0.578269 0.560284 -0.000856
C14   C     C_R   0.067426 0.578330 0.560192 -0.000347
C15   C     C_R   0.498227 0.262749 0.503312 0.526961
C16   C     C_R   0.522669 0.499718 0.317110 0.538848
C17   C     C_1   0.536083 0.500522 0.213866 -0.022155
C18   C     C_2   0.556204 0.503544 0.023314 -0.125624
C19   C     C_2   0.443964 0.478095 0.975356 -0.125862
C20   C     C_1   0.453615 0.482765 0.871903 -0.059836
C21   C     C_1   0.546223 0.501688 0.126980 -0.053176
C22   C     C_3   0.389267 0.782450 0.720757 -0.265733
C23   C     C_R   0.335996 0.889296 0.669531 0.030031
C24   C     C_3   0.427797 0.823997 0.822657 -0.450335
C25   C     C_R   0.221119 0.953170 0.717295 -0.101466
C26   C     C_R   0.199040 0.075637 0.700044 -0.141057
C27   C     C_R   0.291668 0.135995 0.635768 -0.111699
C28   C     C_R   0.397781 0.070071 0.577093 0.016975
C29   C     C_R   0.411520 0.941152 0.587841 0.033899
C30   C     C_R   0.503630 0.872479 0.518652 -0.006149
Cu1   Cu    Cu3+1 0.359340 0.500010 0.500010 0.910748
Cu2   Cu    Cu3+1 0.640660 0.499990 0.499990 0.922438
H1    H     H_    0.344173 0.454939 0.013551 0.135078
H2    H     H_    0.115617 0.126625 0.741906 0.115200
H3    H     H_    0.277029 0.234167 0.634106 0.162116
H4    H     H_    0.668708 0.105247 0.401552 0.116047
H5    H     H_    0.859022 0.642478 0.609670 0.114390
H6    H     H_    0.480765 0.747708 0.854276 0.147308
H7    H     H_    0.333159 0.849106 0.871476 0.147262
H8    H     H_    0.500432 0.904803 0.819415 0.160326
H9    H     H_    0.307219 0.709406 0.726179 0.155328
H10   H     H_    0.486074 0.743530 0.682925 0.156619
H11   H     H_    0.761391 0.327575 0.363187 0.176043
H12   H     H_    0.898913 0.188029 0.258272 0.114479
H13   H     H_    0.154518 0.186616 0.259577 0.119917
H14   H     H_    0.268845 0.325154 0.365714 0.182217
H15   H     H_    0.117183 0.642668 0.609469 0.111824
H16   H     H_    0.655817 0.527142 0.985068 0.132353
H17   H     H_    0.669534 0.881863 0.403041 0.134321
H18   H     H_    0.156219 0.911783 0.774845 0.106410
N1    N     N_R   0.852210 0.498790 0.499090 -0.241204
N2    N     N_R   0.148080 0.498710 0.499060 -0.243833
O1    O     O_R   0.381190 0.680360 0.500010 -0.487015
O2    O     O_R   0.618760 0.680340 0.500000 -0.503030
O3    O     O_R   0.364420 0.499990 0.637850 -0.514920
O4    O     O_R   0.601990 0.499960 0.637840 -0.492684
O5    O     O_R   0.381240 0.319660 0.500000 -0.535748
O6    O     O_R   0.618810 0.319640 0.499990 -0.512644
O7    O     O_R   0.398010 0.500040 0.362160 -0.506087
O8    O     O_R   0.635580 0.500010 0.362150 -0.510855

loop_
_geom_bond_atom_site_label_1
_geom_bond_atom_site_label_2
_ccdc_geom_bond_type
Cu1   O1    S    
C24   H6    S    
C1    O2    A    
Cu2   N1    S    
C6    C7    A    
C2    H17   S    
C13   C14   A    
C4    C12   S    
C5    C28   A    
C9    C10   A    
C13   H5    S    
Cu1   Cu2   S    
Cu2   O6    S    
Cu1   N2    S    
C2    C30   A    
C10   N2    A    
Cu1   O5    S    
C19   C20   S    
C2    C3    A    
C7    C8    A    
C7    H12   S    
C4    O4    A    
C15   O5    A    
C6    C11   A    
C12   C20   T    
C26   C27   A    
C22   H10   S    
C3    H4    S    
Cu1   O3    S    
C23   C29   A    
Cu2   O2    S    
C28   C29   A    
C24   H8    S    
C26   H2    S    
C6    H11   S    
C23   C25   A    
C4    O3    A    
C16   O8    A    
C15   O6    A    
C22   C24   S    
C5    C15   S    
C22   H9    S    
C11   N1    A    
C10   C11   A    
Cu2   O8    S    
C29   C30   A    
C18   C21   S    
C9    H14   S    
C24   H7    S    
C18   C19   D    
C19   H1    S    
Cu1   O7    S    
C27   C28   A    
C1    O1    A    
C25   H18   S    
C1    C30   S    
C27   H3    S    
C25   C26   A    
C13   N1    A    
C14   H15   S    
Cu2   O4    S    
C22   C23   S    
C14   N2    A    
C8    H13   S    
C16   C17   S    
C18   H16   S    
C8    C9    A    
C3    C5    A    
C16   O7    A    
C17   C21   T    
