data_mof_unit_58132.cif
_audit_creation_date              2012-10-26T20:16:41-0400
_audit_creation_method            fapswitch 2.2
_symmetry_space_group_name_H-M    P1
_symmetry_Int_Tables_number       1
_space_group_crystal_system       triclinic
_cell_length_a                    10.918302
_cell_length_b                    10.810976
_cell_length_c                    10.051661
_cell_angle_alpha                 98.544377
_cell_angle_beta                  99.356877
_cell_angle_gamma                 93.702415
_cell_volume                      1152.8967102

loop_
_atom_site_label
_atom_site_type_symbol
_atom_type_description
_atom_site_fract_x
_atom_site_fract_y
_atom_site_fract_z
_atom_type_partial_charge
C1    C     C_R   0.499315 0.262481 0.499552 0.541096
C2    C     C_R   0.414425 0.860852 0.811485 -0.053403
C3    C     C_R   0.567718 0.087140 0.267047 0.065597
C4    C     C_R   0.360814 0.893421 0.686260 0.043029
C5    C     C_R   0.689702 0.102613 0.241147 -0.092064
C6    C     C_R   0.230594 0.880486 0.647304 -0.102010
C7    C     C_R   0.709445 0.119769 0.110787 -0.121112
C8    C     C_R   0.154975 0.837157 0.733434 -0.115467
C9    C     C_R   0.607574 0.120653 0.006654 -0.119988
C10   C     C_R   0.208895 0.806968 0.858960 -0.115229
C11   C     C_R   0.546417 0.921890 0.402723 -0.161905
C12   C     C_R   0.496785 0.736618 0.500352 0.545996
C13   C     C_R   0.444281 0.075261 0.596594 -0.166493
C14   C     C_R   0.494741 0.870336 0.502086 0.003381
C15   C     C_R   0.497520 0.127439 0.497582 -0.003808
C16   C     C_R   0.262547 0.499880 0.498819 0.541687
C17   C     C_R   0.737449 0.499433 0.500618 0.539081
C18   C     C_R   0.438991 0.946446 0.597551 -0.031428
C19   C     C_R   0.542809 0.048367 0.395053 -0.034773
C20   C     C_2   0.507124 0.513613 0.076663 0.120731
C21   C     C_2   0.495497 0.481710 0.921403 0.114770
C22   C     C_R   0.163778 0.513298 0.044813 -0.094143
C23   C     C_R   0.872068 0.499303 0.501499 -0.008253
C24   C     C_R   0.823366 0.326206 0.869493 -0.087261
C25   C     C_R   0.127772 0.548410 0.171407 -0.050357
C26   C     C_R   0.872516 0.350830 0.755893 -0.065848
C27   C     C_R   0.075414 0.456735 0.236160 0.059569
C28   C     C_R   0.917293 0.473537 0.748444 0.059254
C29   C     C_R   0.060112 0.330348 0.173541 -0.087646
C30   C     C_R   0.914205 0.571109 0.855798 -0.069213
C31   C     C_R   0.094632 0.296177 0.046299 -0.119251
C32   C     C_R   0.866403 0.545590 0.970319 -0.102110
C33   C     C_R   0.144405 0.387906 0.981077 -0.107201
C34   C     C_R   0.128038 0.500576 0.495905 -0.001796
C35   C     C_R   0.818437 0.423550 0.976020 -0.076570
C36   C     C_R   0.915435 0.495536 0.377723 -0.163802
C37   C     C_R   0.084621 0.506499 0.619937 -0.155084
C38   C     C_3   0.429282 0.356776 0.851513 -0.305462
C39   C     C_3   0.594706 0.627743 0.143487 -0.322364
C40   C     C_R   0.957849 0.499345 0.622642 -0.037708
C41   C     C_R   0.041347 0.489853 0.372395 -0.036697
C42   C     C_R   0.486442 0.108537 0.033437 -0.126987
C43   C     C_R   0.338423 0.817511 0.897344 -0.109086
C44   C     C_R   0.466285 0.090581 0.162617 -0.061896
Cu1   Cu    Cu3+1 0.521120 0.521140 0.639640 0.922577
Cu2   Cu    Cu3+1 0.478880 0.478860 0.360360 0.928194
H1    H     H_    0.166804 0.361795 0.880493 0.094780
H2    H     H_    0.387529 0.369946 0.107157 0.220680
H3    H     H_    0.205169 0.583141 0.995057 0.100379
H4    H     H_    0.792013 0.231118 0.875347 0.086482
H5    H     H_    0.141934 0.645924 0.219607 0.093980
H6    H     H_    0.874444 0.274844 0.673003 0.088086
H7    H     H_    0.080974 0.198977 0.997263 0.095784
H8    H     H_    0.869603 0.620329 0.055354 0.082293
H9    H     H_    0.850573 0.491902 0.283526 0.126806
H10   H     H_    0.148896 0.508892 0.714751 0.132274
H11   H     H_    0.407763 0.107856 0.952582 0.105839
H12   H     H_    0.779596 0.403366 0.063438 0.113432
H13   H     H_    0.379663 0.794230 0.994698 0.100334
H14   H     H_    0.371601 0.075746 0.180460 0.103423
H15   H     H_    0.514671 0.870730 0.843305 0.112776
H16   H     H_    0.367969 0.309619 0.907560 0.033268
H17   H     H_    0.365317 0.365536 0.757673 0.175916
H18   H     H_    0.500948 0.291557 0.833734 0.148046
H19   H     H_    0.550608 0.714132 0.123336 0.085641
H20   H     H_    0.628597 0.634218 0.252175 0.198603
H21   H     H_    0.681618 0.625845 0.101993 0.061128
H22   H     H_    0.021130 0.258621 0.223224 0.091142
H23   H     H_    0.768621 0.097605 0.320198 0.091039
H24   H     H_    0.947542 0.666277 0.850169 0.084299
H25   H     H_    0.621214 0.127343 0.903994 0.101139
H26   H     H_    0.150353 0.776450 0.927043 0.088901
H27   H     H_    0.187819 0.905201 0.550959 0.097405
H28   H     H_    0.803373 0.129028 0.089658 0.093728
H29   H     H_    0.054594 0.828131 0.703479 0.104046
H30   H     H_    0.585072 0.862328 0.326616 0.111982
H31   H     H_    0.399109 0.133349 0.667575 0.102923
H32   H     H_    0.594105 0.640066 0.895724 0.199378
N1    N     N_2   0.447120 0.447110 0.150550 -0.340917
N2    N     N_2   0.552880 0.552890 0.849450 -0.341522
O1    O     O_R   0.517830 0.337490 0.617920 -0.518816
O2    O     O_R   0.482170 0.662510 0.382080 -0.521007
O3    O     O_R   0.482150 0.301790 0.382070 -0.486939
O4    O     O_R   0.517850 0.698210 0.617930 -0.498421
O5    O     O_R   0.337480 0.517860 0.617920 -0.515284
O6    O     O_R   0.662520 0.482140 0.382080 -0.521281
O7    O     O_R   0.301810 0.482160 0.382070 -0.484656
O8    O     O_R   0.698190 0.517840 0.617930 -0.475636

loop_
_geom_bond_atom_site_label_1
_geom_bond_atom_site_label_2
_ccdc_geom_bond_type
C27   C29   A    
C17   O8    A    
C14   C18   A    
Cu1   O5    S    
Cu1   Cu2   S    
C15   C19   A    
C11   C19   A    
C9    C42   A    
C17   C23   S    
C13   C18   A    
C35   H12   S    
H2    N1    S    
C24   C26   A    
C38   H17   S    
C37   C40   A    
C11   H30   S    
Cu2   N1    S    
C11   C14   A    
H32   N2    S    
C28   C40   S    
C1    O1    A    
C23   C40   A    
C34   C37   A    
C12   O4    A    
C5    H23   S    
C16   C34   S    
Cu2   O2    S    
C37   H10   S    
C21   C38   S    
C22   C25   A    
C16   O7    A    
C31   C33   A    
C3    C19   S    
C1    C15   S    
C2    H15   S    
C43   H13   S    
C4    C18   S    
C39   H19   S    
C36   C41   A    
C34   C41   A    
C42   C44   A    
C42   H11   S    
C32   H8    S    
C30   H24   S    
C7    H28   S    
C38   H18   S    
C24   H4    S    
C13   H31   S    
C3    C44   A    
C24   C35   A    
C17   O6    A    
C32   C35   A    
Cu1   O8    S    
C4    C6    A    
C5    C7    A    
C20   C39   S    
C6    C8    A    
C8    H29   S    
C2    C4    A    
C25   H5    S    
C26   H6    S    
C29   H22   S    
C27   C41   S    
C2    C43   A    
C12   O2    A    
C31   H7    S    
C22   H3    S    
C12   C14   S    
C13   C15   A    
C16   O5    A    
C33   H1    S    
C39   H20   S    
Cu1   O4    S    
C25   C27   A    
C6    H27   S    
Cu2   O7    S    
C7    C9    A    
C22   C33   A    
C20   N1    D    
C10   C43   A    
C39   H21   S    
Cu1   O1    S    
C9    H25   S    
C3    C5    A    
C1    O3    A    
C26   C28   A    
C28   C30   A    
C29   C31   A    
C36   H9    S    
C30   C32   A    
C44   H14   S    
C21   N2    D    
Cu1   N2    S    
Cu2   O3    S    
C20   C21   S    
C8    C10   A    
C23   C36   A    
Cu2   O6    S    
C38   H16   S    
C10   H26   S    
