data_mof_unit_50550.cif
_audit_creation_date              2012-10-26T18:29:56-0400
_audit_creation_method            fapswitch 2.2
_symmetry_space_group_name_H-M    P1
_symmetry_Int_Tables_number       1
_space_group_crystal_system       triclinic
_cell_length_a                    10.795597
_cell_length_b                    12.989941
_cell_length_c                    11.672903
_cell_angle_alpha                 100.737005
_cell_angle_beta                  94.447985
_cell_angle_gamma                 90.657058
_cell_volume                      1602.87620612

loop_
_atom_site_label
_atom_site_type_symbol
_atom_type_description
_atom_site_fract_x
_atom_site_fract_y
_atom_site_fract_z
_atom_type_partial_charge
C1    C     C_R   0.499535 0.298648 0.477494 0.543019
C2    C     C_R   0.479473 0.031911 0.551932 0.001710
C3    C     C_R   0.508632 0.967769 0.447253 -0.006472
C4    C     C_R   0.259807 0.492571 0.498635 0.571606
C5    C     C_R   0.514809 0.860383 0.440720 -0.164588
C6    C     C_R   0.459052 0.879032 0.642457 0.127269
C7    C     C_R   0.454680 0.987923 0.648607 -0.101692
C8    C     C_R   0.430532 0.371807 0.016855 0.219301
C9    C     C_R   0.432010 0.388902 0.141007 0.069669
C10   C     C_R   0.523508 0.557983 0.158832 0.018931
C11   C     C_R   0.524317 0.545554 0.035594 -0.041761
C12   C     C_3   0.878075 0.493538 0.502089 -0.027918
C13   C     C_R   0.476545 0.452106 0.963924 0.020649
C14   C     C_R   0.476006 0.441541 0.840299 0.056463
C15   C     C_R   0.573264 0.608690 0.859847 0.043078
C16   C     C_R   0.497639 0.701187 0.522459 0.554774
C17   C     C_R   0.573963 0.623605 0.982427 -0.184987
C18   C     C_R   0.740248 0.499713 0.500787 0.549750
C19   C     C_3   0.083009 0.467088 0.619545 -0.004733
C20   C     C_3   0.939545 0.473240 0.622601 0.048607
C21   C     C_3   0.072650 0.598511 0.484187 -0.027211
C22   C     C_3   0.059040 0.399149 0.393354 0.551291
C23   C     C_3   0.929210 0.596948 0.474103 -0.263670
C24   C     C_3   0.121086 0.487029 0.496939 0.074073
C25   C     C_3   0.147542 0.750046 0.406505 -0.312610
C26   C     C_3   0.435812 0.893659 0.855494 -0.328649
C27   C     C_3   0.540039 0.102787 0.151580 -0.162197
C28   C     C_3   0.123233 0.354043 0.765704 -0.317070
C29   C     C_3   0.292301 0.228933 0.977067 -0.174595
C30   C     C_3   0.960355 0.642666 0.778684 -0.318425
C31   C     C_3   0.023876 0.379193 0.182154 -0.164487
C32   C     C_3   0.192008 0.253043 0.336851 -0.088146
C33   C     C_3   0.843277 0.215363 0.322893 -0.259130
C34   C     C_3   0.912489 0.400794 0.403137 0.043735
C35   C     C_R   0.490617 0.815238 0.536778 0.006995
C36   C     C_R   0.500314 0.184297 0.462580 0.005655
C37   C     C_R   0.531687 0.011275 0.349968 -0.129659
C38   C     C_R   0.525557 0.120443 0.354924 0.256902
C39   C     C_R   0.475717 0.139492 0.558905 -0.181881
Cu1   Cu    Cu3+1 0.509350 0.507730 0.615930 0.923063
Cu2   Cu    Cu3+1 0.490650 0.492270 0.384070 0.961111
H1    H     H_    0.129263 0.529696 0.687508 0.149863
H2    H     H_    0.612763 0.695985 0.035159 0.079443
H3    H     H_    0.402459 0.326833 0.182877 0.144476
H4    H     H_    0.563313 0.628752 0.213767 0.120493
H5    H     H_    0.904771 0.393991 0.629866 0.173706
H6    H     H_    0.105970 0.652707 0.566520 0.113112
H7    H     H_    0.894797 0.665885 0.533193 0.125268
H8    H     H_    0.078112 0.610078 0.305341 0.289760
H9    H     H_    0.190875 0.770111 0.329993 0.145520
H10   H     H_    0.213639 0.774421 0.484979 0.150024
H11   H     H_    0.059957 0.793444 0.418308 0.128401
H12   H     H_    0.863553 0.416751 0.321724 0.127208
H13   H     H_    0.350361 0.781015 0.718690 0.253328
H14   H     H_    0.429550 0.840465 0.919182 0.135415
H15   H     H_    0.358523 0.949437 0.866703 0.125939
H16   H     H_    0.526851 0.936673 0.874537 0.150218
H17   H     H_    0.450138 0.057624 0.136478 0.102217
H18   H     H_    0.620560 0.050377 0.140390 0.102052
H19   H     H_    0.541649 0.151890 0.083535 0.174763
H20   H     H_    0.208653 0.341950 0.612633 0.286417
H21   H     H_    0.146521 0.272242 0.771996 0.149655
H22   H     H_    0.029602 0.368989 0.797174 0.140452
H23   H     H_    0.892362 0.604482 0.384371 0.119944
H24   H     H_    0.192435 0.408389 0.822650 0.143311
H25   H     H_    0.216428 0.285918 0.987493 0.100249
H26   H     H_    0.310067 0.194238 0.056505 0.107474
H27   H     H_    0.260186 0.163741 0.904824 0.130543
H28   H     H_    0.862491 0.505804 0.786452 0.250128
H29   H     H_    0.895318 0.691515 0.833420 0.139386
H30   H     H_    0.987914 0.687359 0.713019 0.133588
H31   H     H_    0.042540 0.629296 0.836869 0.123818
H32   H     H_    0.949180 0.432410 0.161382 0.105816
H33   H     H_    0.985267 0.300602 0.183755 0.107497
H34   H     H_    0.539013 0.811677 0.359972 0.113535
H35   H     H_    0.084656 0.371080 0.109319 0.123269
H36   H     H_    0.262912 0.309851 0.322535 0.178024
H37   H     H_    0.147392 0.211643 0.251845 0.094213
H38   H     H_    0.240701 0.193229 0.378602 0.117719
H39   H     H_    0.787495 0.304940 0.472524 0.245908
H40   H     H_    0.793782 0.148744 0.348395 0.157947
H41   H     H_    0.932632 0.185015 0.292599 0.164166
H42   H     H_    0.786314 0.241508 0.250742 0.159108
H43   H     H_    0.555735 0.959199 0.271709 0.086433
H44   H     H_    0.429721 0.038833 0.727417 0.124333
H45   H     H_    0.453570 0.188630 0.640142 0.137484
H46   H     H_    0.435026 0.371927 0.784143 0.160569
H47   H     H_    0.611326 0.669948 0.820667 0.152141
N1    N     N_R   0.523430 0.519360 0.790130 -0.243295
N2    N     N_R   0.476570 0.480640 0.209880 -0.254893
N3    N     N_2   0.121762 0.638268 0.387014 -0.469161
N4    N     N_2   0.425999 0.832292 0.737965 -0.501627
N5    N     N_2   0.125820 0.366688 0.645278 -0.480658
N6    N     N_2   0.898407 0.543784 0.725676 -0.503282
N7    N     N_2   0.863015 0.300015 0.423060 -0.479769
O1    O     O_R   0.506640 0.354460 0.582000 -0.536885
O2    O     O_3   0.401527 0.274205 0.946755 -0.609412
O3    O     O_3   0.095207 0.425355 0.285986 -0.580159
O4    O     O_3   0.102084 0.298765 0.411014 -0.550805
O5    O     O_R   0.490840 0.341410 0.386200 -0.477337
O6    O     O_R   0.325590 0.506510 0.597900 -0.542983
O7    O     O_R   0.309790 0.493450 0.402100 -0.439418
O8    O     O_R   0.509160 0.658590 0.613800 -0.486324
O9    O     O_R   0.493360 0.645540 0.418000 -0.515625
O10   O     O_R   0.690210 0.506550 0.597900 -0.472777
O11   O     O_R   0.674410 0.493490 0.402100 -0.514470
O12   O     O_3   0.552161 0.169398 0.262284 -0.573225

loop_
_geom_bond_atom_site_label_1
_geom_bond_atom_site_label_2
_ccdc_geom_bond_type
C8    C13   A    
C22   O3    S    
C2    C7    A    
C26   H14   S    
C25   H10   S    
C30   H30   S    
C6    C35   A    
C12   C23   S    
Cu1   O1    S    
C14   H46   S    
C27   H19   S    
C16   C35   S    
C4    C24   S    
H20   N5    S    
C31   H32   S    
C26   N4    S    
Cu2   O7    S    
C31   O3    S    
C38   O12   S    
C25   H9    S    
C32   H36   S    
C29   H26   S    
C2    C39   A    
C16   O9    A    
C11   C17   A    
C19   C20   S    
C8    C9    A    
C4    O7    A    
C37   H43   S    
C23   H7    S    
Cu1   N1    S    
Cu1   O8    S    
C33   H41   S    
C19   N5    S    
C19   H1    S    
Cu2   N2    S    
Cu1   O6    S    
C13   C14   A    
H8    N3    S    
C33   N7    S    
C1    O5    A    
C30   H29   S    
C22   C34   S    
C25   N3    S    
Cu2   O11   S    
C34   N7    S    
H28   N6    S    
C31   H33   S    
C28   H24   S    
C28   N5    S    
C5    H34   S    
C8    O2    S    
C17   H2    S    
C14   N1    A    
H13   N4    S    
C37   C38   A    
C15   N1    A    
C29   H27   S    
C16   O8    A    
C27   O12   S    
C4    O6    A    
C12   C20   S    
C10   H4    S    
Cu2   O5    S    
H39   N7    S    
C33   H42   S    
C10   N2    A    
Cu1   Cu2   S    
C21   C23   S    
C22   C24   S    
C12   C34   S    
C21   N3    S    
C15   C17   A    
C20   N6    S    
C23   H23   S    
C9    H3    S    
C22   O4    S    
C36   C39   A    
C3    C5    A    
C27   H17   S    
C26   H15   S    
C9    N2    A    
C30   H31   S    
C32   O4    S    
C6    C7    A    
Cu2   O9    S    
C29   O2    S    
C36   C38   A    
C19   C24   S    
C25   H11   S    
C30   N6    S    
C27   H18   S    
C32   H38   S    
C11   C13   A    
C31   H35   S    
C7    H44   S    
C18   O11   A    
C1    O1    A    
C6    N4    S    
C5    C35   A    
C2    C3    A    
C26   H16   S    
C18   O10   A    
C10   C11   A    
C32   H37   S    
C29   H25   S    
C28   H22   S    
C3    C37   A    
C34   H12   S    
C21   C24   S    
C12   C18   S    
Cu1   O10   S    
C39   H45   S    
C33   H40   S    
C20   H5    S    
C1    C36   S    
C15   H47   S    
C21   H6    S    
C28   H21   S    
