data_mof_unit_13584.cif
_audit_creation_date              2012-12-10T18:42:32-0500
_audit_creation_method            fapswitch 2.2
_symmetry_space_group_name_H-M    P1
_symmetry_Int_Tables_number       1
_space_group_crystal_system       triclinic
_cell_length_a                    8.644318
_cell_length_b                    10.718989
_cell_length_c                    9.842523
_cell_angle_alpha                 90.3075
_cell_angle_beta                  97.002284
_cell_angle_gamma                 90.398964
_cell_volume                      905.149960466

loop_
_atom_site_label
_atom_site_type_symbol
_atom_type_description
_atom_site_fract_x
_atom_site_fract_y
_atom_site_fract_z
_atom_type_partial_charge
C1    C     C_R   0.508078 0.260260 0.500343 0.997545
C2    C     C_R   0.491934 0.739824 0.499814 0.994956
C3    C     C_R   0.202154 0.500877 0.466140 0.957036
C4    C     C_R   0.797873 0.498942 0.533752 0.946918
C5    C     C_2   0.042415 0.525870 0.453975 0.101334
C6    C     C_2   0.957498 0.473352 0.545340 0.079245
C7    C     C_R   0.593432 0.059427 0.410523 0.386667
C8    C     C_R   0.409473 0.940891 0.592182 0.430486
C9    C     C_R   0.577109 0.931746 0.409016 -0.254762
C10   C     C_R   0.424294 0.068613 0.592269 -0.236830
C11   C     C_R   0.489311 0.872466 0.500202 -0.236145
C12   C     C_R   0.511577 0.127752 0.500783 -0.204275
C13   C     C_R   0.564220 0.597131 0.079248 0.043101
C14   C     C_R   0.435551 0.402961 0.920718 0.013798
C15   C     C_R   0.565819 0.596398 0.935658 0.018032
C16   C     C_R   0.433965 0.403694 0.064315 0.045093
H1    H     H_    0.637001 0.877805 0.338503 0.234865
H2    H     H_    0.364826 0.122786 0.662881 0.235332
H3    H     H_    0.614758 0.675310 0.139306 0.177031
H4    H     H_    0.384949 0.324815 0.860647 0.182056
H5    H     H_    0.619774 0.673011 0.887526 0.174481
H6    H     H_    0.380020 0.327071 0.112458 0.166486
N1    N     N_R   0.499960 0.499970 0.857200 -0.114177
N2    N     N_R   0.500040 0.500030 0.142800 -0.103990
O1    O     O_R   0.499990 0.316750 0.614620 -0.632184
O2    O     O_R   0.500010 0.683250 0.385380 -0.619728
O3    O     O_R   0.499990 0.316780 0.385290 -0.594727
O4    O     O_R   0.500010 0.683220 0.614710 -0.582866
O5    O     O_R   0.271750 0.499990 0.587840 -0.576052
O6    O     O_R   0.728250 0.500010 0.412160 -0.556559
O7    O     O_R   0.271750 0.500010 0.358510 -0.584657
O8    O     O_R   0.728250 0.499990 0.641490 -0.628977
Zn1   Zn    Zn3+2 0.500000 0.499980 0.653120 1.057579
Zn2   Zn    Zn3+2 0.500000 0.500020 0.346880 1.097871
S1    S     S_3+6 0.979607 0.648551 0.338120 0.076356
O9    O     O_2   0.900831 0.591986 0.207629 -0.249993
O10   O     O_2   0.867721 0.732912 0.398867 -0.333580
O11   O     O_3   0.133073 0.733625 0.300319 -0.491109
H7    H     H_    0.139815 0.806136 0.363577 0.391811
S2    S     S_3+6 0.019686 0.348711 0.658658 0.077054
O12   O     O_2   0.132998 0.266404 0.597183 -0.275857
O13   O     O_2   0.096452 0.402822 0.791343 -0.313981
O14   O     O_3   0.866092 0.260438 0.689898 -0.489266
H8    H     H_    0.837029 0.290777 0.778522 0.384070
S3    S     S_3+6 0.723711 0.125902 0.304190 0.096374
O15   O     O_2   0.807140 0.236785 0.372975 -0.227386
O16   O     O_2   0.842978 0.031617 0.273664 -0.225711
O17   O     O_3   0.623326 0.171041 0.155987 -0.546100
H9    H     H_    0.569356 0.094602 0.117420 0.357242
S4    S     S_3+6 0.286216 0.874751 0.704923 0.058902
O18   O     O_2   0.384368 0.834095 0.833240 -0.308351
O19   O     O_2   0.171390 0.970166 0.741871 -0.217773
O20   O     O_3   0.187072 0.751690 0.632029 -0.572965
H10   H     H_    0.126087 0.719232 0.703300 0.396275

loop_
_geom_bond_atom_site_label_1
_geom_bond_atom_site_label_2
_ccdc_geom_bond_type
C14   N1    A    
C1    O1    A    
O14   H8    S    
C14   H4    S    
C5    S1    S    
S4    O19   D    
S1    O9    D    
O8    Zn1   S    
S1    O11   S    
C15   N1    A    
S4    O18   D    
O7    Zn2   S    
C4    O6    A    
C2    O2    A    
O20   H10   S    
C3    O7    A    
C9    C11   A    
C3    O5    A    
C4    O8    A    
C1    C12   S    
C10   C12   A    
C10   H2    S    
C8    C11   A    
C2    C11   S    
C7    S3    S    
S2    O13   D    
S2    O12   D    
S1    O10   D    
O4    Zn1   S    
C7    C9    A    
C13   C15   A    
O3    Zn2   S    
C5    C6    D    
C8    C10   A    
C14   C16   A    
C7    C12   A    
S3    O17   S    
S4    O20   S    
O1    Zn1   S    
C13   H3    S    
C8    S4    S    
C15   H5    S    
C6    S2    S    
O11   H7    S    
C13   N2    A    
C16   N2    A    
C4    C6    S    
S3    O16   D    
C9    H1    S    
C1    O3    A    
O6    Zn2   S    
O17   H9    S    
C2    O4    A    
N1    Zn1   S    
S3    O15   D    
O2    Zn2   S    
S2    O14   S    
N2    Zn2   S    
O5    Zn1   S    
C16   H6    S    
C3    C5    S    
