data_mof_unit_20962.cif
_audit_creation_date              2012-12-10T17:41:01-0500
_audit_creation_method            fapswitch 2.2
_symmetry_space_group_name_H-M    P1
_symmetry_Int_Tables_number       1
_space_group_crystal_system       triclinic
_cell_length_a                    15.114977
_cell_length_b                    15.219107
_cell_length_c                    9.876669
_cell_angle_alpha                 90.194884
_cell_angle_beta                  89.547895
_cell_angle_gamma                 89.899568
_cell_volume                      2271.9064257

loop_
_atom_site_label
_atom_site_type_symbol
_atom_type_description
_atom_site_fract_x
_atom_site_fract_y
_atom_site_fract_z
_atom_type_partial_charge
C1    C     C_R   0.385839 0.874414 0.500988 0.903788
C2    C     C_R   0.718635 0.218537 0.380628 -0.172969
C3    C     C_R   0.227565 0.289495 0.381841 -0.181011
C4    C     C_R   0.218689 0.718480 0.380646 -0.172994
C5    C     C_R   0.680702 0.806014 0.501717 -0.048823
C6    C     C_R   0.676762 0.196919 0.502548 -0.058495
C7    C     C_R   0.180716 0.306023 0.501720 -0.048810
C8    C     C_R   0.176781 0.696903 0.502536 -0.058512
C9    C     C_R   0.338005 0.998206 0.141502 -0.324915
C10   C     C_R   0.838005 0.498191 0.141502 -0.324964
C11   C     C_R   0.257185 0.995913 0.072543 0.356333
C12   C     C_R   0.387396 0.126692 0.501548 0.894297
C13   C     C_R   0.757185 0.495874 0.072543 0.356271
C14   C     C_R   0.257814 0.996721 0.930644 0.429177
C15   C     C_R   0.757814 0.496682 0.930644 0.429155
C16   C     C_R   0.338361 0.999086 0.861416 -0.244939
C17   C     C_R   0.838361 0.499069 0.861416 -0.245039
C18   C     C_R   0.420192 0.999636 0.928550 0.105710
C19   C     C_R   0.920192 0.499629 0.928550 0.105603
C20   C     C_R   0.420143 0.999432 0.072995 0.149348
C21   C     C_R   0.920143 0.499425 0.072995 0.149369
C22   C     C_R   0.576289 0.000489 0.070681 -0.056724
C23   C     C_R   0.885836 0.374416 0.500987 0.903841
C24   C     C_R   0.076289 0.500495 0.070681 -0.056764
C25   C     C_R   0.614749 0.125146 0.500439 0.888152
C26   C     C_R   0.615836 0.875524 0.500065 0.888238
C27   C     C_R   0.114756 0.625140 0.500436 0.888106
C28   C     C_R   0.115840 0.375526 0.500065 0.888268
C29   C     C_R   0.576249 0.000442 0.927314 -0.043540
C30   C     C_R   0.076249 0.500448 0.927314 -0.043567
C31   C     C_R   0.333214 0.224565 0.759958 0.417123
C32   C     C_R   0.334164 0.774370 0.755565 0.321860
C33   C     C_R   0.833179 0.724539 0.759967 0.417129
C34   C     C_R   0.887390 0.626688 0.501549 0.894287
C35   C     C_R   0.834211 0.274334 0.755557 0.321945
C36   C     C_R   0.281143 0.228449 0.879690 0.258423
C37   C     C_R   0.284697 0.769389 0.878358 0.252702
C38   C     C_R   0.781100 0.728418 0.879690 0.258458
C39   C     C_R   0.784772 0.269328 0.878384 0.252635
C40   C     C_R   0.689831 0.748043 0.869720 0.356297
C41   C     C_R   0.693583 0.251407 0.872368 0.450249
C42   C     C_R   0.189873 0.248071 0.869734 0.356303
C43   C     C_R   0.193507 0.751491 0.872290 0.450302
C44   C     C_R   0.654679 0.766924 0.743378 -0.206512
C45   C     C_R   0.299744 0.234975 0.383694 -0.211133
C46   C     C_R   0.656008 0.231097 0.747852 -0.234162
C47   C     C_R   0.154712 0.266942 0.743394 -0.206480
C48   C     C_R   0.155964 0.731152 0.747769 -0.234175
C49   C     C_R   0.707692 0.767897 0.625496 -0.076689
C50   C     C_R   0.706021 0.233042 0.626746 -0.071399
C51   C     C_R   0.207717 0.267914 0.625502 -0.076675
C52   C     C_R   0.206009 0.733060 0.626710 -0.071469
C53   C     C_R   0.292021 0.231469 0.631359 -0.011949
C54   C     C_R   0.289701 0.770798 0.629506 0.026194
C55   C     C_R   0.791996 0.731449 0.631361 -0.011947
C56   C     C_R   0.290209 0.773550 0.381453 -0.210151
C57   C     C_R   0.789715 0.270782 0.629512 0.026185
C58   C     C_R   0.330228 0.202676 0.506908 -0.042877
C59   C     C_R   0.325354 0.801319 0.504746 -0.051098
C60   C     C_R   0.830212 0.702663 0.506911 -0.042892
C61   C     C_R   0.825339 0.301330 0.504736 -0.051062
C62   C     C_R   0.799730 0.734964 0.383697 -0.211127
C63   C     C_R   0.790158 0.273601 0.381430 -0.210135
C64   C     C_R   0.727553 0.789485 0.381840 -0.181014
H1    H     H_    0.331167 0.217361 0.288540 0.200518
H2    H     H_    0.586499 0.216473 0.746689 0.245032
H3    H     H_    0.085322 0.281611 0.739046 0.247979
H4    H     H_    0.086458 0.716530 0.746562 0.245053
H5    H     H_    0.638539 0.000853 0.123974 0.141748
H6    H     H_    0.138540 0.500864 0.123974 0.141719
H7    H     H_    0.333715 0.999185 0.248563 0.223778
H8    H     H_    0.833715 0.499181 0.248563 0.223774
H9    H     H_    0.129071 0.993424 0.915803 0.400735
H10   H     H_    0.629071 0.493370 0.915803 0.400721
H11   H     H_    0.444095 0.220274 0.860937 0.393849
H12   H     H_    0.317848 0.794327 0.285269 0.216985
H13   H     H_    0.445446 0.741526 0.838140 0.360172
H14   H     H_    0.944052 0.720251 0.860966 0.393889
H15   H     H_    0.945541 0.241631 0.838174 0.360239
H16   H     H_    0.276118 0.184667 0.063893 0.341032
H17   H     H_    0.378248 0.816125 0.991924 0.349897
H18   H     H_    0.776056 0.684649 0.063898 0.341061
H19   H     H_    0.878283 0.316189 0.991899 0.349728
H20   H     H_    0.668823 0.774209 0.059585 0.333867
H21   H     H_    0.672805 0.271049 0.065243 0.380550
H22   H     H_    0.168886 0.274229 0.059614 0.333857
H23   H     H_    0.831156 0.717352 0.288543 0.200534
H24   H     H_    0.172685 0.771179 0.065140 0.380613
H25   H     H_    0.708318 0.818187 0.286343 0.165930
H26   H     H_    0.696360 0.192908 0.284325 0.188187
H27   H     H_    0.208325 0.318193 0.286342 0.165925
H28   H     H_    0.196440 0.692815 0.284365 0.188203
H29   H     H_    0.188485 0.992950 0.240538 0.340722
H30   H     H_    0.688485 0.492894 0.240538 0.340713
H31   H     H_    0.817769 0.294405 0.285226 0.216980
H32   H     H_    0.333567 0.000257 0.754346 0.233348
H33   H     H_    0.833567 0.500250 0.754346 0.233365
H34   H     H_    0.638467 0.000774 0.872429 0.143765
H35   H     H_    0.138467 0.500785 0.872429 0.143752
H36   H     H_    0.585289 0.781602 0.739025 0.247999
N1    N     N_R   0.498810 0.000000 0.142780 -0.103609
N2    N     N_R   0.998810 0.500000 0.142780 -0.103590
N3    N     N_R   0.498740 0.000000 0.857170 -0.099915
N4    N     N_R   0.998740 0.500000 0.857170 -0.099913
O1    O     O_R   0.408390 0.908380 0.614690 -0.595322
O2    O     O_R   0.591620 0.908390 0.614640 -0.617225
O3    O     O_R   0.091620 0.591610 0.614640 -0.619255
O4    O     O_R   0.091620 0.408390 0.614640 -0.617233
O5    O     O_R   0.591610 0.091610 0.385310 -0.619733
O6    O     O_R   0.591610 0.908390 0.385310 -0.622829
O7    O     O_R   0.091610 0.591610 0.385310 -0.619758
O8    O     O_R   0.091610 0.408390 0.385310 -0.622814
O9    O     O_3   0.181338 0.995440 0.854912 -0.757358
O10   O     O_3   0.681337 0.495385 0.854913 -0.757385
O11   O     O_3   0.424436 0.221291 0.765602 -0.754925
O12   O     O_R   0.408390 0.091620 0.614690 -0.601017
O13   O     O_3   0.425298 0.771719 0.755202 -0.767797
O14   O     O_3   0.924400 0.721269 0.765629 -0.754900
O15   O     O_3   0.925352 0.271678 0.755127 -0.767755
O16   O     O_3   0.320686 0.210639 0.002133 -0.796699
O17   O     O_3   0.322946 0.782194 0.003439 -0.803424
O18   O     O_3   0.820634 0.710599 0.002137 -0.796701
O19   O     O_3   0.823055 0.282113 0.003449 -0.803257
O20   O     O_3   0.634004 0.755256 0.980395 -0.753594
O21   O     O_3   0.639451 0.250019 0.985670 -0.743784
O22   O     O_3   0.134052 0.255291 0.980418 -0.753556
O23   O     O_R   0.908390 0.408380 0.614690 -0.595393
O24   O     O_3   0.139343 0.750150 0.985547 -0.743733
O25   O     O_3   0.177373 0.993694 0.141736 -0.752692
O26   O     O_3   0.677374 0.493638 0.141736 -0.752713
O27   O     O_R   0.908390 0.591620 0.614690 -0.600990
O28   O     O_R   0.408370 0.908380 0.385360 -0.653900
O29   O     O_R   0.408370 0.091620 0.385360 -0.648164
O30   O     O_R   0.908370 0.408380 0.385360 -0.653892
O31   O     O_R   0.908370 0.591620 0.385360 -0.648150
O32   O     O_R   0.591620 0.091610 0.614640 -0.619266
Zn1   Zn    Zn3+2 0.500010 0.000000 0.653130 0.988394
Zn2   Zn    Zn3+2 0.000010 0.500000 0.653130 0.988361
Zn3   Zn    Zn3+2 0.499980 0.000000 0.346870 0.964262
Zn4   Zn    Zn3+2 0.999980 0.500000 0.346870 0.964272

loop_
_geom_bond_atom_site_label_1
_geom_bond_atom_site_label_2
_ccdc_geom_bond_type
C44   C49   A    
C33   C55   A    
C38   C40   A    
H16   O16   S    
C56   H12   S    
C22   C29   A    
H22   O22   S    
O8    Zn4   S    
C36   C42   A    
C32   O13   S    
C4    C8    A    
C1    O28   A    
C26   O2    A    
N1    Zn3   S    
C24   H6    S    
C39   C41   A    
C28   O8    A    
O28   Zn3   S    
H30   O26   S    
C22   N1    A    
C29   H34   S    
C60   C62   A    
O6    Zn3   S    
H14   O14   S    
C46   H2    S    
C3    C7    A    
C1    C59   S    
O30   Zn4   S    
C11   C14   A    
C6    C25   S    
H10   O10   S    
C63   H31   S    
C39   O19   S    
C29   N3    A    
C3    H27   S    
C47   H3    S    
C61   C63   A    
C25   O32   A    
C62   C64   A    
C35   O15   S    
H15   O15   S    
C41   C46   A    
O23   Zn2   S    
C43   C48   A    
C8    C52   A    
C22   H5    S    
C24   N2    A    
C25   O5    A    
C18   N3    A    
C12   C58   S    
C27   O7    A    
C33   O14   S    
C55   C60   A    
C4    C56   A    
C34   C60   S    
C5    C49   A    
C2    C6    A    
C64   H25   S    
H29   O25   S    
C11   O25   S    
C31   O11   S    
C52   C54   A    
O7    Zn4   S    
C40   C44   A    
C54   C59   A    
C10   C21   A    
O31   Zn4   S    
C40   O20   S    
C45   C58   A    
C16   H32   S    
C41   O21   S    
O2    Zn1   S    
C47   C51   A    
C20   N1    A    
C49   C55   A    
C30   H35   S    
C3    C45   A    
C31   C53   A    
C7    C28   S    
C5    C64   A    
H17   O17   S    
C51   C53   A    
C37   C43   A    
C35   C39   A    
C19   N4    A    
C9    C20   A    
C27   O3    A    
C13   O26   S    
C15   O10   S    
N2    Zn4   S    
C32   C37   A    
C6    C50   A    
C9    C11   A    
C38   O18   S    
C37   O17   S    
C21   N2    A    
H9    O9    S    
C16   C18   A    
C34   O27   A    
O29   Zn3   S    
C12   O29   A    
C13   C15   A    
C4    H28   S    
C45   H1    S    
C14   C16   A    
H11   O11   S    
C2    C63   A    
C23   O23   A    
O12   Zn1   S    
C23   C61   S    
C15   C17   A    
C26   O6    A    
C23   O30   A    
C19   C21   A    
H21   O21   S    
C50   C57   A    
C9    H7    S    
O32   Zn1   S    
C48   H4    S    
C10   C13   A    
C43   O24   S    
C53   C58   A    
C57   C61   A    
H20   O20   S    
C14   O9    S    
C62   H23   S    
C46   C50   A    
H13   O13   S    
C33   C38   A    
C32   C54   A    
C56   C59   A    
O5    Zn3   S    
C35   C57   A    
O3    Zn2   S    
N3    Zn1   S    
C7    C51   A    
H24   O24   S    
O27   Zn2   S    
O4    Zn2   S    
C44   H36   S    
C34   O31   A    
C28   O4    A    
C17   C19   A    
N4    Zn2   S    
C18   C20   A    
C42   C47   A    
C36   O16   S    
C24   C30   A    
C42   O22   S    
O1    Zn1   S    
C5    C26   S    
C48   C52   A    
C2    H26   S    
C30   N4    A    
C8    C27   S    
C31   C36   A    
H19   O19   S    
C17   H33   S    
H18   O18   S    
C1    O1    A    
C12   O12   A    
C10   H8    S    
