data_mof_unit_58503.cif
_audit_creation_date              2012-12-11T15:42:50-0500
_audit_creation_method            fapswitch 2.2
_symmetry_space_group_name_H-M    P1
_symmetry_Int_Tables_number       1
_space_group_crystal_system       triclinic
_cell_length_a                    6.930907
_cell_length_b                    14.557517
_cell_length_c                    16.198938
_cell_angle_alpha                 90.443734
_cell_angle_beta                  89.906445
_cell_angle_gamma                 90.091559
_cell_volume                      1634.36770244

loop_
_atom_site_label
_atom_site_type_symbol
_atom_type_description
_atom_site_fract_x
_atom_site_fract_y
_atom_site_fract_z
_atom_type_partial_charge
O1    O     O_R   0.505810 0.583360 0.413880 -0.546110
O2    O     O_R   0.175870 0.595480 0.585520 -0.546368
O3    O     O_R   0.005540 0.416640 0.586120 -0.537339
C1    C     C_R   0.344922 0.617646 0.614664 0.698706
O4    O     O_R   0.176100 0.594390 0.414490 -0.547177
O5    O     O_R   0.005770 0.415540 0.413870 -0.544689
C2    C     C_R   0.345318 0.616472 0.385726 0.670658
O6    O     O_R   0.505580 0.584460 0.586130 -0.541502
O7    O     O_3   0.339190 0.441320 0.500000 -0.354129
V1    V     V_3+5 0.064350 0.510890 0.500000 1.427059
O8    O     O_R   0.676050 0.404520 0.414480 -0.547305
C3    C     C_R   0.845135 0.382077 0.385722 0.672882
O9    O     O_R   0.675830 0.405610 0.585510 -0.494656
C4    C     C_R   0.844603 0.383653 0.613824 0.803008
V2    V     V_3+5 0.564340 0.489110 0.500000 1.480153
O10   O     O_3   0.839370 0.558680 0.500000 -0.384088
C5    C     C_2   0.720617 0.208662 0.786613 -0.210798
C6    C     C_2   0.886213 0.182022 0.822852 -0.399962
H1    H     H_    0.585217 0.179312 0.807713 0.174590
H2    H     H_    0.023666 0.210657 0.804291 0.154451
C7    C     C_2   0.705602 0.277536 0.719223 0.630418
C8    C     C_2   0.859397 0.315067 0.680577 -0.409578
H3    H     H_    0.004559 0.295677 0.697642 0.126221
C9    C     C_R   0.047446 0.222934 0.219410 -0.155348
H4    H     H_    0.188304 0.204320 0.195681 0.117310
C10   C     C_R   0.036185 0.286923 0.284210 -0.148230
H5    H     H_    0.168943 0.315802 0.308241 0.118744
C11   C     C_R   0.856421 0.313306 0.317346 -0.041255
C12   C     C_R   0.688231 0.273944 0.283816 -0.153762
H6    H     H_    0.547374 0.292558 0.307546 0.117076
C13   C     C_R   0.699492 0.209954 0.219016 -0.149791
H7    H     H_    0.566735 0.181075 0.194983 0.119354
C14   C     C_R   0.879257 0.183573 0.185879 -0.044825
C15   C     C_R   0.188298 0.723613 0.718998 -0.152475
H8    H     H_    0.047424 0.705516 0.695034 0.114911
C16   C     C_R   0.199677 0.785813 0.785336 -0.146102
H9    H     H_    0.066955 0.813954 0.810092 0.118168
C17   C     C_R   0.379399 0.811481 0.819028 -0.047896
C18   C     C_R   0.547402 0.773113 0.784338 -0.152472
H10   H     H_    0.688276 0.791215 0.808298 0.116023
C19   C     C_R   0.536022 0.710908 0.718002 -0.143566
H11   H     H_    0.668744 0.682770 0.693244 0.116640
C20   C     C_R   0.356302 0.685249 0.684306 -0.048426
C21   C     C_R   0.188508 0.723165 0.283938 -0.154375
H12   H     H_    0.047683 0.704782 0.307719 0.115921
C22   C     C_R   0.199638 0.786277 0.219203 -0.150100
H13   H     H_    0.066868 0.814682 0.195323 0.118628
C23   C     C_R   0.379257 0.812409 0.185927 -0.046520
C24   C     C_R   0.547429 0.773611 0.219338 -0.154217
H14   H     H_    0.688250 0.791999 0.195554 0.116739
C25   C     C_R   0.536299 0.710497 0.284076 -0.150794
H15   H     H_    0.669063 0.682088 0.307960 0.117110
C26   C     C_R   0.356676 0.684367 0.317351 -0.043155
O11   O     O_R   0.230120 0.912300 0.917180 -0.541253
O12   O     O_R   0.559740 0.902430 0.088770 -0.543875
O13   O     O_R   0.729930 0.081310 0.089370 -0.541787
C27   C     C_R   0.390557 0.880312 0.117557 0.685607
O14   O     O_R   0.559840 0.901330 0.917750 -0.544018
O15   O     O_R   0.730030 0.080210 0.917120 -0.537498
C28   C     C_R   0.390781 0.879120 0.888642 0.688832
O16   O     O_R   0.230020 0.913400 0.089430 -0.541408
O17   O     O_3   0.396460 0.055470 0.003290 -0.368164
V3    V     V_3+5 0.671360 0.985960 0.003250 1.406195
O18   O     O_R   0.059740 0.091300 0.917690 -0.541482
C29   C     C_R   0.891232 0.113263 0.889519 0.786390
O19   O     O_R   0.059640 0.092400 0.088720 -0.544844
C30   C     C_R   0.890554 0.114803 0.117502 0.684484
V4    V     V_3+5 0.171350 0.007820 0.003190 1.411303
O20   O     O_3   0.896380 0.938200 0.003220 -0.373927
F1    F     F_    0.523930 0.301757 0.696403 -0.682312

loop_
_geom_bond_atom_site_label_1
_geom_bond_atom_site_label_2
_ccdc_geom_bond_type
O5    V1    S    
C16   H9    S    
O2    C1    A    
O8    C3    A    
C13   C14   A    
C27   O16   A    
C12   H6    S    
O1    V2    S    
C1    C20   S    
O13   C30   A    
O7    V1    S    
C10   C11   A    
C9    C14   A    
O9    V2    S    
O17   V4    S    
C7    F1    S    
C1    O6    A    
O18   C29   A    
C4    C8    S    
C16   C17   A    
O19   C30   A    
O7    V2    S    
O13   V3    S    
C23   C27   S    
C18   C19   A    
O3    V1    S    
O11   C28   A    
O9    C4    A    
O15   C29   A    
C6    C29   S    
C19   C20   A    
O16   V4    S    
C10   H5    S    
O17   V3    S    
O3    C4    A    
O8    V2    S    
C3    C11   S    
C17   C28   S    
O18   V4    S    
C7    C8    D    
C23   C24   A    
C5    H1    S    
C21   C22   A    
C5    C6    D    
O6    V2    S    
C15   C16   A    
O12   C27   A    
C15   C20   A    
O5    C3    A    
C17   C18   A    
C15   H8    S    
C22   C23   A    
C22   H13   S    
O11   V4    S    
O19   V4    S    
C2    C26   S    
C18   H10   S    
O14   C28   A    
V2    O10   S    
O2    V1    S    
V3    O20   S    
O4    V1    S    
C9    H4    S    
C14   C30   S    
C6    H2    S    
C12   C13   A    
C24   H14   S    
C19   H11   S    
O14   V3    S    
O4    C2    A    
C8    H3    S    
C11   C12   A    
V1    O10   S    
C24   C25   A    
O1    C2    A    
O15   V3    S    
C21   C26   A    
C13   H7    S    
C5    C7    S    
C21   H12   S    
C25   H15   S    
C9    C10   A    
V4    O20   S    
C25   C26   A    
O12   V3    S    
