data_mof_unit_29001.cif
_audit_creation_date              2013-03-05T15:45:41-0500
_audit_creation_method            fapswitch 2.2
_symmetry_space_group_name_H-M    P1
_symmetry_Int_Tables_number       1
_space_group_crystal_system       triclinic
_cell_length_a                    6.934796
_cell_length_b                    16.735799
_cell_length_c                    16.887035
_cell_angle_alpha                 101.386192
_cell_angle_beta                  91.922029
_cell_angle_gamma                 89.039875
_cell_volume                      1920.14145819

loop_
_atom_site_label
_atom_site_type_symbol
_atom_site_description
_atom_site_fract_x
_atom_site_fract_y
_atom_site_fract_z
_atom_type_partial_charge
O1    O     O_R   0.506340 0.439070 0.579550 -0.596152
O2    O     O_R   0.170010 0.404890 0.412100 -0.594872
O3    O     O_R   0.005010 0.560930 0.420450 -0.590919
C1    C     C_R   0.338937 0.381445 0.383223 0.904043
O4    O     O_R   0.176280 0.429360 0.578400 -0.594306
O5    O     O_R   0.011320 0.585570 0.587940 -0.600319
C2    C     C_R   0.349498 0.414445 0.605690 0.932986
O6    O     O_R   0.500030 0.414430 0.412060 -0.589766
O7    O     O_3   0.340950 0.551220 0.502940 -0.272369
V1    V     V_3+5 0.064020 0.490500 0.499460 1.148960
O8    O     O_R   0.681910 0.595110 0.587900 -0.596216
C3    C     C_R   0.851948 0.617738 0.617107 0.961199
O9    O     O_R   0.675640 0.570640 0.421600 -0.600974
C4    C     C_R   0.840284 0.587042 0.395024 0.936953
V2    V     V_3+5 0.564670 0.509500 0.500540 1.151782
O10   O     O_3   0.837610 0.448780 0.497060 -0.272542
C5    C     C_R   0.932759 0.858631 0.165585 -0.123750
C6    C     C_R   0.832878 0.641325 0.334489 -0.136182
C7    C     C_R   0.641083 0.703129 0.237435 -0.234126
C8    C     C_R   0.659491 0.648309 0.290033 -0.154989
C9    C     C_R   0.989397 0.690342 0.324084 -0.281994
C10   C     C_R   0.970717 0.746625 0.271797 0.217824
C11   C     C_R   0.794879 0.753338 0.228279 0.218657
C12   C     C_R   0.776221 0.809617 0.175980 -0.288465
C13   C     C_R   0.106119 0.851654 0.210062 -0.153012
C14   C     C_R   0.124510 0.796836 0.262654 -0.230298
H1    H     H_    0.642243 0.813617 0.141940 0.143038
H2    H     H_    0.229426 0.888605 0.203905 0.134578
H3    H     H_    0.505715 0.706565 0.204267 0.130442
H4    H     H_    0.259870 0.793401 0.295828 0.134308
H5    H     H_    0.536195 0.611358 0.296203 0.134145
H6    H     H_    0.123396 0.686337 0.358107 0.142416
C15   C     C_3   0.711206 0.779047 0.768800 0.449587
C16   C     C_3   0.801510 0.775450 0.686358 -0.261261
H7    H     H_    0.732306 0.797187 0.634152 0.160356
C17   C     C_3   0.866318 0.687231 0.688052 -0.190115
C18   C     C_3   0.770878 0.690456 0.769940 -0.263526
C19   C     C_3   0.963069 0.722240 0.814376 -0.146106
C20   C     C_3   0.058288 0.717596 0.731658 -0.007527
C21   C     C_3   0.993588 0.806627 0.731053 -0.045795
C22   C     C_3   0.898942 0.810784 0.813200 -0.241840
H8    H     H_    0.676547 0.643134 0.785314 0.140553
H9    H     H_    0.030823 0.700786 0.867010 0.141068
H10   H     H_    0.203295 0.691490 0.715545 0.139019
H11   H     H_    0.088904 0.852778 0.714817 0.217213
C23   C     C_3   0.485462 0.235464 0.314396 -0.122568
C24   C     C_3   0.324029 0.180368 0.268461 -0.130039
H12   H     H_    0.276219 0.122357 0.283609 0.105294
H13   H     H_    0.569230 0.223444 0.368074 0.110734
C25   C     C_3   0.410295 0.189217 0.187613 -0.076219
C26   C     C_3   0.571541 0.243560 0.232797 -0.100283
C27   C     C_3   0.442080 0.319759 0.231418 -0.134349
C28   C     C_3   0.280646 0.264661 0.185481 -0.129583
C29   C     C_3   0.194568 0.256564 0.267082 -0.098396
C30   C     C_3   0.355813 0.310908 0.312266 -0.089514
H14   H     H_    0.726257 0.237951 0.217855 0.104423
H15   H     H_    0.489889 0.377770 0.216271 0.101375
H16   H     H_    0.196877 0.276676 0.131801 0.103978
H17   H     H_    0.039850 0.262172 0.282022 0.105878
C31   C     C_R   0.386706 0.136185 0.830629 -0.309214
C32   C     C_R   0.377961 0.363246 0.667926 -0.141651
C33   C     C_R   0.586216 0.321991 0.773135 -0.197983
C34   C     C_R   0.543290 0.374536 0.719781 -0.150038
C35   C     C_R   0.254748 0.298518 0.671347 -0.242540
C36   C     C_R   0.299330 0.244511 0.723927 0.151781
C37   C     C_R   0.466087 0.256064 0.775340 0.208185
C38   C     C_R   0.509166 0.201882 0.828134 -0.277672
C39   C     C_R   0.222998 0.124133 0.776553 0.408865
C40   C     C_R   0.181287 0.178066 0.724523 -0.316073
H18   H     H_    0.634444 0.212266 0.868845 0.158737
H19   H     H_    0.714859 0.332337 0.811837 0.122399
H20   H     H_    0.055104 0.167634 0.684275 0.165506
H21   H     H_    0.641359 0.423946 0.718470 0.128324
H22   H     H_    0.128731 0.288311 0.631018 0.137054
O11   O     O_R   0.266070 0.085680 0.087850 -0.603303
O12   O     O_R   0.590090 0.070660 0.921580 -0.557332
O13   O     O_R   0.754780 0.914400 0.912080 -0.560449
C41   C     C_R   0.416627 0.085109 0.893570 1.030037
O14   O     O_R   0.596110 0.095130 0.087880 -0.608230
O15   O     O_R   0.760850 0.939050 0.079570 -0.601404
C42   C     C_R   0.427169 0.118651 0.116688 0.871028
O16   O     O_R   0.260010 0.061030 0.920360 -0.573802
O17   O     O_3   0.425070 0.948840 0.997010 -0.249810
V3    V     V_3+5 0.702100 0.009490 0.000550 1.228530
O18   O     O_R   0.090200 0.929250 0.078500 -0.612779
C43   C     C_R   0.925486 0.912894 0.105034 0.907617
O19   O     O_R   0.084180 0.904770 0.912200 -0.544272
C44   C     C_R   0.913942 0.881382 0.883509 1.034846
V4    V     V_3+5 0.201420 0.990350 0.999580 1.240829
O20   O     O_3   0.928580 0.051150 0.002990 -0.267176
N1    N     N_R   0.099538 0.055624 0.771172 0.232178
O21   O     O_R   0.101418 0.999390 0.705985 -0.414621
O22   O     O_R   0.949071 0.062515 0.816086 -0.397819
N2    N     N_R   0.520919 0.813193 0.789641 0.220159
O23   O     O_R   0.465678 0.880014 0.766852 -0.403108
O24   O     O_R   0.424791 0.787079 0.844095 -0.439236

loop_
_geom_bond_atom_site_label_1
_geom_bond_atom_site_label_2
_geom_bond_distance
_ccdc_geom_bond_type
O19   C44   1.297664 A    
C32   C35   1.402127 A    
C6    C9    1.407669 A    
C4    C6    1.494844 S    
O2    C1    1.308229 A    
C7    C8    1.398991 A    
C12   H1    1.084180 S    
O15   V3    1.976093 S    
C15   N2    1.455422 S    
O12   V3    1.967919 S    
C28   C29   1.550861 S    
C13   H2    1.083293 S    
C23   H13   1.110118 S    
C31   C41   1.497144 S    
C18   C19   1.556103 S    
O16   V4    2.007830 S    
C16   C21   1.554526 S    
C17   C18   1.544010 S    
O12   C41   1.313964 A    
C26   H14   1.108645 S    
O5    C3    1.290662 A    
O14   V3    1.993032 S    
V2    O10   2.130296 S    
C39   N1    1.429126 S    
C16   H7    1.110075 S    
C18   H8    1.110185 S    
C32   C34   1.411247 A    
C2    C32   1.487866 S    
O15   C43   1.305636 A    
C23   C24   1.548920 S    
O8    V2    2.003542 S    
C24   H12   1.110171 S    
C31   C38   1.408487 A    
C39   C40   1.399189 A    
C23   C30   1.543241 S    
C11   C12   1.414394 A    
O1    V2    2.001578 S    
C3    C17   1.497857 S    
O7    V1    2.181399 S    
C16   C17   1.541489 S    
C27   C30   1.543189 S    
C1    O6    1.291485 A    
C37   C38   1.413720 A    
O9    C4    1.293801 A    
V3    O20   1.724985 S    
C25   C26   1.537066 S    
C24   C25   1.543182 S    
C29   H17   1.108645 S    
C21   H11   1.105232 S    
O17   V4    1.687156 S    
C9    H6    1.084175 S    
C5    C12   1.407706 A    
C33   C37   1.400658 A    
C26   C27   1.550723 S    
C25   C28   1.543234 S    
O13   C44   1.290908 A    
C19   C22   1.543701 S    
N1    O21   1.299678 A    
O14   C42   1.308192 A    
O18   V4    2.012494 S    
O11   C42   1.291440 A    
C34   H21   1.083464 S    
O13   V3    1.994099 S    
C13   C14   1.398899 A    
O18   C43   1.293715 A    
C23   C26   1.550845 S    
C15   C18   1.536222 S    
C5    C43   1.494810 S    
C40   H20   1.084678 S    
C7    C11   1.399964 A    
C33   C34   1.399925 A    
N1    O22   1.300717 A    
C41   O16   1.290858 A    
O17   V3    2.181363 S    
C28   H16   1.110117 S    
C15   C16   1.535635 S    
N2    O24   1.300221 A    
O3    C4    1.305650 A    
C24   C29   1.550695 S    
C21   C22   1.543192 S    
C14   H4    1.083477 S    
O6    V2    2.001322 S    
O9    V2    2.012472 S    
C1    C30   1.513046 S    
O2    V1    1.993058 S    
C20   C21   1.550744 S    
C27   C28   1.548958 S    
O4    C2    1.309914 A    
C22   C44   1.502807 S    
C29   C30   1.537077 S    
O1    C2    1.291031 A    
C17   C20   1.543356 S    
O5    V1    1.994008 S    
O8    C3    1.295901 A    
C20   H10   1.110332 S    
C38   H18   1.084177 S    
C5    C13   1.411536 A    
C35   C36   1.410680 A    
O19   V4    2.003452 S    
O7    V2    1.689052 S    
C15   C22   1.529611 S    
C19   H9    1.109971 S    
O3    V1    1.976154 S    
V1    O10   1.725018 S    
C19   C20   1.552599 S    
C36   C40   1.393653 A    
C33   H19   1.083685 S    
C6    C8    1.411537 A    
N2    O23   1.300437 A    
C27   H15   1.110171 S    
O11   V4    2.002115 S    
O4    V1    1.967834 S    
C31   C39   1.424377 A    
C36   C37   1.415041 A    
C10   C14   1.399909 A    
C35   H22   1.084373 S    
C10   C11   1.416874 A    
V4    O20   2.130341 S    
C9    C10   1.414318 A    
C25   C42   1.513008 S    
C8    H5    1.083291 S    
C7    H3    1.083474 S    
