data_mof_unit_28636.cif
_audit_creation_date              2012-12-11T17:12:45-0500
_audit_creation_method            fapswitch 2.2
_symmetry_space_group_name_H-M    P1
_symmetry_Int_Tables_number       1
_space_group_crystal_system       triclinic
_cell_length_a                    17.178149
_cell_length_b                    6.879903
_cell_length_c                    14.43073
_cell_angle_alpha                 90.005522
_cell_angle_beta                  110.007527
_cell_angle_gamma                 89.993173
_cell_volume                      1602.55160754

loop_
_atom_site_label
_atom_site_type_symbol
_atom_type_description
_atom_site_fract_x
_atom_site_fract_y
_atom_site_fract_z
_atom_type_partial_charge
O1    O     O_R   0.314130 0.635770 0.168990 -0.542296
O2    O     O_R   0.685870 0.364230 0.831010 -0.542296
O3    O     O_R   0.185870 0.135770 0.331010 -0.542328
O4    O     O_R   0.814130 0.864230 0.668990 -0.542328
O5    O     O_R   0.146800 0.302460 0.139760 -0.536166
O6    O     O_R   0.853200 0.697540 0.860240 -0.536166
O7    O     O_R   0.353200 0.802460 0.360240 -0.536157
O8    O     O_R   0.646800 0.197540 0.639760 -0.536157
C1    C     C_R   0.113998 0.475876 0.112772 0.724181
C2    C     C_R   0.886002 0.524124 0.887228 0.724181
C3    C     C_R   0.386002 0.975866 0.387229 0.724235
C4    C     C_R   0.613998 0.024134 0.612770 0.724235
O9    O     O_R   0.311100 0.305780 0.157130 -0.543321
O10   O     O_R   0.688900 0.694220 0.842870 -0.543321
O11   O     O_R   0.188900 0.805780 0.342870 -0.543323
O12   O     O_R   0.811100 0.194220 0.657130 -0.543323
O13   O     O_R   0.351340 0.139640 0.348510 -0.535578
O14   O     O_R   0.648660 0.860360 0.651490 -0.535577
O15   O     O_R   0.148660 0.639640 0.151490 -0.535605
O16   O     O_R   0.851340 0.360360 0.848510 -0.535605
C5    C     C_R   0.332927 0.476526 0.135670 0.701359
C6    C     C_R   0.667073 0.523474 0.864330 0.701359
C7    C     C_R   0.167034 0.976539 0.364285 0.701374
C8    C     C_R   0.832966 0.023461 0.635715 0.701374
C9    C     C_1   0.533570 0.008866 0.533043 -0.186376
C10   C     C_1   0.466430 0.991134 0.466957 -0.186376
C11   C     C_1   0.966430 0.508857 0.966956 -0.186377
C12   C     C_1   0.033570 0.491143 0.033044 -0.186377
O17   O     O_3   0.263010 0.470920 0.312770 -0.368173
O18   O     O_3   0.736990 0.529080 0.687230 -0.368173
O19   O     O_3   0.236990 0.970920 0.187230 -0.368183
O20   O     O_3   0.763010 0.029080 0.812770 -0.368182
V1    V     V_3+5 0.247590 0.194450 0.238360 1.422178
V2    V     V_3+5 0.752410 0.805550 0.761640 1.422178
V3    V     V_3+5 0.252410 0.694450 0.261640 1.422180
V4    V     V_3+5 0.747590 0.305550 0.738360 1.422180
C13   C     C_R   0.116188 0.999630 0.428372 -0.065146
C14   C     C_R   0.883812 0.000370 0.571628 -0.065147
C15   C     C_R   0.383766 0.499541 0.071565 -0.065178
C16   C     C_R   0.616234 0.500458 0.928435 -0.065178
C17   C     C_R   0.931443 0.784431 0.467529 -0.196028
C18   C     C_R   0.068557 0.215569 0.532471 -0.196028
C19   C     C_R   0.568638 0.284616 0.032594 -0.195826
C20   C     C_R   0.431361 0.715384 0.967406 -0.195826
C21   C     C_R   0.876124 0.827891 0.516370 -0.164061
C22   C     C_R   0.123876 0.172109 0.483630 -0.164061
C23   C     C_R   0.623968 0.328081 0.983766 -0.164047
C24   C     C_R   0.376032 0.671918 0.016234 -0.164046
C25   C     C_R   0.947050 0.132067 0.574987 -0.240878
C26   C     C_R   0.052950 0.867933 0.425013 -0.240878
C27   C     C_R   0.552941 0.632053 0.924998 -0.240838
C28   C     C_R   0.447059 0.367947 0.075002 -0.240838
C29   C     C_R   0.003749 0.087952 0.526837 0.157472
C30   C     C_R   0.996251 0.912048 0.473163 0.157471
C31   C     C_R   0.496229 0.587908 0.973130 0.157417
C32   C     C_R   0.503771 0.412092 0.026870 0.157417
H1    H     H_    0.045648 0.736194 0.381583 0.119607
H2    H     H_    0.954352 0.263806 0.618417 0.119607
H3    H     H_    0.454399 0.236302 0.118491 0.119607
H4    H     H_    0.545601 0.763698 0.881509 0.119608
H5    H     H_    0.172049 0.276461 0.487289 0.130936
H6    H     H_    0.827951 0.723539 0.512711 0.130936
H7    H     H_    0.327831 0.776250 0.012532 0.130864
H8    H     H_    0.672169 0.223750 0.987468 0.130864
H9    H     H_    0.924205 0.649592 0.426598 0.122281
H10   H     H_    0.075795 0.350408 0.573402 0.122281
H11   H     H_    0.575874 0.149697 0.073520 0.122193
H12   H     H_    0.424126 0.850303 0.926480 0.122193

loop_
_geom_bond_atom_site_label_1
_geom_bond_atom_site_label_2
_ccdc_geom_bond_type
C2    C11   S    
O10   V2    S    
C16   C23   A    
C8    C14   S    
C31   C32   A    
O19   V1    S    
O2    C6    A    
C28   H3    S    
C16   C27   A    
C17   C21   A    
O17   V3    S    
O3    C7    A    
C19   C32   A    
C5    C15   S    
O18   V4    S    
C4    C9    S    
O8    C4    A    
C6    C16   S    
O10   C6    A    
O11   C7    A    
C15   C28   A    
C9    C10   T    
O9    C5    A    
O12   C8    A    
C14   C25   A    
O15   V3    S    
C29   C30   A    
O12   V4    S    
O1    C5    A    
C13   C26   A    
O14   V2    S    
C20   C31   A    
O7    V3    S    
O5    C1    A    
C26   C30   A    
O13   V1    S    
C25   C29   A    
O20   V4    S    
O19   V3    S    
O11   V3    S    
O7    C3    A    
C27   C31   A    
O5    V1    S    
C18   C29   A    
C18   C22   A    
O4    C8    A    
O4    V2    S    
C17   C30   A    
C20   H12   S    
O6    V2    S    
O6    C2    A    
O18   V2    S    
C22   H5    S    
O2    V4    S    
O16   V4    S    
O17   V1    S    
C21   H6    S    
C11   C12   T    
C20   C24   A    
O1    V3    S    
C19   H11   S    
O9    V1    S    
O8    V4    S    
C4    O14   A    
C23   H8    S    
C18   H10   S    
O3    V1    S    
C3    O13   A    
C14   C21   A    
C17   H9    S    
C27   H4    S    
C3    C10   S    
C13   C22   A    
C7    C13   S    
C26   H1    S    
C19   C23   A    
C1    O15   A    
C25   H2    S    
C28   C32   A    
C1    C12   S    
C2    O16   A    
C15   C24   A    
C24   H7    S    
O20   V2    S    
