data_mof_unit_50807.cif
_audit_creation_date              2013-03-05T15:45:56-0500
_audit_creation_method            fapswitch 2.2
_symmetry_space_group_name_H-M    P1
_symmetry_Int_Tables_number       1
_space_group_crystal_system       triclinic
_cell_length_a                    8.338901
_cell_length_b                    15.240835
_cell_length_c                    19.077798
_cell_angle_alpha                 97.400028
_cell_angle_beta                  94.298404
_cell_angle_gamma                 98.582419
_cell_volume                      2366.52347268

loop_
_atom_site_label
_atom_site_type_symbol
_atom_site_description
_atom_site_fract_x
_atom_site_fract_y
_atom_site_fract_z
_atom_type_partial_charge
P1    P     P_3+3 0.990670 0.707470 0.561860 0.517590
O1    O     O_2   0.164990 0.721870 0.541490 -0.267039
O2    O     O_3   0.893010 0.608480 0.539150 -0.403240
O3    O     O_3   0.389100 0.667490 0.413860 -0.344763
O4    O     O_2   0.315689 0.825096 0.463051 -0.326505
O5    O     O_3   0.015783 0.733514 0.654907 -0.553809
O6    O     O_3   0.376202 0.810007 0.331102 -0.563951
H1    H     H_    0.335976 0.677064 0.283791 0.155933
C1    C     C_3   0.364400 0.765736 0.205500 -0.957888
H2    H     H_    0.231569 0.766117 0.196901 0.294436
H3    H     H_    0.429690 0.832746 0.199132 0.249586
P2    P     P_3+3 0.340140 0.430100 0.338890 0.472990
P3    P     P_3+3 0.916991 0.636105 0.288819 0.412275
O7    O     O_2   0.172070 0.457600 0.329050 -0.388709
O8    O     O_3   0.964370 0.622050 0.377340 -0.385399
O9    O     O_2   0.019934 0.575486 0.245816 -0.393767
O10   O     O_3   0.303015 0.312611 0.311177 -0.607842
O11   O     O_3   0.999938 0.743687 0.275398 -0.532259
C2    C     C_3   0.955712 0.805316 0.328685 0.430678
H4    H     H_    0.020444 0.799648 0.380562 0.107611
H5    H     H_    0.822290 0.793909 0.332708 -0.001576
C3    C     C_3   0.008902 0.899760 0.311462 -0.460813
H6    H     H_    0.997387 0.950382 0.357462 0.167738
H7    H     H_    0.139834 0.906109 0.302695 0.210398
C4    C     C_3   0.877823 0.268120 0.299686 0.557940
H8    H     H_    0.000577 0.287381 0.326983 0.079746
C5    C     C_3   0.861467 0.179204 0.248330 -0.497538
H9    H     H_    0.732474 0.156428 0.226614 0.213033
H10   H     H_    0.892006 0.127870 0.281031 0.148035
Ba1   Ba    Ba6+2 0.161750 0.544670 0.467760 1.613502
C6    C     C_3   0.059034 0.660273 0.684800 0.291793
H11   H     H_    0.176699 0.646037 0.666850 0.104529
H12   H     H_    0.962966 0.600582 0.668824 0.091655
C7    C     C_3   0.074424 0.680448 0.766363 -0.447255
H13   H     H_    0.094670 0.618838 0.788465 0.164475
H14   H     H_    0.955788 0.694670 0.783724 0.238773
C8    C     C_3   0.307567 0.263228 0.368948 0.434363
H15   H     H_    0.185345 0.246578 0.386424 -0.034255
H16   H     H_    0.386885 0.299930 0.415287 0.158589
C9    C     C_3   0.370966 0.174600 0.350048 -0.476926
H17   H     H_    0.367574 0.140179 0.398077 0.146500
H18   H     H_    0.497347 0.188514 0.338060 0.261548
P4    P     P_3+3 0.819620 0.292520 0.438080 0.489373
O12   O     O_2   0.645300 0.278070 0.458480 -0.370649
O13   O     O_3   0.917280 0.391520 0.460790 -0.340683
O14   O     O_3   0.421200 0.332510 0.586090 -0.312368
O15   O     O_3   0.756890 0.258261 0.347295 -0.612634
P5    P     P_3+3 0.868357 0.384110 0.715715 0.483386
O16   O     O_3   0.383620 0.545480 0.584560 -0.280902
O17   O     O_3   0.845920 0.377940 0.622610 -0.303225
O18   O     O_2   0.741361 0.438645 0.746397 -0.401367
O19   O     O_3   0.799222 0.275675 0.732731 -0.521724
Ba2   Ba    Ba6+2 0.648430 0.455320 0.532180 1.643920
P6    P     P_3+3 0.434742 0.783681 0.415132 0.494584
C10   C     C_3   0.409261 0.742880 0.279124 0.462659
H19   H     H_    0.540963 0.738571 0.284078 0.010997
H20   H     H_    0.398039 0.714885 0.164493 0.223428
O20   O     O_3   0.426680 0.454510 0.415380 -0.359089
C11   C     C_3   0.593755 0.740635 0.669319 0.574382
H21   H     H_    0.701217 0.709609 0.654843 0.035359
C12   C     C_3   0.653939 0.830835 0.716512 -0.123308
H22   H     H_    0.715140 0.878552 0.683393 0.093207
H23   H     H_    0.549639 0.860123 0.737760 0.132780
P7    P     P_3+3 0.465087 0.571193 0.674377 0.489426
O21   O     O_2   0.638220 0.542340 0.670930 -0.371542
O22   O     O_3   0.490843 0.686493 0.707013 -0.627712
C13   C     C_3   0.922540 0.223911 0.720424 0.305678
H24   H     H_    0.975165 0.233690 0.669550 0.087970
H25   H     H_    0.019288 0.242785 0.765353 0.060883
C14   C     C_3   0.851364 0.124578 0.714963 -0.396318
H26   H     H_    0.778867 0.103413 0.662529 0.202898
H27   H     H_    0.766668 0.114019 0.756570 0.225342
P8    P     P_3+3 0.380364 0.215013 0.580356 0.504614
C15   C     C_3   0.388014 0.254661 0.715866 0.534413
H28   H     H_    0.259002 0.263657 0.707095 0.000917
O23   O     O_2   0.509385 0.176541 0.536947 -0.379166
O24   O     O_3   0.422926 0.186479 0.665070 -0.515400
H29   H     H_    0.468195 0.319197 0.713796 0.150258
H30   H     H_    0.365443 0.274714 0.829035 0.221351
C16   C     C_3   0.418137 0.229475 0.789772 -1.024744
H31   H     H_    0.550962 0.235787 0.805001 0.291285
H32   H     H_    0.361425 0.159094 0.790885 0.266642
C17   C     C_R   0.649914 0.827941 0.452204 0.203433
H33   H     H_    0.692113 0.695195 0.467584 0.184666
H34   H     H_    0.513729 0.962322 0.403985 0.171818
C18   C     C_R   0.891624 0.792930 0.517030 0.252699
C19   C     C_R   0.073750 0.229181 0.514194 0.014019
C20   C     C_R   0.170727 0.169452 0.538116 0.103567
C21   C     C_R   0.108911 0.078110 0.531049 -0.382670
C22   C     C_R   0.948256 0.044305 0.500179 0.072475
C23   C     C_R   0.855560 0.106522 0.471037 -0.013158
C24   C     C_R   0.878636 0.950257 0.495639 0.044228
C25   C     C_R   0.719416 0.920209 0.459945 0.019513
C26   C     C_R   0.633988 0.982536 0.431680 -0.190028
C27   C     C_R   0.701595 0.072573 0.436342 -0.122673
C28   C     C_R   0.959558 0.885192 0.526389 -0.322141
C29   C     C_R   0.741891 0.765771 0.476639 -0.429758
C30   C     C_R   0.919204 0.201119 0.478311 0.065046
H35   H     H_    0.074619 0.904246 0.558378 0.181577
H36   H     H_    0.188753 0.035308 0.550465 0.188438
H37   H     H_    0.631568 0.115662 0.411923 0.164715
C31   C     C_R   0.589050 0.564803 0.304854 -0.484899
C32   C     C_R   0.451814 0.499795 0.278601 0.323482
C33   C     C_R   0.403650 0.484380 0.205326 -0.271808
C34   C     C_R   0.498256 0.527210 0.157200 0.023863
C35   C     C_R   0.646992 0.583114 0.184154 -0.264044
C36   C     C_R   0.695343 0.600386 0.257327 0.189915
C37   C     C_R   0.490712 0.577513 0.036262 -0.169192
C38   C     C_R   0.445074 0.563123 0.963177 -0.171076
C39   C     C_R   0.351131 0.481993 0.929964 0.167991
C40   C     C_R   0.306701 0.414690 0.972047 -0.171994
C41   C     C_R   0.355398 0.428359 0.045317 -0.164005
C42   C     C_R   0.447345 0.510474 0.078768 0.164818
C43   C     C_R   0.134241 0.431072 0.826209 -0.335164
C44   C     C_R   0.077456 0.433881 0.755344 0.220260
C45   C     C_R   0.343905 0.508571 0.734257 0.258815
C46   C     C_R   0.402106 0.505501 0.804579 -0.288005
C47   C     C_R   0.296213 0.470280 0.852379 0.045779
C48   C     C_R   0.180779 0.477641 0.712348 -0.362771
H38   H     H_    0.526975 0.534833 0.822846 0.166855
H39   H     H_    0.480870 0.616892 0.932982 0.140450
H40   H     H_    0.558129 0.642271 0.059517 0.123105
H41   H     H_    0.292718 0.438186 0.186351 0.134786
H42   H     H_    0.236083 0.350972 0.948150 0.114647
H43   H     H_    0.322261 0.373885 0.075290 0.113164
H44   H     H_    0.051136 0.402047 0.861068 0.148961
H45   H     H_    0.731472 0.608070 0.148154 0.150143
H46   H     H_    0.132151 0.490287 0.661287 0.168724
H47   H     H_    0.628302 0.575451 0.361261 0.169422
C49   C     C_3   0.970611 0.181095 0.186069 -0.293073
C50   C     C_3   0.896327 0.213216 0.119325 -0.876022
H48   H     H_    0.760463 0.196489 0.112656 0.258836
H49   H     H_    0.933916 0.287091 0.121258 0.240966
H50   H     H_    0.943867 0.180339 0.071208 0.247108
H51   H     H_    0.090552 0.223654 0.204249 0.230586
H52   H     H_    0.990930 0.111089 0.169616 0.205452
C51   C     C_3   0.211111 0.759154 0.797269 -0.113599
C52   C     C_3   0.325840 0.734058 0.854838 -0.895195
H53   H     H_    0.397849 0.684374 0.831404 0.292649
H54   H     H_    0.411050 0.794664 0.880241 0.273741
H55   H     H_    0.255708 0.705790 0.896279 0.253235
H56   H     H_    0.157606 0.815920 0.823019 0.238325
H57   H     H_    0.282535 0.784375 0.754980 0.220693
C53   C     C_3   0.276124 0.109439 0.288076 -0.280066
C54   C     C_3   0.344327 0.121170 0.216974 -0.870724
H58   H     H_    0.358929 0.192178 0.207641 0.279137
H59   H     H_    0.464398 0.098309 0.216391 0.245393
H60   H     H_    0.261845 0.078926 0.173016 0.232165
H61   H     H_    0.286816 0.040358 0.298031 0.195072
H62   H     H_    0.146402 0.115372 0.286064 0.191094
N1    N     N_R   0.502760 0.756967 0.605425 0.191997
O25   O     O_R   0.478338 0.695934 0.550388 -0.351360
O26   O     O_R   0.445874 0.831669 0.602425 -0.427153
N2    N     N_R   0.768388 0.821482 0.775306 0.248423
O27   O     O_R   0.917571 0.863545 0.778874 -0.446314
O28   O     O_R   0.715905 0.787106 0.830564 -0.411490
C55   C     C_3   0.913165 0.918334 0.244351 -0.228982
C56   C     C_3   0.744883 0.940614 0.259091 -0.927639
H63   H     H_    0.669467 0.883665 0.277620 0.269725
H64   H     H_    0.756296 0.999311 0.301047 0.258843
H65   H     H_    0.682154 0.956349 0.209922 0.251591
H66   H     H_    0.983109 0.976356 0.224315 0.178163
H67   H     H_    0.899464 0.859896 0.201519 0.225954
C57   C     C_3   0.985943 0.066543 0.721159 -0.358739
C58   C     C_3   0.044332 0.063990 0.798721 -0.747865
H68   H     H_    0.093508 0.132198 0.826631 0.221745
H69   H     H_    0.941960 0.035028 0.827025 0.278341
H70   H     H_    0.141833 0.021836 0.801039 0.258379
H71   H     H_    0.937796 0.997124 0.695474 0.239904
H72   H     H_    0.090773 0.091617 0.692445 0.209108
N3    N     N_R   0.125882 0.321640 0.534745 0.253869
O29   O     O_R   0.209300 0.368716 0.493949 -0.354219
O30   O     O_R   0.131962 0.350915 0.601377 -0.470002
C59   C     C_3   0.840995 0.341573 0.257723 -0.402934
C60   C     C_3   0.802146 0.418147 0.308214 -0.645529
H73   H     H_    0.902044 0.445814 0.350687 0.301896
H74   H     H_    0.790264 0.464884 0.271393 0.221786
H75   H     H_    0.685628 0.402292 0.332539 0.225781
H76   H     H_    0.948874 0.365628 0.229752 0.197161
H77   H     H_    0.731709 0.318379 0.217975 0.190694

loop_
_geom_bond_atom_site_label_1
_geom_bond_atom_site_label_2
_geom_bond_distance
_ccdc_geom_bond_type
C10   H19   1.107686 S    
C55   C56   1.529828 S    
P7    C45   1.844772 S    
C5    H10   1.107947 S    
Ba1   O13   2.842710 S    
C57   H72   1.111894 S    
C40   C41   1.406002 A    
C31   H47   1.085299 S    
O6    C10   1.403503 S    
P3    C36   1.876833 S    
C50   H50   1.116347 S    
C12   N2    1.452796 S    
C39   C47   1.496121 S    
C43   C44   1.406712 A    
C60   H74   1.072466 S    
C33   H41   1.082680 S    
C37   C38   1.397793 A    
N3    O30   1.286490 A    
C58   H68   1.108958 S    
P3    O11   1.740297 S    
H33   C29   1.080394 S    
C34   C42   1.502791 S    
C57   C58   1.529898 S    
C2    H5    1.110174 S    
P1    O1    1.524362 D    
C8    C9    1.533075 S    
C11   O22   1.403038 S    
C43   H44   1.082393 S    
C35   C36   1.403525 A    
C17   C25   1.423257 A    
C28   H35   1.077395 S    
C24   C28   1.439826 A    
C45   C46   1.401046 A    
C7    H13   1.107530 S    
C12   H23   1.114515 S    
C18   C29   1.394092 A    
C59   C60   1.504936 S    
P6    C17   1.870930 S    
C53   H62   1.097123 S    
C56   H65   1.110344 S    
C39   C40   1.406168 A    
O12   Ba2   2.875832 S    
P4    Ba2   3.422133 S    
P5    O18   1.544431 D    
C26   C27   1.392455 A    
C6    H11   1.105383 S    
C15   O24   1.406011 S    
P2    O10   1.774219 S    
N1    O25   1.291909 A    
C6    H12   1.112087 S    
C14   H26   1.112754 S    
C1    C10   1.523268 S    
Ba2   O21   2.817131 S    
C1    H2    1.108512 S    
C4    O15   1.411298 S    
N2    O28   1.311626 A    
C19   C30   1.392926 A    
P2    O20   1.552673 S    
C48   H46   1.078416 S    
C59   H76   1.119086 S    
P5    O17   1.760897 S    
O5    C6    1.398084 S    
C51   H57   1.112183 S    
O13   Ba2   2.931523 S    
C11   H21   1.110326 S    
C58   H69   1.110501 S    
O16   P7    1.767557 S    
C15   C16   1.521034 S    
C56   H64   1.108496 S    
C41   C42   1.412773 A    
C57   H71   1.109433 S    
C31   C32   1.410669 A    
O7    Ba1   2.816885 S    
C4    C59   1.511642 S    
H1    C10   1.111652 S    
C33   C34   1.414457 A    
C54   H59   1.108524 S    
C54   H58   1.109635 S    
C60   H75   1.115443 S    
Ba1   Ba2   4.600889 S    
C11   C12   1.536195 S    
C51   H56   1.107920 S    
C15   H28   1.107756 S    
C21   H36   1.077467 S    
C13   H24   1.112821 S    
O17   Ba2   2.785167 S    
O4    P6    1.547303 D    
C2    C3    1.526341 S    
P2    C32   1.870410 S    
C16   H32   1.109371 S    
C46   H38   1.082633 S    
O11   C2    1.401900 S    
C4    H8    1.093713 S    
P2    Ba1   3.394710 S    
C35   H45   1.082812 S    
P1    O5    1.757978 S    
P1    O2    1.593455 S    
P7    O22   1.762734 S    
C37   C42   1.406922 A    
O2    Ba1   2.930803 S    
P4    O12   1.524587 D    
P8    C20   1.862783 S    
C8    H15   1.099929 S    
P4    O13   1.593583 S    
H34   C26   1.079896 S    
C22   C24   1.453001 A    
C60   H73   1.110997 S    
C19   N3    1.406305 S    
N2    O27   1.304320 A    
C6    C7    1.538610 S    
C31   C36   1.416166 A    
C25   C26   1.406024 A    
O10   C8    1.413700 S    
C24   C25   1.427912 A    
C1    H3    1.109106 S    
N3    O29   1.296319 A    
C41   H43   1.081733 S    
C43   C47   1.418388 A    
O19   C13   1.402006 S    
C18   C28   1.418617 A    
P5    C44   1.856673 S    
C9    H17   1.113043 S    
Ba1   O16   2.785062 S    
P2    O7    1.526861 D    
C58   H70   1.110667 S    
C44   C48   1.391176 A    
C9    C53   1.527260 S    
C17   C29   1.407290 A    
C56   H63   1.105988 S    
P4    C30   1.935032 S    
C3    H7    1.108804 S    
C50   H48   1.117412 S    
C59   H77   1.123257 S    
C5    H9    1.110805 S    
C54   H60   1.110481 S    
O8    Ba1   2.784490 S    
C51   C52   1.525701 S    
P1    C18   1.900587 S    
C55   H67   1.114518 S    
C53   H61   1.108834 S    
O3    P6    1.751499 S    
C40   H42   1.082925 S    
C49   H52   1.114127 S    
C37   H40   1.082211 S    
C16   H31   1.110511 S    
C50   H49   1.117819 S    
C52   H55   1.111098 S    
C14   C57   1.535926 S    
Ba2   O20   2.784458 S    
C52   H54   1.109121 S    
C3    C55   1.537631 S    
C11   N1    1.455826 S    
C4    C5    1.548479 S    
C34   C35   1.415922 A    
C7    C51   1.547492 S    
C45   C48   1.385619 A    
O1    Ba1   2.875222 S    
C53   C54   1.530754 S    
C13   C14   1.528719 S    
P7    O21   1.574282 D    
C2    H4    1.110941 S    
P3    O8    1.752831 S    
C49   C50   1.541935 S    
C8    H16   1.098383 S    
C38   C39   1.406668 A    
O2    Ba2   2.843360 S    
C38   H39   1.080208 S    
C22   C23   1.447733 A    
O16   Ba2   2.940366 S    
Ba1   O20   2.941213 S    
O14   Ba2   2.807321 S    
C9    H18   1.090803 S    
P1    Ba1   3.421614 S    
P8    O23   1.544001 D    
C7    H14   1.109049 S    
N1    O26   1.303242 A    
C23   C30   1.445183 A    
C12   H22   1.115567 S    
C49   H51   1.112562 S    
C52   H53   1.105692 S    
C23   C27   1.392971 A    
H30   C16   1.111875 S    
C1    H20   1.110386 S    
P5    O19   1.746671 S    
C20   C21   1.396058 A    
C19   C20   1.400837 A    
C15   H29   1.110743 S    
P3    O9    1.552601 D    
C32   C33   1.404923 A    
C5    C49   1.550198 S    
P8    O24   1.751614 S    
C3    H6    1.111279 S    
C14   H27   1.112570 S    
O6    P6    1.753876 S    
C13   H25   1.109915 S    
C21   C22   1.415840 A    
C46   C47   1.415919 A    
P4    O15   1.759463 S    
C55   H66   1.111238 S    
O14   P8    1.759732 S    
O3    Ba1   2.807923 S    
C27   H37   1.068541 S    
