data_mof_unit_33960.cif
_audit_creation_date              2012-12-10T17:22:04-0500
_audit_creation_method            fapswitch 2.2
_symmetry_space_group_name_H-M    P1
_symmetry_Int_Tables_number       1
_space_group_crystal_system       triclinic
_cell_length_a                    10.235772
_cell_length_b                    10.539887
_cell_length_c                    15.738408
_cell_angle_alpha                 91.189168
_cell_angle_beta                  81.57417
_cell_angle_gamma                 95.194401
_cell_volume                      1672.64782465

loop_
_atom_site_label
_atom_site_type_symbol
_atom_type_description
_atom_site_fract_x
_atom_site_fract_y
_atom_site_fract_z
_atom_type_partial_charge
C1    C     C_R   0.555429 0.734531 0.491407 0.761883
C2    C     C_3   0.370800 0.542434 0.060612 0.315275
C3    C     C_3   0.508121 0.505011 0.082362 -0.080375
C4    C     C_3   0.541602 0.374401 0.041635 -0.559672
C5    C     C_3   0.548183 0.379326 0.942996 0.366125
C6    C     C_1   0.501796 0.500501 0.174407 0.061733
C7    C     C_1   0.506449 0.507830 0.825100 0.014891
C8    C     C_1   0.503457 0.504054 0.750031 -0.235006
C9    C     C_2   0.584206 0.870950 0.472122 0.386675
C10   C     C_2   0.488236 0.928553 0.442746 -0.178013
C11   C     C_2   0.413331 0.127615 0.499210 0.292057
C12   C     C_R   0.500570 0.500482 0.661426 0.895287
C13   C     C_2   0.493111 0.065754 0.440565 -0.213373
C14   C     C_2   0.930285 0.510896 0.505938 -0.054129
C15   C     C_2   0.078154 0.505970 0.481969 0.527326
C16   C     C_R   0.444237 0.265368 0.505125 0.771762
C17   C     C_R   0.499405 0.498789 0.338632 0.857888
C18   C     C_3   0.365286 0.531377 0.962669 0.197387
C19   C     C_3   0.607793 0.620803 0.943359 0.155909
C20   C     C_3   0.621810 0.608699 0.042072 0.868495
C21   C     C_1   0.498939 0.498833 0.249926 -0.191574
C22   C     C_3   0.507143 0.510359 0.916777 -0.057985
H1    H     H_    0.372936 0.646600 0.074186 0.135678
H2    H     H_    0.637734 0.348941 0.058246 0.240247
H3    H     H_    0.569058 0.116022 0.394928 0.125326
H4    H     H_    0.394005 0.877185 0.434147 0.159060
H5    H     H_    0.894661 0.563747 0.563318 0.048436
H6    H     H_    0.113852 0.580612 0.594025 0.099991
H7    H     H_    0.338824 0.625457 0.941777 0.109387
H8    H     H_    0.706490 0.607856 0.905614 0.155411
H9    H     H_    0.475018 0.303216 0.923021 0.132070
H10   H     H_    0.470212 0.294983 0.067875 0.144595
N1    N     N_2   0.842720 0.448890 0.465540 0.094329
N2    N     N_2   0.157250 0.551040 0.534500 -0.245945
O1    O     O_R   0.431050 0.692470 0.506940 -0.612395
O2    O     O_R   0.651130 0.659650 0.484820 -0.591792
O3    O     O_R   0.389910 0.516410 0.633920 -0.611433
O4    O     O_R   0.609990 0.483590 0.611800 -0.608379
O5    O     O_R   0.348870 0.340350 0.515180 -0.629039
O6    O     O_R   0.568950 0.307530 0.493060 -0.624485
O7    O     O_R   0.390010 0.516410 0.388200 -0.545686
O8    O     O_R   0.610090 0.483590 0.366080 -0.605065
Zn1   Zn    Zn3+2 0.353060 0.521920 0.514770 0.955467
Zn2   Zn    Zn3+2 0.646940 0.478080 0.485230 0.977478
O9    O     O_3   0.272389 0.429453 0.944031 -0.642272
C23   C     C_3   0.188796 0.465832 0.886369 0.068421
H11   H     H_    0.148262 0.378091 0.855542 0.158630
H12   H     H_    0.243933 0.526194 0.833354 0.145562
C24   C     C_3   0.072834 0.533059 0.934117 -0.292794
H13   H     H_    0.006170 0.464022 0.976432 0.255896
H14   H     H_    0.109791 0.611241 0.975204 0.220395
C25   C     C_3   0.994859 0.589750 0.871115 -0.927807
H15   H     H_    0.061740 0.650013 0.823027 0.245343
H16   H     H_    0.923938 0.651342 0.907189 0.270338
H17   H     H_    0.940160 0.512947 0.837570 0.286422
O10   O     O_3   0.251316 0.495192 0.113552 -0.572560
C26   C     C_3   0.235333 0.362259 0.126732 -0.163759
H18   H     H_    0.256131 0.305614 0.067168 0.184336
H19   H     H_    0.129954 0.335914 0.152868 0.161424
H20   H     H_    0.294279 0.334680 0.175980 0.132617
O11   O     O_3   0.329735 0.059181 0.563699 -0.643041
C27   C     C_3   0.199899 0.098688 0.575044 0.099932
H21   H     H_    0.129349 0.011742 0.578648 0.147959
H22   H     H_    0.178117 0.153499 0.520068 0.116964
C28   C     C_3   0.172774 0.172331 0.659920 -0.315320
H23   H     H_    0.167880 0.105719 0.714364 0.208211
H24   H     H_    0.254575 0.247453 0.665284 0.236909
C29   C     C_3   0.042543 0.234512 0.666947 -0.977944
H25   H     H_    0.049345 0.308281 0.616827 0.260050
H26   H     H_    0.021639 0.280677 0.730960 0.258607
H27   H     H_    0.959341 0.162225 0.658874 0.262228
O12   O     O_3   0.705201 0.939625 0.478882 -0.608016
C30   C     C_3   0.753632 0.908166 0.554436 -0.327703
H28   H     H_    0.808670 0.821805 0.544066 0.186168
H29   H     H_    0.673591 0.895748 0.610588 0.150932
H30   H     H_    0.825016 0.987619 0.570232 0.185267
O13   O     O_3   0.131773 0.469639 0.399875 -0.520016
C31   C     C_3   0.137307 0.336010 0.394148 -0.111264
H31   H     H_    0.109180 0.303051 0.331444 0.154653
H32   H     H_    0.069957 0.281539 0.445445 0.094904
H33   H     H_    0.240071 0.311205 0.392205 0.141971
O14   O     O_3   0.887820 0.405521 0.386548 -0.502378
C32   C     C_3   0.820350 0.285214 0.375735 -0.126015
H34   H     H_    0.725431 0.294685 0.352021 0.173418
H35   H     H_    0.805444 0.226831 0.435194 0.163907
H36   H     H_    0.880905 0.231885 0.325372 0.107126
O15   O     O_3   0.565830 0.742293 0.926856 -0.654701
C33   C     C_3   0.625628 0.792569 0.845783 0.089120
H37   H     H_    0.550941 0.844959 0.819809 0.165422
H38   H     H_    0.655547 0.718820 0.797094 0.131645
C34   C     C_3   0.746395 0.885539 0.855363 -0.359142
H39   H     H_    0.717018 0.960923 0.902585 0.215099
H40   H     H_    0.823804 0.833978 0.878354 0.207689
C35   C     C_3   0.806201 0.947756 0.770324 -1.024409
H41   H     H_    0.838989 0.874097 0.722391 0.264962
H42   H     H_    0.893820 0.013383 0.780282 0.275026
H43   H     H_    0.732774 0.003294 0.745664 0.265797
O16   O     O_3   0.602299 0.727015 0.086645 -0.633059
C36   C     C_3   0.710077 0.821455 0.069409 -0.215143
H44   H     H_    0.791971 0.794302 0.020155 0.161481
H45   H     H_    0.751440 0.845162 0.129685 0.151555
H46   H     H_    0.672437 0.909367 0.048656 0.173472
O17   O     O_3   0.751636 0.568375 0.044868 -0.659375
C37   C     C_3   0.789309 0.563688 0.127748 -0.277746
H47   H     H_    0.769587 0.465126 0.152754 0.171218
H48   H     H_    0.741468 0.630591 0.175246 0.193765
H49   H     H_    0.897837 0.588692 0.121987 0.196146
O18   O     O_3   0.679315 0.363647 0.902428 -0.586931
C38   C     C_3   0.696902 0.233629 0.887082 -0.328541
H50   H     H_    0.636830 0.194268 0.837630 0.172196
H51   H     H_    0.671751 0.177408 0.947211 0.150045
H52   H     H_    0.802736 0.224462 0.862033 0.200889

loop_
_geom_bond_atom_site_label_1
_geom_bond_atom_site_label_2
_ccdc_geom_bond_type
O15   C33   S    
C2    C18   S    
C30   H29   S    
C30   H28   S    
C19   C20   S    
C9    O12   S    
C3    C6    S    
C14   N1    D    
C37   H48   S    
C7    C8    T    
C20   O17   S    
O13   C31   S    
O18   C38   S    
C23   C24   S    
C19   O15   S    
C38   H51   S    
C4    H2    S    
C31   H32   S    
C26   H19   S    
O10   C26   S    
C12   O3    A    
C24   H13   S    
C17   O8    A    
C27   H22   S    
C5    C22   S    
C32   H34   S    
C29   H25   S    
C28   H24   S    
C14   H5    S    
O1    Zn1   S    
C9    C10   D    
C15   N2    D    
C25   H17   S    
C28   C29   S    
H6    N2    S    
O7    Zn1   S    
C13   H3    S    
C35   H41   S    
O8    Zn2   S    
C37   H47   S    
C25   H16   S    
C23   H12   S    
C19   C22   S    
C1    C9    S    
C38   H52   S    
C34   H39   S    
C31   H31   S    
O12   C30   S    
C26   H20   S    
O5    Zn1   S    
C35   H43   S    
C24   H14   S    
O9    C23   S    
C6    C21   T    
C17   C21   S    
O3    Zn1   S    
O4    Zn2   S    
C27   H21   S    
C34   H40   S    
C11   C16   S    
C36   H44   S    
C33   C34   S    
C8    C12   S    
C24   C25   S    
C36   H46   S    
C3    C20   S    
C18   H7    S    
C35   H42   S    
C4    H10   S    
C16   O6    A    
C32   H35   S    
C33   H38   S    
O14   C32   S    
C30   H30   S    
O2    Zn2   S    
C3    C4    S    
C18   O9    S    
C2    H1    S    
C25   H15   S    
C1    O1    A    
N1    O14   S    
C23   H11   S    
C27   C28   S    
C36   H45   S    
C18   C22   S    
N1    Zn2   S    
N2    Zn1   S    
C4    C5    S    
C11   O11   S    
C10   C13   S    
C7    C22   S    
C2    C3    S    
C2    O10   S    
C38   H50   S    
C34   C35   S    
C11   C13   D    
C31   H33   S    
C10   H4    S    
C26   H18   S    
C15   O13   S    
C29   H27   S    
C28   H23   S    
C12   O4    A    
O11   C27   S    
C17   O7    A    
C16   O5    A    
O6    Zn2   S    
C32   H36   S    
C20   O16   S    
C33   H37   S    
C29   H26   S    
O16   C36   S    
O17   C37   S    
C14   C15   S    
C19   H8    S    
C37   H49   S    
C1    O2    A    
C5    H9    S    
C5    O18   S    
