data_mof_unit_54207.cif
_audit_creation_date              2012-12-10T18:21:16-0500
_audit_creation_method            fapswitch 2.2
_symmetry_space_group_name_H-M    P1
_symmetry_Int_Tables_number       1
_space_group_crystal_system       triclinic
_cell_length_a                    9.592544
_cell_length_b                    10.629843
_cell_length_c                    17.389216
_cell_angle_alpha                 89.876287
_cell_angle_beta                  86.7985
_cell_angle_gamma                 89.175148
_cell_volume                      1770.17789671

loop_
_atom_site_label
_atom_site_type_symbol
_atom_type_description
_atom_site_fract_x
_atom_site_fract_y
_atom_site_fract_z
_atom_type_partial_charge
C1    C     C_R   0.499375 0.740124 0.500836 0.875988
C2    C     C_R   0.500614 0.260040 0.499438 0.828137
C3    C     C_3   0.449650 0.958710 0.434238 -0.109564
C4    C     C_3   0.551035 0.041920 0.565334 -0.127629
C5    C     C_3   0.580891 0.040236 0.439128 -0.143259
C6    C     C_3   0.419802 0.960717 0.560349 -0.153299
C7    C     C_3   0.501013 0.122908 0.499127 -0.023360
C8    C     C_3   0.499576 0.877620 0.500537 -0.024167
C9    C     C_3   0.369719 0.043657 0.494047 -0.054565
C10   C     C_3   0.631320 0.957021 0.505430 -0.056020
C11   C     C_3   0.952483 0.389185 0.511791 0.412803
C12   C     C_3   0.047474 0.611348 0.488436 0.407679
C13   C     C_3   0.045611 0.461086 0.565316 -0.260384
C14   C     C_3   0.954069 0.539305 0.435330 -0.239436
C15   C     C_3   0.054831 0.428529 0.447249 0.406895
C16   C     C_3   0.943690 0.572684 0.553153 0.396578
C17   C     C_R   0.482962 0.494623 0.649706 0.894141
C18   C     C_R   0.518143 0.501009 0.350732 0.954525
C19   C     C_R   0.479690 0.469826 0.734003 -0.219886
C20   C     C_R   0.525873 0.494254 0.266417 -0.219558
C21   C     C_R   0.586526 0.392701 0.763510 0.299310
C22   C     C_R   0.457463 0.394296 0.232333 0.310466
C23   C     C_R   0.584950 0.363648 0.842944 0.328498
C24   C     C_R   0.428223 0.401393 0.153694 0.404167
C25   C     C_R   0.479505 0.414700 0.892782 -0.104868
C26   C     C_R   0.495956 0.492566 0.106996 -0.070586
C27   C     C_R   0.372150 0.487198 0.863317 -0.213117
C28   C     C_R   0.582057 0.580188 0.139792 -0.284829
C29   C     C_R   0.374368 0.520116 0.785696 0.351506
C30   C     C_R   0.593095 0.586266 0.219209 0.359231
C31   C     C_2   0.487027 0.399771 0.977360 0.501975
C32   C     C_2   0.475939 0.502498 0.023241 0.387293
Cu1   Cu    Cu3+1 0.356850 0.500010 0.499980 1.105069
Cu2   Cu    Cu3+1 0.643150 0.499990 0.500020 1.132134
H1    H     H_    0.288841 0.522975 0.902253 0.230100
H2    H     H_    0.637163 0.647720 0.103030 0.233154
H3    H     H_    0.645799 0.074881 0.388855 0.209118
H4    H     H_    0.352932 0.929741 0.610564 0.219665
H5    H     H_    0.408342 0.923403 0.380132 0.222987
H6    H     H_    0.590398 0.076804 0.620013 0.206671
H7    H     H_    0.262162 0.078928 0.488046 0.249329
H8    H     H_    0.739440 0.921318 0.510423 0.238719
H9    H     H_    0.085721 0.421640 0.618934 0.238118
H10   H     H_    0.913530 0.571972 0.380308 0.258954
N1    N     N_3   0.141720 0.500030 0.499940 -0.304986
N2    N     N_3   0.858280 0.499970 0.500060 -0.306031
O1    O     O_R   0.379130 0.683150 0.499960 -0.540338
O2    O     O_R   0.620870 0.316850 0.500040 -0.518052
O3    O     O_R   0.620910 0.683140 0.500000 -0.540702
O4    O     O_R   0.379090 0.316860 0.500000 -0.558713
O5    O     O_R   0.365090 0.500030 0.613580 -0.595018
O6    O     O_R   0.634910 0.499970 0.386420 -0.559738
O7    O     O_R   0.606870 0.500020 0.613610 -0.483420
O8    O     O_R   0.393130 0.499980 0.386390 -0.503414
O9    O     O_3   0.692745 0.348286 0.713906 -0.652598
H11   H     H_    0.780188 0.342700 0.741521 0.374696
O10   O     O_3   0.423571 0.290326 0.276878 -0.671760
H12   H     H_    0.413615 0.216871 0.242748 0.351248
S1    S     S_3+6 0.908974 0.229358 0.532444 0.054042
O11   O     O_2   0.798579 0.222494 0.596474 -0.267607
O12   O     O_2   0.860101 0.166549 0.461851 -0.278751
O13   O     O_3   0.052007 0.153892 0.560948 -0.550343
H13   H     H_    0.021194 0.067094 0.572807 0.398011
S2    S     S_3+6 0.095550 0.765650 0.457804 0.054462
O14   O     O_2   0.150829 0.837290 0.523419 -0.310994
O15   O     O_2   0.203199 0.757122 0.391802 -0.266309
O16   O     O_3   0.953516 0.841109 0.427719 -0.542711
H14   H     H_    0.985958 0.926408 0.413183 0.398579
S3    S     S_3+6 0.112065 0.340522 0.364202 0.086128
O17   O     O_2   0.173677 0.429164 0.304679 -0.262338
O18   O     O_2   0.216848 0.241663 0.384436 -0.259339
O19   O     O_3   0.973911 0.271247 0.327753 -0.488221
H15   H     H_    0.012773 0.224245 0.282136 0.379337
S4    S     S_3+6 0.878078 0.667962 0.633158 0.104914
O20   O     O_2   0.752450 0.744955 0.614813 -0.294061
O21   O     O_2   0.840543 0.584117 0.700520 -0.229879
O22   O     O_3   0.001989 0.767594 0.657981 -0.471674
H16   H     H_    0.962342 0.810565 0.704906 0.398482
S5    S     S_3+6 0.694549 0.709238 0.254137 0.036642
O23   O     O_2   0.843531 0.664078 0.254996 -0.239880
O24   O     O_2   0.687642 0.821048 0.201307 -0.250348
O25   O     O_3   0.638175 0.753935 0.342873 -0.576906
H17   H     H_    0.707842 0.815307 0.358508 0.389260
S6    S     S_3+6 0.249851 0.632472 0.758420 0.068952
O26   O     O_2   0.130002 0.562707 0.728046 -0.263889
O27   O     O_2   0.196949 0.709547 0.826610 -0.209944
O28   O     O_3   0.320624 0.729526 0.690989 -0.535761
H18   H     H_    0.263189 0.720866 0.645876 0.401148
O29   O     O_3   0.458715 0.620155 0.990260 -0.724931
H19   H     H_    0.434762 0.681938 0.031700 0.354370
O30   O     O_3   0.519075 0.283708 0.008526 -0.653809
H20   H     H_    0.501654 0.218195 0.969863 0.363648
O31   O     O_3   0.329896 0.325819 0.122468 -0.681249
H21   H     H_    0.265835 0.293639 0.164404 0.358518
O32   O     O_3   0.686936 0.288509 0.873372 -0.683372
H22   H     H_    0.715556 0.222673 0.835227 0.345970

loop_
_geom_bond_atom_site_label_1
_geom_bond_atom_site_label_2
_ccdc_geom_bond_type
C25   C31   S    
O9    H11   S    
C26   C32   S    
O31   H21   S    
C5    H3    S    
C10   H8    S    
C1    C8    S    
Cu1   N1    S    
C2    C7    S    
S6    O28   S    
O28   H18   S    
C17   O5    A    
C6    C9    S    
C18   O6    A    
C14   N2    S    
C20   C30   A    
O22   H16   S    
S4    O21   D    
C16   S4    S    
C14   H10   S    
C19   C21   A    
C24   C26   A    
C20   C22   A    
C12   S2    S    
C27   C29   A    
S3    O18   D    
C2    O4    A    
C11   C15   S    
C12   C16   S    
Cu2   O3    S    
S4    O22   S    
C6    H4    S    
Cu2   N2    S    
O19   H15   S    
C3    H5    S    
S1    O11   D    
C22   O10   S    
C4    C7    S    
C11   S1    S    
C15   S3    S    
S1    O12   D    
S4    O20   D    
O16   H14   S    
S2    O16   S    
C4    H6    S    
S6    O26   D    
C29   S6    S    
C4    C6    S    
C3    C8    S    
C16   N2    S    
O30   H20   S    
C21   O9    S    
C1    O1    A    
C6    C8    S    
C27   H1    S    
Cu1   O4    S    
S2    O15   D    
S3    O19   S    
O13   H13   S    
C3    C9    S    
C32   O29   S    
Cu1   Cu2   S    
C30   S5    S    
C12   C14   S    
C31   O30   S    
C21   C23   A    
C25   C27   A    
Cu1   O1    S    
C22   C24   A    
Cu2   O2    S    
C15   N1    S    
C4    C10   S    
C19   C29   A    
C17   O7    A    
C13   H9    S    
C5    C7    S    
Cu1   O8    S    
C7    C9    S    
S1    O13   S    
Cu2   O6    S    
C31   C32   D    
S6    O27   D    
C12   N1    S    
C3    C5    S    
S5    O25   S    
S5    O24   D    
C9    H7    S    
Cu1   O5    S    
C26   C28   A    
C2    O2    A    
S2    O14   D    
C28   C30   A    
C5    C10   S    
C24   O31   S    
C13   N1    S    
C11   C13   S    
O10   H12   S    
C17   C19   S    
C23   O32   S    
C18   C20   S    
C23   C25   A    
S3    O17   D    
C18   O8    A    
S5    O23   D    
C28   H2    S    
Cu2   O7    S    
C8    C10   S    
O25   H17   S    
C13   C16   S    
O32   H22   S    
C14   C15   S    
C11   N2    S    
O29   H19   S    
C1    O3    A    
