data_mof_unit_44703.cif
_audit_creation_date              2013-03-05T15:58:51-0500
_audit_creation_method            fapswitch 2.2
_symmetry_space_group_name_H-M    P1
_symmetry_Int_Tables_number       1
_space_group_crystal_system       triclinic
_cell_length_a                    13.739875
_cell_length_b                    15.041928
_cell_length_c                    17.344797
_cell_angle_alpha                 89.517737
_cell_angle_beta                  86.507949
_cell_angle_gamma                 89.232464
_cell_volume                      3577.64152072

loop_
_atom_site_label
_atom_site_type_symbol
_atom_site_description
_atom_site_fract_x
_atom_site_fract_y
_atom_site_fract_z
_atom_type_partial_charge
O1    O     O_R   0.417720 0.629750 0.499980 -0.583628
O2    O     O_R   0.582280 0.370250 0.500020 -0.508680
O3    O     O_R   0.582260 0.629730 0.499990 -0.569910
O4    O     O_R   0.417740 0.370270 0.500010 -0.593645
C1    C     C_R   0.498838 0.670982 0.503781 0.884682
C2    C     C_R   0.500673 0.328875 0.499582 0.825171
O5    O     O_R   0.408190 0.500030 0.613590 -0.598555
O6    O     O_R   0.591810 0.499970 0.386410 -0.604164
O7    O     O_R   0.572730 0.500000 0.613600 -0.544532
O8    O     O_R   0.427270 0.500000 0.386400 -0.489990
C3    C     C_R   0.487482 0.503812 0.649558 0.878097
C4    C     C_R   0.512106 0.498924 0.349990 0.824746
Cu1   Cu    Cu3+1 0.402580 0.500010 0.500000 1.022760
Cu2   Cu    Cu3+1 0.597420 0.499990 0.500000 1.040420
C5    C     C_R   0.479623 0.512446 0.733313 -0.205327
C6    C     C_R   0.517880 0.497496 0.265327 -0.225310
C7    C     C_R   0.542876 0.567300 0.772336 0.312886
C8    C     C_R   0.437724 0.472305 0.223357 0.328904
C9    C     C_R   0.535381 0.568242 0.852782 -0.228425
C10   C     C_R   0.445509 0.477360 0.143252 -0.236259
C11   C     C_R   0.463929 0.518839 0.894349 -0.035263
C12   C     C_R   0.530407 0.508586 0.103454 -0.018693
C13   C     C_R   0.397726 0.467192 0.855440 0.380271
C14   C     C_R   0.610998 0.532956 0.144962 0.361768
C15   C     C_R   0.406633 0.464718 0.774882 -0.293491
C16   C     C_R   0.604091 0.525923 0.225529 -0.302273
C17   C     C_2   0.457384 0.525121 0.978395 -0.114330
C18   C     C_2   0.536107 0.509536 0.018562 -0.104186
H1    H     H_    0.665218 0.546507 0.257447 0.204410
H2    H     H_    0.358128 0.423122 0.744373 0.193770
H3    H     H_    0.606034 0.495523 0.988074 0.190628
H4    H     H_    0.386452 0.539268 0.006970 0.185174
H5    H     H_    0.385110 0.453774 0.112134 0.213474
H6    H     H_    0.582978 0.610659 0.883363 0.219434
C19   C     C_R   0.440742 0.188052 0.551255 -0.242315
C20   C     C_R   0.554916 0.812292 0.450709 -0.264306
C21   C     C_R   0.501244 0.232376 0.497329 -0.167858
C22   C     C_R   0.496046 0.767517 0.505439 -0.171311
C23   C     C_R   0.558212 0.185481 0.440848 0.504437
C24   C     C_R   0.433384 0.813980 0.558660 0.519972
C25   C     C_R   0.555530 0.091373 0.440254 -0.119340
C26   C     C_R   0.432708 0.908487 0.557468 -0.120075
C27   C     C_R   0.491846 0.046732 0.495422 -0.110689
C28   C     C_R   0.489813 0.953286 0.498004 -0.111207
C29   C     C_R   0.433649 0.095711 0.550500 0.002033
C30   C     C_R   0.549733 0.904451 0.443820 -0.006068
C31   C     C_R   0.614390 0.041342 0.385891 0.412429
C32   C     C_R   0.377777 0.958633 0.614441 0.409612
C33   C     C_R   0.607393 0.948099 0.385401 0.400870
C34   C     C_R   0.373094 0.052241 0.607149 0.399581
H7    H     H_    0.401147 0.226974 0.595437 0.192288
H8    H     H_    0.604531 0.773784 0.412785 0.195193
C35   C     C_R   0.210359 0.555115 0.449124 0.662911
C36   C     C_R   0.790544 0.444983 0.550449 0.635234
N1    N     N_R   0.256180 0.500070 0.500030 -0.228592
N2    N     N_R   0.743820 0.499930 0.499970 -0.220659
C37   C     C_R   0.203765 0.443753 0.548009 -0.069253
C38   C     C_R   0.796445 0.552080 0.448354 -0.047724
C39   C     C_R   0.101348 0.440973 0.547477 0.005578
C40   C     C_R   0.899307 0.551801 0.445996 -0.003694
C41   C     C_R   0.052261 0.497462 0.497130 0.052254
C42   C     C_R   0.948557 0.496862 0.497383 0.059004
C43   C     C_R   0.106709 0.552844 0.445294 -0.100634
C44   C     C_R   0.894386 0.440045 0.547957 -0.091095
C45   C     C_R   0.047331 0.380797 0.594340 -0.167835
C46   C     C_R   0.953960 0.603161 0.391809 -0.157562
C47   C     C_R   0.945464 0.378966 0.593327 -0.154241
C48   C     C_R   0.056112 0.602228 0.390321 -0.129389
H9    H     H_    0.242072 0.400198 0.586274 0.150666
H10   H     H_    0.758137 0.593786 0.408668 0.151154
H11   H     H_    0.083969 0.334219 0.631170 0.141505
H12   H     H_    0.917721 0.643508 0.349859 0.160938
H13   H     H_    0.907520 0.328476 0.627598 0.173796
H14   H     H_    0.094431 0.640313 0.345384 0.181305
N3    N     N_R   0.610446 0.626120 0.731823 0.120676
O9    O     O_R   0.691259 0.646915 0.762320 -0.352115
O10   O     O_R   0.584242 0.670892 0.671870 -0.326699
N4    N     N_R   0.348285 0.440379 0.260178 0.154671
O11   O     O_R   0.265262 0.471326 0.238557 -0.313247
O12   O     O_R   0.348811 0.370020 0.304261 -0.374340
O13   O     O_3   0.267607 0.605227 0.396764 -0.525564
C49   C     C_3   0.250055 0.697707 0.406218 -0.350913
H15   H     H_    0.318415 0.730500 0.420081 0.186227
H16   H     H_    0.192336 0.715690 0.451554 0.113831
H17   H     H_    0.229620 0.726849 0.350419 0.187774
O14   O     O_3   0.735291 0.392092 0.601609 -0.565966
C50   C     C_3   0.739341 0.425240 0.677589 -0.243264
H18   H     H_    0.742357 0.499123 0.679634 0.195332
H19   H     H_    0.801757 0.396516 0.707125 0.151249
H20   H     H_    0.672655 0.404408 0.711924 0.186496
N5    N     N_R   0.323700 0.414962 0.896237 0.132259
O15   O     O_R   0.340022 0.377128 0.962034 -0.342790
O16   O     O_R   0.243693 0.396526 0.863521 -0.334472
N6    N     N_R   0.698688 0.567576 0.106918 0.120837
O17   O     O_R   0.694016 0.622619 0.048929 -0.346262
O18   O     O_R   0.782349 0.554143 0.136732 -0.331491
O19   O     O_3   0.617959 0.231711 0.387716 -0.530707
C51   C     C_3   0.561714 0.262237 0.327179 -0.227028
H21   H     H_    0.517788 0.208504 0.303264 0.144019
H22   H     H_    0.611523 0.288153 0.279746 0.188544
H23   H     H_    0.512878 0.317536 0.346742 0.166235
O20   O     O_3   0.382208 0.766616 0.616571 -0.510416
C52   C     C_3   0.284804 0.754693 0.597024 -0.251527
H24   H     H_    0.255925 0.809130 0.560462 0.099790
H25   H     H_    0.237588 0.751065 0.650994 0.189519
H26   H     H_    0.276908 0.689929 0.568710 0.181369
O21   O     O_3   0.689066 0.082533 0.341996 -0.504452
C53   C     C_3   0.672608 0.079925 0.262446 -0.160666
H27   H     H_    0.594011 0.077955 0.250148 0.092480
H28   H     H_    0.712964 0.023025 0.234946 0.200346
H29   H     H_    0.702914 0.141074 0.234654 0.183620
O22   O     O_3   0.346379 0.917133 0.683463 -0.502060
C54   C     C_3   0.245216 0.928902 0.700538 -0.163771
H30   H     H_    0.202341 0.930293 0.648124 0.093312
H31   H     H_    0.230423 0.988704 0.736463 0.214742
H32   H     H_    0.218867 0.871943 0.736651 0.174002
O23   O     O_3   0.665981 0.899824 0.332541 -0.558866
C55   C     C_3   0.608351 0.869535 0.273364 -0.333883
H33   H     H_    0.563045 0.923555 0.249105 0.142988
H34   H     H_    0.560187 0.814373 0.293592 0.163664
H35   H     H_    0.657667 0.843547 0.225522 0.220410
O24   O     O_3   0.318572 0.101595 0.661746 -0.558178
C56   C     C_3   0.231208 0.130732 0.629674 -0.359068
H36   H     H_    0.191898 0.075514 0.603447 0.145941
H37   H     H_    0.244532 0.183867 0.585659 0.172364
H38   H     H_    0.182075 0.159074 0.676576 0.208199

loop_
_geom_bond_atom_site_label_1
_geom_bond_atom_site_label_2
_geom_bond_distance
_ccdc_geom_bond_type
C46   C48   1.402099 A    
C50   H18   1.113620 S    
C13   N5    1.441123 S    
Cu2   N2    2.011474 S    
C34   O24   1.385490 S    
O7    Cu2   1.978891 S    
O13   C49   1.417822 S    
C56   H36   1.112137 S    
C31   C33   1.407247 A    
O5    C3    1.290120 A    
C30   C33   1.410804 A    
O1    C1    1.288179 A    
C35   O13   1.388889 S    
C9    C11   1.400044 A    
C14   C16   1.398057 A    
N4    O12   1.300617 A    
C37   C39   1.408976 A    
C38   C40   1.411356 A    
N3    O10   1.300710 A    
C53   H27   1.114289 S    
C40   C42   1.407589 A    
O4    Cu1   1.959848 S    
C41   C43   1.408588 A    
C55   H33   1.112390 S    
C42   C44   1.406678 A    
C3    C5    1.456908 S    
C33   O23   1.386203 S    
C4    C6    1.466094 S    
C46   H12   1.083635 S    
C45   C47   1.401455 A    
O21   C53   1.412665 S    
C20   C30   1.391634 A    
C47   H13   1.080362 S    
C41   C42   1.424766 A    
C20   H8    1.083575 S    
O6    C4    1.297493 A    
C54   H32   1.108649 S    
C24   C26   1.421462 A    
C11   C17   1.458848 S    
C40   C46   1.400513 A    
C12   C18   1.469712 S    
Cu1   Cu2   2.677072 S    
C25   C27   1.426563 A    
O2    C2    1.290131 A    
C26   C28   1.427363 A    
O22   C54   1.412525 S    
C28   C30   1.414865 A    
O19   C51   1.411295 S    
C35   N1    1.379483 A    
C6    C16   1.404068 A    
C36   N2    1.379823 A    
C39   C41   1.408319 A    
O20   C52   1.414544 S    
C44   C47   1.411989 A    
C23   C25   1.416693 A    
N5    O15   1.301316 A    
C36   O14   1.385256 S    
N4    O11   1.301344 A    
C38   H10   1.082805 S    
C56   H38   1.109279 S    
C23   O19   1.385317 S    
C45   H11   1.083773 S    
C9    H6    1.084084 S    
C54   H31   1.108091 S    
C55   H35   1.109236 S    
N3    O9    1.301608 A    
C14   N6    1.439592 S    
N5    O16   1.301588 A    
O7    C3    1.293843 A    
C8    N4    1.436549 S    
C25   C31   1.418529 A    
C2    C21   1.452285 S    
C52   H25   1.107362 S    
C26   C32   1.421802 A    
N6    O18   1.301537 A    
C27   C29   1.413424 A    
O3    Cu2   1.959849 S    
O8    C4    1.291435 A    
C16   H1    1.083640 S    
C10   H5    1.082380 S    
O4    C2    1.290833 A    
C32   O22   1.393107 S    
C10   C12   1.403190 A    
C51   H21   1.113027 S    
C49   H16   1.114594 S    
N1    C37   1.363912 A    
C27   C28   1.406542 A    
C19   H7    1.083623 S    
C12   C14   1.411129 A    
O1    Cu1   1.965357 S    
C20   C22   1.385374 A    
C49   H17   1.109200 S    
C17   C18   1.338845 D    
C54   H30   1.112891 S    
C15   H2    1.084148 S    
C5    C7    1.412274 A    
C43   C48   1.413953 A    
O6    Cu2   1.976391 S    
C19   C21   1.385656 A    
C17   H4    1.085417 S    
O14   C50   1.417469 S    
C18   H3    1.087075 S    
O3    C1    1.294443 A    
O8    Cu1   1.978893 S    
C53   H28   1.108807 S    
C51   H23   1.104227 S    
C31   O21   1.389334 S    
C53   H29   1.109114 S    
C11   C13   1.410288 A    
C21   C23   1.404773 A    
O23   C55   1.415858 S    
C39   C45   1.401068 A    
C22   C24   1.407040 A    
C35   C43   1.430606 A    
C36   C44   1.425755 A    
C29   C34   1.410473 A    
C32   C34   1.413604 A    
C7    C9    1.393019 A    
N2    C38   1.365345 A    
C52   H26   1.104230 S    
C8    C10   1.388528 A    
C13   C15   1.395935 A    
N6    O17   1.301429 A    
O2    Cu2   1.965357 S    
C51   H22   1.109206 S    
C55   H34   1.109514 S    
C56   H37   1.109857 S    
C24   O20   1.387887 S    
O5    Cu1   1.976390 S    
C5    C15   1.401253 A    
C6    C8    1.414188 A    
C49   H15   1.106922 S    
C50   H20   1.109257 S    
C52   H24   1.115041 S    
C7    N3    1.438955 S    
C50   H19   1.106546 S    
C37   H9    1.082936 S    
O24   C56   1.416181 S    
C1    C22   1.452552 S    
C48   H14   1.078634 S    
Cu1   N1    2.011474 S    
C19   C29   1.393927 A    
