data_mof_unit_24442.cif
_audit_creation_date              2012-12-10T17:06:59-0500
_audit_creation_method            fapswitch 2.2
_symmetry_space_group_name_H-M    P1
_symmetry_Int_Tables_number       1
_space_group_crystal_system       triclinic
_cell_length_a                    18.364131
_cell_length_b                    18.220103
_cell_length_c                    18.286764
_cell_angle_alpha                 119.673839
_cell_angle_beta                  119.688769
_cell_angle_gamma                 60.015646
_cell_volume                      4347.80639858

loop_
_atom_site_label
_atom_site_type_symbol
_atom_type_description
_atom_site_fract_x
_atom_site_fract_y
_atom_site_fract_z
_atom_type_partial_charge
C1    C     C_R   0.139874 0.857074 0.637079 0.896719
C2    C     C_R   0.730973 0.475999 0.776862 -0.151111
C3    C     C_R   0.814457 0.423987 0.767476 -0.147901
C4    C     C_R   0.858380 0.140221 0.360277 0.783332
C5    C     C_R   0.845482 0.331905 0.750371 -0.126563
C6    C     C_R   0.690241 0.278720 0.387047 -0.173928
C7    C     C_R   0.610950 0.345640 0.399861 -0.137843
C8    C     C_R   0.556763 0.398907 0.345453 -0.142247
C9    C     C_R   0.581532 0.385668 0.277908 -0.174761
C10   C     C_R   0.662649 0.319472 0.264741 0.096627
C11   C     C_R   0.717824 0.265131 0.320132 0.093217
C12   C     C_R   0.638118 0.171862 0.731565 0.529346
C13   C     C_R   0.797285 0.196609 0.304576 -0.071672
C14   C     C_R   0.818920 0.179777 0.233237 -0.208422
C15   C     C_R   0.765174 0.232812 0.179293 -0.214474
C16   C     C_R   0.139991 0.140068 0.635699 0.785574
C17   C     C_R   0.688799 0.303631 0.195698 -0.070974
C18   C     C_R   0.896337 0.706333 0.408250 -0.198503
C19   C     C_R   0.912755 0.634240 0.428813 -0.174048
C20   C     C_R   0.863879 0.576846 0.370977 -0.151082
C21   C     C_R   0.796752 0.592497 0.293277 -0.172718
C22   C     C_R   0.775235 0.668191 0.273098 0.096271
C23   C     C_R   0.695476 0.212777 0.747179 -0.030437
C24   C     C_R   0.827621 0.724916 0.330234 0.088304
C25   C     C_R   0.811074 0.796264 0.305726 -0.080636
C26   C     C_R   0.744947 0.809080 0.226046 -0.215475
C27   C     C_R   0.691959 0.755716 0.172234 -0.211114
C28   C     C_R   0.861719 0.857948 0.360417 0.795804
C29   C     C_R   0.704778 0.687052 0.195891 -0.080000
C30   C     C_R   0.156607 0.661351 0.561046 0.475139
C31   C     C_R   0.157654 0.573485 0.535236 -0.275265
C32   C     C_R   0.206594 0.526025 0.594463 -0.204009
C33   C     C_R   0.255678 0.563897 0.680674 -0.181381
C34   C     C_R   0.773475 0.157538 0.723794 0.013068
C35   C     C_R   0.253105 0.652778 0.711191 0.037655
C36   C     C_R   0.200221 0.704044 0.652397 0.012013
C37   C     C_R   0.196668 0.795019 0.687440 -0.062154
C38   C     C_R   0.249893 0.829473 0.774006 -0.229771
C39   C     C_R   0.304230 0.777424 0.828827 -0.199792
C40   C     C_R   0.139918 0.862497 0.359952 0.762627
C41   C     C_R   0.304624 0.690657 0.798893 -0.031957
C42   C     C_R   0.277710 0.919009 0.385486 -0.268174
C43   C     C_R   0.346174 0.943243 0.400638 -0.240119
C44   C     C_R   0.403019 0.887832 0.350128 0.534741
C45   C     C_R   0.676153 0.306615 0.782929 -0.192114
C46   C     C_R   0.388747 0.809363 0.281446 -0.289300
C47   C     C_R   0.320890 0.782382 0.266138 0.033826
C48   C     C_R   0.265220 0.837678 0.319892 0.111774
C49   C     C_R   0.195762 0.812156 0.303464 -0.047656
C50   C     C_R   0.178179 0.737295 0.230937 -0.225219
C51   C     C_R   0.231832 0.683666 0.178017 -0.211061
C52   C     C_R   0.865627 0.139956 0.646378 0.802485
C53   C     C_R   0.304341 0.703806 0.196244 -0.040476
C54   C     C_R   0.325905 0.071755 0.638086 -0.153144
C55   C     C_R   0.417420 0.027602 0.660471 -0.168985
C56   C     C_R   0.716440 0.345255 0.768210 0.061843
C57   C     C_R   0.473369 0.066904 0.740554 -0.172299
C58   C     C_R   0.438814 0.154235 0.793243 -0.114262
C59   C     C_R   0.346294 0.204114 0.766760 0.081332
C60   C     C_R   0.288967 0.156687 0.695548 0.101570
C61   C     C_R   0.196940 0.195384 0.684922 -0.090067
C62   C     C_R   0.161073 0.286253 0.730202 -0.217811
C63   C     C_R   0.215473 0.337956 0.787660 -0.213511
C64   C     C_R   0.806959 0.065942 0.715802 -0.120877
C65   C     C_R   0.307957 0.298534 0.807289 -0.109707
C66   C     C_R   0.642302 0.637721 0.139876 0.788971
C67   C     C_R   0.792957 0.290199 0.742295 0.075143
C68   C     C_R   0.360785 0.358653 0.862101 0.782752
C69   C     C_R   0.638168 0.359895 0.139803 0.775676
C70   C     C_R   0.360281 0.640313 0.860403 0.777201
C71   C     C_R   0.360165 0.642095 0.140004 0.778323
C72   C     C_R   0.632211 0.360613 0.852111 0.865189
C73   C     C_R   0.756014 0.027941 0.713529 -0.231444
C74   C     C_R   0.670298 0.079496 0.716949 -0.255679
C75   C     C_3   0.108494 0.650376 0.411540 0.012335
C76   C     C_3   0.082200 0.705346 0.355467 -0.283761
C77   C     C_3   0.030844 0.665220 0.257887 -0.955813
C78   C     C_R   0.815501 0.195744 0.710473 -0.190714
C79   C     C_3   0.550607 0.867204 0.414501 0.055218
C80   C     C_3   0.622894 0.899504 0.434211 -0.312789
C81   C     C_3   0.712949 0.851751 0.491043 -0.933040
C82   C     C_3   0.492250 0.193410 0.641685 0.059275
C83   C     C_3   0.400042 0.265550 0.632140 -0.309076
C84   C     C_3   0.331156 0.233089 0.544187 -0.960599
C85   C     C_R   0.682085 0.437308 0.777039 -0.123159
H1    H     H_    0.854436 0.454594 0.771432 0.136778
H2    H     H_    0.873927 0.023426 0.715234 0.176930
H3    H     H_    0.121720 0.539564 0.468729 0.131972
H4    H     H_    0.207944 0.458374 0.572723 0.159844
H5    H     H_    0.295707 0.522333 0.722863 0.146546
H6    H     H_    0.344540 0.805784 0.895919 0.143513
H7    H     H_    0.123653 0.718930 0.216058 0.167012
H8    H     H_    0.233127 0.965939 0.423664 0.154516
H9    H     H_    0.354630 0.005848 0.451321 0.152021
H10   H     H_    0.430232 0.771725 0.239774 0.167535
H11   H     H_    0.217858 0.624674 0.123587 0.154622
H12   H     H_    0.728141 0.237021 0.428903 0.151231
H13   H     H_    0.090603 0.317650 0.721539 0.170465
H14   H     H_    0.284921 0.039140 0.574975 0.153416
H15   H     H_    0.444594 0.961627 0.617058 0.142096
H16   H     H_    0.543982 0.030160 0.761469 0.135474
H17   H     H_    0.485909 0.178220 0.856124 0.182527
H18   H     H_    0.629340 0.047917 0.709419 0.138316
H19   H     H_    0.615997 0.479765 0.780664 0.167358
H20   H     H_    0.911757 0.294435 0.745791 0.153001
H21   H     H_    0.590810 0.355286 0.451397 0.139415
H22   H     H_    0.764106 0.543026 0.248758 0.157467
H23   H     H_    0.494550 0.449868 0.354742 0.137759
H24   H     H_    0.639002 0.769631 0.112648 0.164036
H25   H     H_    0.248580 0.897878 0.799723 0.144974
H26   H     H_    0.056657 0.620252 0.383488 0.165785
H27   H     H_    0.173439 0.595991 0.407519 0.138659
H28   H     H_    0.040321 0.775001 0.382619 0.239436
H29   H     H_    0.143285 0.708128 0.359826 0.191233
H30   H     H_    0.074957 0.599199 0.226667 0.255688
H31   H     H_    0.005399 0.711151 0.220990 0.273006
H32   H     H_    0.972462 0.656460 0.252368 0.267589
H33   H     H_    0.782363 0.957694 0.706780 0.161673
H34   H     H_    0.535421 0.426522 0.235355 0.147171
H35   H     H_    0.569212 0.793755 0.377115 0.156988
H36   H     H_    0.547196 0.879704 0.479150 0.131295
H37   H     H_    0.628216 0.886237 0.370476 0.233796
H38   H     H_    0.604683 0.972998 0.470323 0.222986
H39   H     H_    0.709383 0.865073 0.555560 0.251789
H40   H     H_    0.764121 0.876559 0.504514 0.284871
H41   H     H_    0.733018 0.778262 0.455648 0.280129
H42   H     H_    0.184916 0.408988 0.818616 0.175154
H43   H     H_    0.487008 0.130137 0.630391 0.162984
H44   H     H_    0.515394 0.182131 0.589672 0.126388
H45   H     H_    0.784502 0.219943 0.125703 0.157364
H46   H     H_    0.378783 0.283755 0.687805 0.232371
H47   H     H_    0.403091 0.326676 0.635627 0.203361
H48   H     H_    0.350557 0.214781 0.487079 0.269375
H49   H     H_    0.265313 0.287303 0.538985 0.257243
H50   H     H_    0.325023 0.173891 0.541073 0.265476
H51   H     H_    0.704572 0.546758 0.785468 0.140770
H52   H     H_    0.879008 0.126420 0.220489 0.158173
H53   H     H_    0.732301 0.862775 0.206534 0.166575
H54   H     H_    0.940162 0.744787 0.453869 0.211620
H55   H     H_    0.965183 0.621642 0.489013 0.156186
H56   H     H_    0.878772 0.519212 0.385788 0.144350
O1    O     O_3   1.000000 0.000000 0.500000 -0.480020
O2    O     O_R   0.323460 0.615830 0.884170 -0.637261
O3    O     O_R   0.444880 0.615840 0.176480 -0.653177
O4    O     O_R   0.055060 0.884200 0.615800 -0.636617
O5    O     O_R   0.615800 0.444940 0.884180 -0.668549
O6    O     O_R   0.323440 0.615840 0.055040 -0.635721
O7    O     O_R   0.615780 0.323500 0.884180 -0.592494
O8    O     O_R   0.615760 0.323500 0.055050 -0.643764
O9    O     O_R   0.444910 0.615830 0.884180 -0.647516
O10   O     O_R   0.615780 0.615830 0.176490 -0.654037
O11   O     O_R   0.323430 0.444950 0.884170 -0.642826
O12   O     O_R   0.055100 0.176520 0.615800 -0.649614
O13   O     O_R   0.884210 0.176520 0.444920 -0.645189
O14   O     O_R   0.176540 0.055080 0.615800 -0.651389
O15   O     O_R   0.884190 0.884200 0.323480 -0.639111
O16   O     O_R   0.176540 0.884190 0.444930 -0.645449
O17   O     O_R   0.884180 0.055090 0.615790 -0.652265
O18   O     O_R   0.055100 0.884190 0.323490 -0.640019
O19   O     O_R   0.884190 0.176530 0.615790 -0.648467
O20   O     O_3   0.114072 0.707441 0.500507 -0.674176
O21   O     O_3   0.468325 0.914468 0.363519 -0.649632
O22   O     O_3   0.550476 0.222368 0.728640 -0.637235
O23   O     O_R   0.884180 0.884200 0.444920 -0.655185
O24   O     O_R   0.176510 0.884190 0.615800 -0.633362
O25   O     O_R   0.884210 0.055080 0.323480 -0.635045
O26   O     O_3   0.499970 0.500030 0.999970 -0.479784
O27   O     O_R   0.615800 0.615830 0.055050 -0.637360
O28   O     O_R   0.444880 0.323510 0.884180 -0.645402
O29   O     O_R   0.615760 0.444950 0.176490 -0.649397
Zn1   Zn    Zn3+2 0.956630 0.130130 0.543370 0.950698
Zn2   Zn    Zn3+2 0.130140 0.956620 0.543380 0.965367
Zn3   Zn    Zn3+2 0.956630 0.956620 0.369870 0.960546
Zn4   Zn    Zn3+2 0.956610 0.956630 0.543370 0.961013
Zn5   Zn    Zn3+2 0.543340 0.369890 0.956600 0.982803
Zn6   Zn    Zn3+2 0.543340 0.543410 0.130100 0.946126
Zn7   Zn    Zn3+2 0.369830 0.543410 0.956590 0.963282
Zn8   Zn    Zn3+2 0.543370 0.543400 0.956600 0.957669

loop_
_geom_bond_atom_site_label_1
_geom_bond_atom_site_label_2
_ccdc_geom_bond_type
C52   O19   A    
C71   O6    A    
C63   C65   A    
C84   H50   S    
C17   C69   S    
C42   C43   A    
C23   C45   A    
C22   C29   A    
C12   C74   A    
C81   H41   S    
C27   C29   A    
C42   H8    S    
C73   C74   A    
C40   O18   A    
C1    O4    A    
C35   C36   A    
C70   O9    A    
C5    C67   A    
C56   C85   A    
C7    C8    A    
C39   C41   A    
C5    H20   S    
C25   C28   S    
C79   H36   S    
C12   C23   A    
C84   H49   S    
C75   H27   S    
C62   C63   A    
C18   C24   A    
O26   Zn5   S    
C36   C37   A    
C4    O13   A    
C77   H32   S    
O16   Zn2   S    
C30   C31   A    
O27   Zn8   S    
O26   Zn6   S    
C82   O22   S    
C10   C17   A    
C40   C49   S    
O11   Zn7   S    
C43   H9    S    
O5    Zn8   S    
C2    C85   A    
C18   C19   A    
C46   C47   A    
C4    C13   S    
C62   H13   S    
O14   Zn2   S    
O17   Zn4   S    
C46   H10   S    
C83   C84   S    
C45   C56   A    
C19   H55   S    
C30   C36   A    
C55   H15   S    
C76   H29   S    
C64   C73   A    
O23   Zn4   S    
O4    Zn4   S    
C58   H17   S    
C38   H25   S    
C77   H31   S    
C9    C10   A    
C64   H2    S    
C1    C37   S    
C51   H11   S    
C47   C53   A    
C23   C34   A    
O24   Zn2   S    
C59   C60   A    
C13   C14   A    
C3    H1    S    
O12   Zn1   S    
C61   C62   A    
C67   C78   A    
C44   O21   S    
C52   C78   S    
C8    H23   S    
C39   H6    S    
C44   C46   A    
C76   H28   S    
O1    Zn3   S    
C52   O17   A    
O15   Zn3   S    
C84   H48   S    
O7    Zn5   S    
C81   H39   S    
C6    H12   S    
C40   O16   A    
C76   C77   S    
O1    Zn4   S    
O26   Zn8   S    
C6    C11   A    
C8    C9    A    
C54   C60   A    
C3    C5    A    
C25   C26   A    
C72   O7    A    
C2    H51   S    
O10   Zn6   S    
C60   C61   A    
O8    Zn5   S    
C80   H37   S    
C75   C76   S    
C83   H46   S    
C37   C38   A    
C68   O11   A    
C74   H18   S    
C68   O28   A    
O6    Zn7   S    
C47   C48   A    
C14   H52   S    
C1    O24   A    
C65   C68   S    
C79   H35   S    
O3    Zn6   S    
C16   O14   A    
C34   C64   A    
C50   C51   A    
C70   O2    A    
C7    H21   S    
C42   C48   A    
C24   C25   A    
C82   H44   S    
C82   H43   S    
C21   H22   S    
C85   H19   S    
C50   H7    S    
C48   C49   A    
O26   Zn7   S    
C82   C83   S    
C55   C57   A    
C32   H4    S    
C26   C27   A    
C9    H34   S    
C22   C24   A    
C54   H14   S    
C16   C61   S    
C79   O21   S    
C53   C71   S    
C28   O23   A    
O1    Zn2   S    
C15   C17   A    
C54   C55   A    
O25   Zn3   S    
C31   H3    S    
O1    Zn1   S    
C81   H40   S    
C59   C65   A    
C73   H33   S    
C20   H56   S    
C31   C32   A    
C80   C81   S    
C26   H53   S    
C29   C66   S    
C6    C7    A    
C66   O27   A    
O28   Zn5   S    
C56   C67   A    
C57   H16   S    
C75   H26   S    
O9    Zn8   S    
C75   O20   S    
C69   O8    A    
C32   C33   A    
C19   C20   A    
C2    C3    A    
C58   C59   A    
C66   O10   A    
C77   H30   S    
C33   H5    S    
C34   C78   A    
C12   O22   S    
C11   C13   A    
C57   C58   A    
C38   C39   A    
C15   H45   S    
C43   C44   A    
C72   O5    A    
C33   C35   A    
O19   Zn1   S    
C4    O25   A    
O13   Zn1   S    
C69   O29   A    
O2    Zn7   S    
C18   H54   S    
C35   C41   A    
C10   C11   A    
C79   C80   S    
C83   H47   S    
O29   Zn6   S    
C20   C21   A    
C27   H24   S    
C49   C50   A    
O18   Zn3   S    
C16   O12   A    
C28   O15   A    
C14   C15   A    
C71   O3    A    
C30   O20   S    
C51   C53   A    
C21   C22   A    
C63   H42   S    
C41   C70   S    
C45   C72   S    
C80   H38   S    
