data_mof_unit_32961.cif
_audit_creation_date              2012-12-10T18:31:51-0500
_audit_creation_method            fapswitch 2.2
_symmetry_space_group_name_H-M    P1
_symmetry_Int_Tables_number       1
_space_group_crystal_system       triclinic
_cell_length_a                    10.694175
_cell_length_b                    14.96726
_cell_length_c                    15.281864
_cell_angle_alpha                 82.213382
_cell_angle_beta                  89.987427
_cell_angle_gamma                 104.921847
_cell_volume                      2340.19915974

loop_
_atom_site_label
_atom_site_type_symbol
_atom_type_description
_atom_site_fract_x
_atom_site_fract_y
_atom_site_fract_z
_atom_type_partial_charge
C1    C     C_R   0.484214 0.441860 0.662950 0.884965
C2    C     C_3   0.119527 0.493682 0.510559 -0.015655
C3    C     C_3   0.083332 0.529805 0.416205 -0.485714
C4    C     C_3   0.098038 0.564304 0.573879 -0.244889
C5    C     C_R   0.498619 0.408367 0.756059 -0.070611
C6    C     C_R   0.558892 0.594901 0.244431 -0.088114
C7    C     C_R   0.522798 0.287795 0.873217 0.020007
C8    C     C_R   0.491945 0.314614 0.786208 -0.199803
C9    C     C_R   0.535498 0.474806 0.813049 -0.221685
C10   C     C_R   0.574807 0.451464 0.898131 0.094855
C11   C     C_R   0.563249 0.356213 0.930330 0.094012
C12   C     C_R   0.741091 0.499221 0.505162 0.861616
C13   C     C_R   0.617383 0.520974 0.953409 0.055375
C14   C     C_R   0.618630 0.493627 0.044808 0.019697
C15   C     C_R   0.620167 0.399633 0.075704 -0.025934
C16   C     C_R   0.593400 0.332486 0.018280 -0.251636
C17   C     C_R   0.658404 0.616849 0.920081 -0.240118
C18   C     C_R   0.680720 0.685221 0.976024 -0.033079
C19   C     C_R   0.651265 0.658667 0.068037 0.064542
C20   C     C_R   0.614649 0.561123 0.100790 0.071293
C21   C     C_R   0.651378 0.723388 0.128868 -0.002359
C22   C     C_R   0.606936 0.690446 0.216288 -0.204434
C23   C     C_R   0.521783 0.558429 0.337161 0.884461
C24   C     C_R   0.559598 0.531906 0.185939 -0.231906
C25   C     C_R   0.718680 0.845712 0.624442 -0.102184
C26   C     C_R   0.674048 0.754799 0.606063 -0.014521
C27   C     C_R   0.512210 0.793993 0.515034 -0.055740
C28   C     C_R   0.551849 0.888359 0.529092 -0.018606
C29   C     C_R   0.656305 0.914906 0.587040 0.065344
C30   C     C_R   0.490806 0.956063 0.486727 0.091334
C31   C     C_R   0.527696 0.048972 0.507227 0.067801
C32   C     C_R   0.629605 0.073168 0.564921 -0.261795
C33   C     C_R   0.693481 0.008884 0.604047 -0.007099
C34   C     C_R   0.257472 0.497100 0.504686 0.861854
C35   C     C_R   0.395602 0.934279 0.422890 -0.219093
C36   C     C_R   0.336571 0.000373 0.382345 -0.187045
C37   C     C_R   0.368475 0.090359 0.404187 0.167806
C38   C     C_R   0.462999 0.115688 0.467713 0.009581
C39   C     C_R   0.306784 0.155638 0.362585 -0.291737
C40   C     C_R   0.338171 0.245305 0.384821 0.041764
C41   C     C_R   0.487623 0.207350 0.488948 -0.049115
C42   C     C_3   0.888063 0.398503 0.552058 -0.271810
C43   C     C_3   0.031100 0.391404 0.542016 -0.029993
C44   C     C_3   0.936403 0.516530 0.413333 -0.195253
C45   C     C_3   0.957018 0.575899 0.567068 -0.031889
C46   C     C_3   0.877954 0.499409 0.510536 -0.039821
H1    H     H_    0.825528 0.346445 0.514197 0.155720
H2    H     H_    0.136176 0.604829 0.398434 0.186288
H3    H     H_    0.677560 0.639753 0.849953 0.155640
H4    H     H_    0.264937 0.980661 0.333434 0.154595
H5    H     H_    0.235299 0.137533 0.313270 0.155797
N1    N     N_R   0.573860 0.731700 0.552730 -0.108057
N2    N     N_R   0.426060 0.268290 0.447230 -0.103129
O1    O     O_R   0.462770 0.383110 0.605620 -0.617016
O2    O     O_R   0.510160 0.531900 0.639510 -0.620466
O3    O     O_R   0.661510 0.425600 0.483070 -0.630129
O4    O     O_R   0.708900 0.574390 0.516960 -0.615122
O5    O     O_R   0.489840 0.468100 0.360490 -0.616111
O6    O     O_R   0.537230 0.616890 0.394380 -0.608945
O7    O     O_R   0.291100 0.425610 0.483040 -0.615545
O8    O     O_R   0.338490 0.574400 0.516930 -0.632811
Zn1   Zn    Zn3+2 0.468350 0.400660 0.477370 0.957309
Zn2   Zn    Zn3+2 0.531650 0.599340 0.522630 0.954315
H6    H     H_    0.165815 0.633885 0.551217 0.159190
C47   C     C_1   0.905723 0.594660 0.354743 0.201114
N3    N     N_1   0.881761 0.655599 0.308697 -0.182697
H7    H     H_    0.593877 0.261263 0.043345 0.166838
H8    H     H_    0.512433 0.459072 0.206703 0.167691
H9    H     H_    0.609289 0.739798 0.262515 0.166527
C48   C     C_1   0.724057 0.780932 0.933928 0.186816
N4    N     N_1   0.758579 0.857313 0.899477 -0.158474
C49   C     C_1   0.513286 0.190063 0.901452 0.162719
N5    N     N_1   0.505703 0.111789 0.923970 -0.174006
H10   H     H_    0.464888 0.262696 0.741775 0.164487
H11   H     H_    0.531506 0.545480 0.790401 0.164734
C50   C     C_1   0.830891 0.369163 0.643174 0.173485
N6    N     N_1   0.786433 0.345479 0.714216 -0.176806
C51   C     C_1   0.664120 0.371876 0.162285 0.168185
N7    N     N_1   0.699323 0.349629 0.231484 -0.195896
C52   C     C_1   0.695452 0.823638 0.106443 0.171824
N8    N     N_1   0.730531 0.904080 0.089531 -0.166525
C53   C     C_1   0.795364 0.044398 0.662391 0.193092
N9    N     N_1   0.876467 0.074031 0.708842 -0.154706
H12   H     H_    0.553376 0.232768 0.538598 0.126195
H13   H     H_    0.292338 0.296909 0.352723 0.143140
C54   C     C_1   0.831441 0.863256 0.677974 0.176722
N10   N     N_1   0.922168 0.876108 0.720566 -0.159576
H14   H     H_    0.720997 0.701559 0.632831 0.145671
H15   H     H_    0.433270 0.766988 0.474473 0.127260
C55   C     C_1   0.078147 0.347000 0.623869 0.189130
N11   N     N_1   0.114971 0.312042 0.687415 -0.172181
H16   H     H_    0.664748 0.143512 0.579668 0.138862
H17   H     H_    0.365788 0.867223 0.400401 0.138596
C56   C     C_1   0.034911 0.328265 0.475480 0.175404
N12   N     N_1   0.037131 0.278918 0.423695 -0.211622
H18   H     H_    0.894489 0.453274 0.381470 0.169109
H19   H     H_    0.114274 0.492039 0.365626 0.180388
C57   C     C_1   0.963817 0.672389 0.524326 0.174743
N13   N     N_1   0.969454 0.747803 0.491525 -0.191172
C58   C     C_1   0.893222 0.569211 0.655062 0.172339
N14   N     N_1   0.843750 0.564546 0.723533 -0.201881
C59   C     C_1   0.137808 0.540641 0.665431 0.201018
N15   N     N_1   0.169307 0.522778 0.736735 -0.176740

loop_
_geom_bond_atom_site_label_1
_geom_bond_atom_site_label_2
_ccdc_geom_bond_type
C18   C48   S    
C23   O5    A    
C39   H5    S    
O5    Zn1   S    
C19   C20   A    
C7    C8    A    
C45   C46   S    
C23   O6    A    
C30   C35   A    
C1    C5    S    
C36   C37   A    
C19   C21   A    
C45   C57   S    
C30   C31   A    
C15   C51   S    
C15   C16   A    
C6    C22   A    
C29   C33   A    
C3    H2    S    
C43   C56   S    
O7    Zn1   S    
C18   C19   A    
C42   C46   S    
O8    Zn2   S    
C58   N14   T    
C20   C24   A    
O2    Zn2   S    
O4    Zn2   S    
C48   N4    T    
C33   C53   S    
C22   H9    S    
C2    C34   S    
C21   C22   A    
C34   O7    A    
C44   C47   S    
C59   N15   T    
C45   C58   S    
C44   C46   S    
C7    C11   A    
C4    C45   S    
C35   H17   S    
C25   C29   A    
C3    C44   S    
C43   C55   S    
C14   C20   A    
C50   N6    T    
C38   C41   A    
C12   C46   S    
C17   H3    S    
C7    C49   S    
C51   N7    T    
C52   N8    T    
O1    Zn1   S    
C25   C26   A    
C41   H12   S    
C10   C13   A    
C34   O8    A    
C4    C59   S    
C35   C36   A    
C40   H13   S    
C2    C4    S    
C1    O1    A    
C5    C9    A    
C37   C38   A    
C44   H18   S    
C26   N1    A    
N2    Zn1   S    
C3    H19   S    
C31   C32   A    
C2    C43   S    
C6    C24   A    
C8    H10   S    
C17   C18   A    
C16   H7    S    
C41   N2    A    
C12   O3    A    
C12   O4    A    
C53   N9    T    
O3    Zn1   S    
C42   C43   S    
C39   C40   A    
C36   H4    S    
C27   N1    A    
C9    C10   A    
C28   C29   A    
C54   N10   T    
O6    Zn2   S    
C49   N5    T    
N1    Zn2   S    
C5    C8    A    
C40   N2    A    
C4    H6    S    
C42   C50   S    
C31   C38   A    
C13   C17   A    
C32   C33   A    
C28   C30   A    
C2    C3    S    
C1    O2    A    
C37   C39   A    
C55   N11   T    
C32   H16   S    
C6    C23   S    
C21   C52   S    
C25   C54   S    
C27   H15   S    
C42   H1    S    
C47   N3    T    
C56   N12   T    
C11   C16   A    
C10   C11   A    
C24   H8    S    
C26   H14   S    
C57   N13   T    
C27   C28   A    
C14   C15   A    
C9    H11   S    
C13   C14   A    
