data_mof_unit_58026.cif
_audit_creation_date              2012-12-10T17:47:48-0500
_audit_creation_method            fapswitch 2.2
_symmetry_space_group_name_H-M    P1
_symmetry_Int_Tables_number       1
_space_group_crystal_system       triclinic
_cell_length_a                    10.760496
_cell_length_b                    10.733422
_cell_length_c                    9.900234
_cell_angle_alpha                 90.21833
_cell_angle_beta                  87.436958
_cell_angle_gamma                 92.957908
_cell_volume                      1140.77972961

loop_
_atom_site_label
_atom_site_type_symbol
_atom_type_description
_atom_site_fract_x
_atom_site_fract_y
_atom_site_fract_z
_atom_type_partial_charge
C1    C     C_R   0.510139 0.260582 0.500013 0.877240
C2    C     C_R   0.526597 0.062102 0.625629 0.105289
C3    C     C_R   0.518204 0.127094 0.502113 -0.114486
C4    C     C_R   0.257196 0.497569 0.502942 0.812479
C5    C     C_R   0.495451 0.062592 0.382134 -0.243999
C6    C     C_R   0.478523 0.935302 0.383850 -0.233595
C7    C     C_R   0.475015 0.871758 0.506851 -0.137113
C8    C     C_R   0.362541 0.312732 0.147391 -0.186329
C9    C     C_R   0.309668 0.210022 0.081798 -0.247321
C10   C     C_R   0.317595 0.204502 0.942308 -0.179327
C11   C     C_R   0.373445 0.304180 0.868499 -0.170039
C12   C     C_3   0.878411 0.493952 0.496669 0.117277
C13   C     C_R   0.438700 0.403195 0.931385 0.152138
C14   C     C_R   0.436054 0.405101 0.075790 0.168070
C15   C     C_R   0.561229 0.591464 0.068785 -0.134358
C16   C     C_R   0.488369 0.738999 0.501703 0.890292
C17   C     C_R   0.560517 0.591861 0.925583 -0.131856
C18   C     C_R   0.742215 0.499077 0.497610 0.888455
C19   C     C_3   0.058853 0.439554 0.652574 -0.018218
C20   C     C_3   0.913780 0.444670 0.637762 0.245934
C21   C     C_3   0.080161 0.623485 0.472971 -0.425375
C22   C     C_3   0.069748 0.406076 0.388776 -0.424298
C23   C     C_3   0.937622 0.625707 0.467550 -0.524612
C24   C     C_3   0.119594 0.490105 0.508622 0.081107
C25   C     C_R   0.093531 0.527031 0.777323 0.082009
C26   C     C_R   0.055979 0.652106 0.789048 -0.184898
C27   C     C_R   0.080865 0.726831 0.901690 -0.149562
C28   C     C_R   0.142638 0.679917 0.008593 -0.118241
C29   C     C_R   0.174583 0.556628 0.005228 -0.134565
C30   C     C_R   0.148748 0.481452 0.893199 -0.132603
C31   C     C_R   0.090556 0.299188 0.681555 0.178629
C32   C     C_R   0.176382 0.230314 0.601834 -0.197607
C33   C     C_R   0.182945 0.101530 0.615931 -0.150132
C34   C     C_3   0.927122 0.404175 0.386890 -0.362142
C35   C     C_R   0.108974 0.037478 0.713798 -0.135499
C36   C     C_R   0.033421 0.103199 0.803520 -0.148391
C37   C     C_R   0.026917 0.232274 0.790046 -0.081700
C38   C     C_R   0.576152 0.115938 0.743857 -0.129231
C39   C     C_R   0.560379 0.055044 0.868077 -0.142044
C40   C     C_R   0.491416 0.942170 0.877112 -0.172209
C41   C     C_R   0.451104 0.884048 0.759676 -0.169385
C42   C     C_R   0.482287 0.937656 0.630939 0.086113
H1    H     H_    0.899194 0.433021 0.285132 0.172360
H2    H     H_    0.611372 0.666055 0.120386 0.144971
H3    H     H_    0.338891 0.319948 0.252697 0.203871
H4    H     H_    0.257126 0.137684 0.138979 0.151432
H5    H     H_    0.272252 0.127144 0.891318 0.185522
H6    H     H_    0.349092 0.309641 0.766240 0.210257
H7    H     H_    0.610070 0.666721 0.869588 0.153741
H8    H     H_    0.876715 0.510596 0.715287 0.088785
H9    H     H_    0.119961 0.696550 0.539930 0.163469
H10   H     H_    0.898670 0.695750 0.537972 0.163115
H11   H     H_    0.107576 0.444208 0.290259 0.186874
H12   H     H_    0.120840 0.650807 0.371145 0.186096
H13   H     H_    0.098241 0.308993 0.387835 0.168111
H14   H     H_    0.886981 0.307665 0.404511 0.211214
H15   H     H_    0.999013 0.692510 0.717423 0.125485
H16   H     H_    0.047966 0.820209 0.908477 0.118932
H17   H     H_    0.160963 0.737322 0.096349 0.118102
H18   H     H_    0.216215 0.518120 0.091844 0.136637
H19   H     H_    0.166678 0.385879 0.903530 0.135810
H20   H     H_    0.239508 0.271713 0.526087 0.112573
H21   H     H_    0.245465 0.051036 0.549823 0.147937
H22   H     H_    0.113870 0.937636 0.722141 0.127328
H23   H     H_    0.913423 0.655717 0.364804 0.198567
H24   H     H_    0.979634 0.054310 0.883704 0.120629
H25   H     H_    0.967732 0.279999 0.862436 0.113120
H26   H     H_    0.799492 0.331441 0.743948 0.322474
H27   H     H_    0.491058 0.110109 0.286289 0.181872
H28   H     H_    0.627934 0.204330 0.741986 0.173467
H29   H     H_    0.596222 0.098547 0.958219 0.140399
H30   H     H_    0.471033 0.898579 0.974596 0.135899
H31   H     H_    0.394482 0.798281 0.771442 0.177306
H32   H     H_    0.469228 0.886746 0.288356 0.167807
N1    N     N_R   0.498810 0.498800 0.142780 -0.122573
N2    N     N_R   0.498760 0.498720 0.857170 -0.121789
O1    O     O_R   0.500000 0.316780 0.614690 -0.650788
O2    O     O_R   0.499990 0.316750 0.385360 -0.641300
O3    O     O_R   0.314800 0.499990 0.614670 -0.624003
O4    O     O_R   0.314790 0.499970 0.385330 -0.650397
O5    O     O_R   0.500010 0.683250 0.614640 -0.628958
O6    O     O_R   0.500000 0.683220 0.385310 -0.621617
O7    O     O_R   0.685210 0.500030 0.614670 -0.625950
O8    O     O_R   0.685200 0.500010 0.385330 -0.624476
O9    O     O_3   0.849437 0.327547 0.657403 -0.787856
Zn1   Zn    Zn3+2 0.500010 0.500020 0.653130 0.928865
Zn2   Zn    Zn3+2 0.499990 0.499980 0.346870 0.920780

loop_
_geom_bond_atom_site_label_1
_geom_bond_atom_site_label_2
_ccdc_geom_bond_type
O2    Zn2   S    
C15   N1    A    
C38   H28   S    
C34   H14   S    
H26   O9    S    
C1    O1    A    
C41   C42   A    
C35   C36   A    
O8    Zn2   S    
C19   C31   S    
C12   C23   S    
C26   C27   A    
C28   C29   A    
C15   H2    S    
C4    O4    A    
O4    Zn2   S    
C38   C39   A    
C4    C24   S    
C36   H24   S    
O6    Zn2   S    
C7    C42   A    
C8    H3    S    
C20   H8    S    
C19   C20   S    
C8    C9    A    
C17   N2    A    
C18   O8    A    
C29   H18   S    
C35   H22   S    
C9    C10   A    
O5    Zn1   S    
C9    H4    S    
C13   C14   A    
C1    O2    A    
C11   H6    S    
C6    H32   S    
C22   H11   S    
C22   C34   S    
C4    O3    A    
C17   H7    S    
C39   C40   A    
C25   C26   A    
C5    H27   S    
C31   C37   A    
C1    C3    S    
C29   C30   A    
C2    C38   A    
C31   C32   A    
C13   N2    A    
C33   H21   S    
C20   O9    S    
C12   C20   S    
C16   O6    A    
C18   O7    A    
C6    C7    A    
N1    Zn2   S    
C7    C16   S    
O1    Zn1   S    
C21   C23   S    
C22   C24   S    
C30   H19   S    
C12   C34   S    
N2    Zn1   S    
C21   H9    S    
C28   H17   S    
C25   C30   A    
C15   C17   A    
C36   C37   A    
C8    C14   A    
C40   H30   S    
C34   H1    S    
C3    C5    A    
C27   H16   S    
C22   H13   S    
C21   H12   S    
C14   N1    A    
C23   H23   S    
C19   C24   S    
C32   H20   S    
C32   C33   A    
C11   C13   A    
C23   H10   S    
C5    C6    A    
C2    C42   A    
C37   H25   S    
C16   O5    A    
C33   C35   A    
C2    C3    A    
C19   C25   S    
C26   H15   S    
C10   C11   A    
C41   H31   S    
O7    Zn1   S    
C21   C24   S    
C12   C18   S    
C10   H5    S    
C39   H29   S    
C40   C41   A    
O3    Zn1   S    
C27   C28   A    
