data_mof_unit_33502.cif
_audit_creation_date              2013-03-05T15:52:26-0500
_audit_creation_method            fapswitch 2.2
_symmetry_space_group_name_H-M    P1
_symmetry_Int_Tables_number       1
_space_group_crystal_system       triclinic
_cell_length_a                    27.818326
_cell_length_b                    10.856643
_cell_length_c                    9.561928
_cell_angle_alpha                 90.793696
_cell_angle_beta                  90.288015
_cell_angle_gamma                 92.677338
_cell_volume                      2884.35703835

loop_
_atom_site_label
_atom_site_type_symbol
_atom_site_description
_atom_site_fract_x
_atom_site_fract_y
_atom_site_fract_z
_atom_type_partial_charge
O1    O     O_R   0.500000 0.319640 0.618810 -0.586011
O2    O     O_R   0.500000 0.319660 0.381240 -0.579869
C1    C     C_R   0.504006 0.263233 0.499815 0.806470
O3    O     O_R   0.430260 0.500010 0.618770 -0.588636
O4    O     O_R   0.430270 0.500030 0.381200 -0.532597
C2    C     C_R   0.407463 0.501419 0.499543 0.831167
Cu1   Cu    Cu3+1 0.500000 0.499990 0.640660 0.918504
Cu2   Cu    Cu3+1 0.500000 0.500010 0.359340 0.942238
O5    O     O_R   0.500000 0.680340 0.618760 -0.613065
O6    O     O_R   0.500000 0.680360 0.381190 -0.604063
O7    O     O_R   0.569730 0.499970 0.618800 -0.608897
O8    O     O_R   0.569740 0.499990 0.381230 -0.594258
C3    C     C_R   0.497777 0.737842 0.502029 0.776006
C4    C     C_R   0.592466 0.500103 0.500451 0.782294
C5    C     C_R   0.176340 0.407343 0.451168 0.546870
O9    O     O_2   0.199624 0.309925 0.400930 -0.532452
N1    N     N_R   0.202035 0.507938 0.504147 -0.457627
C6    C     C_R   0.179627 0.607847 0.556673 0.539046
C7    C     C_R   0.278274 0.528981 0.377832 -0.193113
C8    C     C_R   0.328602 0.530014 0.375048 0.404173
C9    C     C_R   0.329043 0.486749 0.624265 -0.285246
C10   C     C_R   0.279006 0.488904 0.626231 -0.104275
C11   C     C_R   0.253539 0.509055 0.502948 0.304024
C12   C     C_R   0.101873 0.506860 0.502161 -0.047374
C13   C     C_R   0.125850 0.404888 0.449232 -0.026840
C14   C     C_R   0.099077 0.302439 0.396761 -0.149376
C15   C     C_R   0.129166 0.609182 0.556663 -0.022881
C16   C     C_R   0.354443 0.505596 0.498873 -0.139747
H1    H     H_    0.347801 0.469229 0.720993 0.179310
H2    H     H_    0.259916 0.473421 0.723295 0.152942
H3    H     H_    0.116627 0.221850 0.357987 0.187422
C17   C     C_R   0.645320 0.499430 0.502174 -0.079056
C18   C     C_R   0.972841 0.405502 0.435617 -0.019969
C19   C     C_R   0.975920 0.605191 0.562397 0.062183
C20   C     C_R   0.949044 0.504176 0.499439 0.065408
C21   C     C_R   0.944708 0.312091 0.365454 -0.302453
C22   C     C_R   0.894494 0.308346 0.368048 0.462905
C23   C     C_R   0.870493 0.404078 0.434905 -0.117237
C24   C     C_R   0.897843 0.502292 0.499713 -0.105105
C25   C     C_R   0.873902 0.599093 0.564873 0.017495
C26   C     C_R   0.823500 0.596416 0.565065 0.511283
N2    N     N_R   0.797673 0.499893 0.504142 -0.473300
C27   C     C_R   0.819768 0.405160 0.439074 0.549293
C28   C     C_R   0.720258 0.464921 0.627978 0.187681
C29   C     C_R   0.669685 0.467093 0.624406 -0.207022
C30   C     C_R   0.671632 0.530643 0.382257 -0.227346
C31   C     C_R   0.721606 0.531089 0.384788 -0.130040
C32   C     C_R   0.746066 0.498935 0.506293 0.306671
O10   O     O_2   0.792499 0.312413 0.379715 -0.507337
C33   C     C_R   0.023866 0.403735 0.442045 0.069233
C34   C     C_R   0.050735 0.506422 0.500712 0.069985
C35   C     C_R   0.027086 0.608525 0.558151 0.038511
C36   C     C_R   0.049159 0.301326 0.393847 -0.208213
H4    H     H_    0.648756 0.442318 0.715528 0.169634
H5    H     H_    0.960544 0.241073 0.303707 0.152564
H6    H     H_    0.031477 0.216951 0.355951 0.137678
O11   O     O_2   0.206116 0.705769 0.607864 -0.539868
C37   C     C_R   0.105661 0.710783 0.608722 -0.144326
H7    H     H_    0.258360 0.544455 0.282529 0.150157
H8    H     H_    0.125827 0.791360 0.649431 0.187641
C38   C     C_R   0.950460 0.699382 0.628505 -0.213871
C39   C     C_R   0.900574 0.696282 0.629254 -0.172432
O12   O     O_2   0.800328 0.689448 0.625891 -0.567715
C40   C     C_R   0.055726 0.710862 0.609285 -0.210151
H9    H     H_    0.967874 0.776534 0.683236 0.137874
H10   H     H_    0.653648 0.555977 0.286890 0.164401
H11   H     H_    0.882929 0.771011 0.681190 0.181006
H12   H     H_    0.741594 0.556443 0.291790 0.144702
H13   H     H_    0.040842 0.794070 0.648853 0.138388
H14   H     H_    0.493656 0.107514 0.279523 0.163171
C41   C     C_R   0.537610 0.127231 0.748556 -0.153727
H15   H     H_    0.556444 0.216417 0.743316 0.157480
C42   C     C_R   0.535089 0.071348 0.878628 -0.148915
H16   H     H_    0.549751 0.119195 0.970515 0.139338
C43   C     C_R   0.511945 0.956077 0.890865 -0.148968
H17   H     H_    0.507283 0.915364 0.992952 0.146913
C44   C     C_R   0.495815 0.891505 0.771241 -0.173809
H18   H     H_    0.476160 0.805358 0.788826 0.171192
C45   C     C_R   0.502881 0.941553 0.636001 0.100877
C46   C     C_R   0.516911 0.067596 0.628285 0.098659
C47   C     C_R   0.508848 0.129762 0.501383 -0.117014
C48   C     C_R   0.498768 0.062144 0.378359 -0.206046
H19   H     H_    0.489459 0.885252 0.282655 0.164965
C49   C     C_R   0.494845 0.934925 0.380960 -0.222436
C50   C     C_R   0.496574 0.872756 0.508228 -0.111082
H20   H     H_    0.445153 0.361179 0.126603 0.156938
C51   C     C_R   0.564568 0.663374 0.147476 -0.161233
H21   H     H_    0.567523 0.672304 0.257769 0.202223
C52   C     C_R   0.596453 0.741881 0.076467 -0.232334
H22   H     H_    0.621124 0.804143 0.133981 0.158971
C53   C     C_R   0.596616 0.741090 0.932420 -0.186847
H23   H     H_    0.621251 0.803108 0.877126 0.163493
C54   C     C_R   0.564718 0.662241 0.858602 -0.149023
H24   H     H_    0.567103 0.671300 0.748566 0.205439
C55   C     C_R   0.531796 0.579973 0.926657 0.187335
C56   C     C_R   0.531746 0.580204 0.076465 0.201016
N3    N     N_R   0.500460 0.501210 0.147910 -0.206897
C57   C     C_R   0.469849 0.423613 0.072381 -0.060476
H25   H     H_    0.445137 0.361296 0.867327 0.149766
C58   C     C_R   0.469827 0.423747 0.924235 -0.070270
N4    N     N_R   0.500480 0.501290 0.852040 -0.204748
C59   C     C_3   0.747767 0.425622 0.756865 -0.386740
C60   C     C_3   0.717026 0.382332 0.880672 -0.843319
H26   H     H_    0.695367 0.458468 0.920919 0.253577
H27   H     H_    0.693055 0.301762 0.849665 0.251452
H28   H     H_    0.740896 0.353733 0.966614 0.264883
H29   H     H_    0.770864 0.349001 0.726216 0.208464
H30   H     H_    0.771728 0.504015 0.794142 0.233975
O13   O     O_3   0.869202 0.215548 0.294277 -0.565392
C61   C     C_3   0.870313 0.105007 0.370286 0.084837
H31   H     H_    0.855333 0.117979 0.477266 0.148430
H32   H     H_    0.907782 0.073700 0.378949 0.118965
C62   C     C_3   0.839642 0.004850 0.293398 -0.310039
H33   H     H_    0.801992 0.034256 0.284685 0.248665
H34   H     H_    0.853938 0.991601 0.186102 0.221684
C63   C     C_3   0.839811 0.882610 0.370167 -0.885408
H35   H     H_    0.876991 0.849762 0.376706 0.254835
H36   H     H_    0.816845 0.812080 0.312842 0.261364
H37   H     H_    0.825353 0.893888 0.477434 0.285658
O14   O     O_3   0.352095 0.549929 0.249714 -0.596728
C64   C     C_3   0.356814 0.678278 0.227597 0.074190
H38   H     H_    0.375289 0.726627 0.318100 0.134297
H39   H     H_    0.320735 0.716552 0.211798 0.144959
C65   C     C_3   0.386992 0.702159 0.096796 -0.306718
H40   H     H_    0.423655 0.668372 0.113232 0.231730
H41   H     H_    0.370144 0.651076 0.006187 0.224762
C66   C     C_3   0.391091 0.839336 0.063779 -0.929671
H42   H     H_    0.354838 0.875272 0.046413 0.270895
H43   H     H_    0.412470 0.853414 0.967286 0.255325
H44   H     H_    0.409286 0.891852 0.151059 0.253723

loop_
_geom_bond_atom_site_label_1
_geom_bond_atom_site_label_2
_geom_bond_distance
_ccdc_geom_bond_type
C28   C32   1.414630 A    
C51   H21   1.060142 S    
C26   N2    1.364630 A    
C54   H24   1.060221 S    
C55   C56   1.432433 A    
C17   C29   1.405101 A    
C20   C24   1.423525 A    
C7    C8    1.399969 A    
C12   C15   1.408289 A    
C8    O14   1.382725 S    
C43   H17   1.083018 S    
C47   C48   1.398157 A    
Cu1   Cu2   2.689965 S    
C44   H18   1.076775 S    
C28   C29   1.408400 A    
Cu1   O7    1.952055 S    
N1    C11   1.432355 S    
C39   H11   1.083624 S    
C21   C22   1.395930 A    
C30   H10   1.082918 S    
C23   C24   1.414573 A    
O7    C4    1.299147 A    
C5    C13   1.403559 A    
C37   H8    1.083532 S    
C5    O9    1.349799 S    
C18   C21   1.411643 A    
C25   C39   1.395379 A    
C63   H35   1.111415 S    
Cu1   O5    1.972044 S    
C19   C20   1.422910 A    
C42   H16   1.082650 S    
O5    C3    1.289037 A    
C61   H31   1.116096 S    
C64   C65   1.528227 S    
C19   C35   1.422922 A    
C60   H27   1.110880 S    
C2    C16   1.477747 S    
H25   C58   1.081696 S    
C1    C47   1.461814 S    
C59   H30   1.109908 S    
C52   C53   1.377308 A    
C22   O13   1.384453 S    
C62   C63   1.525652 S    
C12   C34   1.422334 A    
C14   H3    1.083534 S    
C54   C55   1.416194 A    
C9    C10   1.393465 A    
C51   C56   1.417679 A    
C42   C43   1.387044 A    
C38   C39   1.386643 A    
O3    Cu1   1.950275 S    
H20   C57   1.081693 S    
C41   C46   1.418157 A    
N3    C57   1.366147 A    
C44   C45   1.420615 A    
C37   C40   1.389160 A    
C33   C36   1.416241 A    
C34   C35   1.420602 A    
C31   C32   1.400052 A    
C12   C13   1.408379 A    
O3    C2    1.302385 A    
C35   C40   1.416531 A    
C53   H23   1.083007 S    
C41   C42   1.392014 A    
C28   C59   1.523840 S    
C27   O10   1.349050 S    
C8    C16   1.416617 A    
C7    H7    1.083230 S    
C18   C33   1.421501 A    
C9    H1    1.083142 S    
O6    C3    1.308703 A    
C19   C38   1.414626 A    
O1    C1    1.292449 A    
C7    C11   1.397507 A    
Cu2   N3    2.022002 S    
C66   H43   1.108734 S    
C22   C23   1.409035 A    
C53   C54   1.387226 A    
C6    O11   1.349650 S    
H19   C49   1.083441 S    
Cu2   O8    1.950270 S    
C56   N3    1.382792 A    
N1    C6    1.366963 A    
C59   H29   1.111637 S    
C33   C34   1.420160 A    
N2    C32   1.435425 S    
C40   H13   1.075970 S    
C49   C50   1.401422 A    
C43   C44   1.394410 A    
C61   C62   1.528316 S    
C64   H38   1.116374 S    
C65   C66   1.525824 S    
C25   C26   1.401037 A    
C9    C16   1.407302 A    
O8    C4    1.300723 A    
C29   H4    1.080494 S    
C48   C49   1.380972 A    
C51   C52   1.387675 A    
N2    C27   1.366680 A    
C26   O12   1.349907 S    
C66   H42   1.110745 S    
C14   C36   1.388276 A    
C31   H12   1.083121 S    
C45   C50   1.428870 A    
O14   C64   1.412436 S    
C65   H41   1.111840 S    
C62   H33   1.112166 S    
C36   H6    1.076684 S    
C5    N1    1.366890 A    
C30   C31   1.390052 A    
C10   H2    1.082873 S    
O1    Cu1   1.966231 S    
C17   C30   1.400500 A    
O2    Cu2   1.972044 S    
C6    C15   1.404500 A    
C4    C17   1.470702 S    
C46   C47   1.418561 A    
C15   C37   1.395522 A    
O4    Cu2   1.952058 S    
C57   C58   1.416581 A    
C63   H37   1.110873 S    
O2    C1    1.302915 A    
C13   C14   1.395323 A    
C66   H44   1.110567 S    
C41   H15   1.081092 S    
C21   H5    1.076497 S    
O13   C61   1.413093 S    
O4    C2    1.300333 A    
C58   N4    1.366501 A    
C18   C20   1.417908 A    
C63   H36   1.110911 S    
C60   H28   1.110634 S    
C59   C60   1.530264 S    
H14   C48   1.083553 S    
C61   H32   1.114389 S    
C64   H39   1.114455 S    
C45   C46   1.408368 A    
C24   C25   1.409839 A    
C38   H9    1.075906 S    
C23   C27   1.412443 A    
Cu2   O6    1.966231 S    
Cu1   N4    2.021028 S    
C3    C50   1.467031 S    
C60   H26   1.111035 S    
C10   C11   1.397344 A    
C52   H22   1.083028 S    
C55   N4    1.380235 A    
C65   H40   1.111018 S    
C62   H34   1.112114 S    
