data_mof_unit_11741.cif
_audit_creation_date              2012-12-11T16:17:01-0500
_audit_creation_method            fapswitch 2.2
_symmetry_space_group_name_H-M    P1
_symmetry_Int_Tables_number       1
_space_group_crystal_system       triclinic
_cell_length_a                    13.361616
_cell_length_b                    13.373513
_cell_length_c                    28.539365
_cell_angle_alpha                 90.004167
_cell_angle_beta                  89.98348
_cell_angle_gamma                 120.103297
_cell_volume                      4411.90766283

loop_
_atom_site_label
_atom_site_type_symbol
_atom_type_description
_atom_site_fract_x
_atom_site_fract_y
_atom_site_fract_z
_atom_type_partial_charge
C1    C     C_R   0.438760 0.550801 0.316463 0.533655
C2    C     C_R   0.550764 0.438721 0.683537 0.544018
C3    C     C_R   0.561570 0.111667 0.816357 0.538378
C4    C     C_R   0.887909 0.449276 0.683542 0.545286
C5    C     C_1   0.064757 0.523917 0.362001 0.067578
C6    C     C_1   0.466117 0.942248 0.139340 0.068638
C7    C     C_1   0.476207 0.540987 0.361999 0.067709
C8    C     C_1   0.053231 0.518880 0.139893 0.050394
C9    C     C_1   0.459188 0.935067 0.362018 0.067729
C10   C     C_1   0.476576 0.537965 0.138298 0.086810
C11   C     C_1   0.528395 0.064800 0.862128 0.059493
C12   C     C_R   0.110612 0.560721 0.183822 0.549439
C13   C     C_1   0.935133 0.459244 0.637988 0.070537
C14   C     C_1   0.535064 0.476699 0.861106 0.073889
C15   C     C_1   0.523789 0.064732 0.638005 0.070813
C16   C     C_1   0.929491 0.458830 0.863476 0.065603
C17   C     C_1   0.540941 0.476069 0.637990 0.070627
C18   C     C_R   0.015347 0.388557 0.475907 0.175848
C19   C     C_R   0.385104 0.913286 0.020593 0.255474
C20   C     C_R   0.612009 0.627267 0.475888 0.175525
C21   C     C_R   0.060001 0.435692 0.023477 0.221858
C22   C     C_R   0.373056 0.984732 0.475834 0.175731
C23   C     C_R   0.449278 0.887921 0.316461 0.534950
C24   C     C_R   0.573743 0.636794 0.021368 0.235127
C25   C     C_R   0.390176 0.937153 0.971947 0.219036
C26   C     C_R   0.984701 0.373255 0.524150 0.175415
C27   C     C_R   0.583931 0.628360 0.971867 0.197457
C28   C     C_R   0.388311 0.015327 0.524080 0.175079
C29   C     C_R   0.056534 0.446246 0.973983 0.188869
C30   C     C_R   0.627244 0.611990 0.524139 0.175048
C31   C     C_R   0.001199 0.563838 0.524273 0.270738
C32   C     C_R   0.593617 0.088635 0.981114 0.249902
C33   C     C_R   0.436307 0.437559 0.524291 0.271422
C34   C     C_R   0.438957 0.550247 0.183625 0.548432
C35   C     C_R   0.888123 0.471663 0.983294 0.296904
C36   C     C_R   0.561667 0.997391 0.524436 0.272333
C37   C     C_R   0.471713 0.417042 0.978419 0.311156
C38   C     C_R   0.582219 0.077528 0.029808 0.256570
C39   C     C_R   0.997781 0.561987 0.475610 0.272605
C40   C     C_R   0.476758 0.425047 0.027163 0.278815
C41   C     C_R   0.563601 0.000744 0.475769 0.271383
C42   C     C_R   0.901728 0.476918 0.031961 0.288876
C43   C     C_R   0.438096 0.435999 0.475621 0.273082
C44   C     C_R   0.013345 0.479540 0.451459 -0.083430
C45   C     C_R   0.112087 0.561307 0.316458 0.535053
C46   C     C_R   0.479290 0.989185 0.049396 -0.035148
C47   C     C_R   0.520749 0.534154 0.451448 -0.084174
C48   C     C_R   0.988873 0.461300 0.051972 -0.021387
C49   C     C_R   0.465996 0.986158 0.451491 -0.084067
C50   C     C_R   0.522752 0.533775 0.048638 -0.039573
C51   C     C_R   0.497775 0.018655 0.952274 -0.062170
C52   C     C_R   0.986329 0.466167 0.548518 -0.084142
C53   C     C_R   0.526447 0.517359 0.950896 -0.031196
C54   C     C_R   0.479289 0.013238 0.548557 -0.084100
C55   C     C_R   0.967473 0.460697 0.954347 -0.040310
C56   C     C_R   0.450669 0.890030 0.184138 0.553219
C57   C     C_R   0.534184 0.520497 0.548526 -0.084827
C58   C     C_1   0.962335 0.461063 0.597821 0.076761
C59   C     C_1   0.510683 0.038586 0.902698 0.065481
C60   C     C_1   0.539236 0.501555 0.597830 0.076379
C61   C     C_1   0.951564 0.460573 0.904409 0.078358
C62   C     C_1   0.498258 0.037386 0.597854 0.077295
C63   C     C_1   0.528733 0.500362 0.901205 0.103800
C64   C     C_1   0.474085 0.970851 0.099083 0.076034
C65   C     C_1   0.037445 0.498464 0.402159 0.076685
C66   C     C_1   0.502064 0.535306 0.098094 0.101300
C67   C     C_R   0.549754 0.439091 0.816184 0.533841
C68   C     C_1   0.460944 0.962213 0.402185 0.075862
C69   C     C_1   0.017137 0.488558 0.100774 0.072426
C70   C     C_1   0.501765 0.539262 0.402150 0.076184
C71   C     C_3   0.114894 0.721673 0.568775 -0.019249
C72   C     C_3   0.761594 0.134555 0.942320 -0.083099
C73   C     C_3   0.278462 0.393188 0.568855 -0.019397
C74   C     C_3   0.824597 0.584549 0.949291 -0.095932
C75   C     C_3   0.602839 0.881934 0.569066 -0.019854
C76   C     C_3   0.467932 0.255689 0.950114 -0.058755
C77   C     C_3   0.747249 0.121277 0.069581 -0.054963
C78   C     C_R   0.561256 0.112071 0.683538 0.544754
C79   C     C_3   0.882682 0.603832 0.431033 -0.021462
C80   C     C_3   0.511095 0.306177 0.072954 -0.088205
C81   C     C_3   0.721866 0.113691 0.431283 -0.020918
C82   C     C_3   0.868700 0.606051 0.071706 -0.098923
C83   C     C_3   0.395566 0.278898 0.430988 -0.021410
C84   C     C_R   0.887100 0.449193 0.816833 0.540188
Cr1   Cr    Cr6+3 0.505050 0.756260 0.250000 1.094231
Cr2   Cr    Cr6+3 0.251210 0.494950 0.250000 1.107056
Cr3   Cr    Cr6+3 0.243740 0.748790 0.250000 1.084462
Cr4   Cr    Cr6+3 0.756260 0.505050 0.750000 1.103007
Cr5   Cr    Cr6+3 0.494950 0.251210 0.750000 1.106550
Cr6   Cr    Cr6+3 0.748790 0.243740 0.750000 1.092817
H1    H     H_    0.108535 0.174612 0.465085 0.399243
H2    H     H_    0.174180 0.108326 0.534548 0.398862
H3    H     H_    0.316850 0.592685 0.968156 0.385378
H4    H     H_    0.934807 0.826829 0.534645 0.398858
H5    H     H_    0.179643 0.777521 0.542243 0.189549
H6    H     H_    0.146710 0.668940 0.586632 0.047147
H7    H     H_    0.108073 0.776381 0.596205 0.208417
H8    H     H_    0.746777 0.052075 0.958230 0.166595
H9    H     H_    0.854444 0.199237 0.947160 0.154156
H10   H     H_    0.745259 0.122510 0.904080 0.151303
H11   H     H_    0.223284 0.402928 0.542305 0.189323
H12   H     H_    0.133878 0.766564 0.095776 0.345600
H13   H     H_    0.331438 0.477380 0.587028 0.047518
H14   H     H_    0.222980 0.331079 0.596028 0.208812
H15   H     H_    0.917000 0.638558 0.938715 0.133344
H16   H     H_    0.804466 0.629320 0.977253 0.165323
H17   H     H_    0.771951 0.577372 0.918164 0.170634
H18   H     H_    0.595266 0.817505 0.542706 0.189982
H19   H     H_    0.517031 0.850085 0.585999 0.045511
H20   H     H_    0.662513 0.888125 0.597246 0.206417
H21   H     H_    0.465346 0.207337 0.982030 0.146321
H22   H     H_    0.559185 0.315824 0.939381 0.130204
H23   H     H_    0.826604 0.934649 0.465588 0.398190
H24   H     H_    0.426640 0.192122 0.921424 0.178984
H25   H     H_    0.791087 0.113336 0.037955 0.156551
H26   H     H_    0.704205 0.038192 0.089129 0.145645
H27   H     H_    0.815347 0.186833 0.092665 0.161387
H28   H     H_    0.818235 0.596210 0.457431 0.190622
H29   H     H_    0.850636 0.518221 0.413981 0.041379
H30   H     H_    0.889091 0.663776 0.402951 0.203954
H31   H     H_    0.553548 0.364636 0.103187 0.126983
H32   H     H_    0.577817 0.317132 0.046799 0.180368
H33   H     H_    0.469873 0.216091 0.086130 0.161753
H34   H     H_    0.200672 0.261894 0.036966 0.400887
H35   H     H_    0.776854 0.178664 0.457894 0.189767
H36   H     H_    0.669443 0.145083 0.412870 0.043589
H37   H     H_    0.777563 0.106809 0.404317 0.206771
H38   H     H_    0.926300 0.667795 0.044383 0.161048
H39   H     H_    0.916255 0.625127 0.105386 0.124676
H40   H     H_    0.795466 0.621869 0.076823 0.169686
H41   H     H_    0.404199 0.222845 0.457421 0.190351
H42   H     H_    0.480670 0.332571 0.413480 0.041940
H43   H     H_    0.334761 0.224442 0.403264 0.204951
H44   H     H_    0.065491 0.891780 0.464902 0.399433
H45   H     H_    0.787800 0.905950 0.076703 0.358468
H46   H     H_    0.085076 0.834774 0.945946 0.361247
H47   H     H_    0.891484 0.065863 0.535225 0.399983
H48   H     H_    0.826028 0.916642 0.942072 0.363492
O1    O     O_R   0.530190 0.870330 0.301660 -0.488387
O2    O     O_R   0.870330 0.530190 0.698340 -0.479032
O3    O     O_R   0.469810 0.340140 0.801660 -0.487833
O4    O     O_R   0.659860 0.129670 0.698340 -0.479061
O5    O     O_R   0.494300 0.651190 0.297490 -0.483822
O6    O     O_R   0.156890 0.505700 0.202510 -0.465937
O7    O     O_R   0.348810 0.843110 0.297490 -0.481666
O8    O     O_R   0.494300 0.651190 0.202510 -0.479821
O9    O     O_R   0.156890 0.505700 0.297490 -0.482893
O10   O     O_R   0.348810 0.843110 0.202510 -0.485397
O11   O     O_R   0.651190 0.494300 0.797490 -0.489619
O12   O     O_R   0.340140 0.469810 0.198340 -0.481739
O13   O     O_R   0.505700 0.156890 0.702510 -0.476869
O14   O     O_R   0.843110 0.348810 0.797490 -0.495654
O15   O     O_R   0.651190 0.494300 0.702510 -0.477017
O16   O     O_R   0.505700 0.156890 0.797490 -0.485602
O17   O     O_R   0.843110 0.348810 0.702510 -0.476191
O18   O     O_3   0.333333 0.666667 0.250000 -0.270234
O19   O     O_3   0.666667 0.333333 0.750000 -0.283981
O20   O     O_2   0.987220 0.229324 0.411977 -0.311030
O21   O     O_2   0.180931 0.394700 0.421388 -0.242638
O22   O     O_3   0.107520 0.235452 0.484523 -0.439173
O23   O     O_R   0.129670 0.659860 0.301660 -0.486276
O24   O     O_2   0.196958 0.697782 0.009980 -0.248221
O25   O     O_2   0.307904 0.735183 0.081635 -0.260607
O26   O     O_3   0.179177 0.828601 0.072806 -0.497798
O27   O     O_2   0.774305 0.758737 0.412825 -0.309884
O28   O     O_2   0.608340 0.786397 0.420315 -0.241732
O29   O     O_3   0.764617 0.872696 0.484685 -0.436557
O30   O     O_2   0.264076 0.493569 0.062746 -0.213870
O31   O     O_2   0.093934 0.324999 0.095353 -0.318537
O32   O     O_3   0.171439 0.300512 0.015992 -0.408353
O33   O     O_2   0.242498 0.014558 0.412154 -0.309634
O34   O     O_R   0.530190 0.870330 0.198340 -0.489431
O35   O     O_2   0.213207 0.820621 0.420779 -0.242283
O36   O     O_3   0.127445 0.892886 0.484332 -0.439348
O37   O     O_2   0.612046 0.856620 0.017446 -0.261042
O38   O     O_2   0.555207 0.762331 0.093072 -0.276118
O39   O     O_3   0.762705 0.827850 0.064143 -0.507031
O40   O     O_2   0.274361 0.955777 0.897250 -0.297937
O41   O     O_2   0.242181 0.763573 0.916197 -0.205219
O42   O     O_3   0.147178 0.852097 0.968944 -0.443755
O43   O     O_2   0.013210 0.242635 0.588168 -0.305732
O44   O     O_2   0.819319 0.213407 0.578743 -0.243418
O45   O     O_R   0.340140 0.469810 0.301660 -0.487759
O46   O     O_3   0.892946 0.127788 0.515687 -0.440354
O47   O     O_2   0.704836 0.724976 0.891204 -0.318253
O48   O     O_2   0.591507 0.805126 0.924115 -0.232394
O49   O     O_3   0.784920 0.852346 0.964611 -0.465422
O50   O     O_2   0.227608 0.986109 0.587577 -0.305815
O51   O     O_2   0.393583 0.179722 0.579047 -0.242831
O52   O     O_3   0.235711 0.107983 0.515309 -0.437736
O53   O     O_2   0.131447 0.327720 0.923206 -0.193303
O54   O     O_2   0.180553 0.517270 0.892845 -0.249901
O55   O     O_3   0.294162 0.510360 0.964304 -0.427390
O56   O     O_R   0.129670 0.659860 0.198340 -0.514715
O57   O     O_2   0.758277 0.774090 0.587291 -0.304471
O58   O     O_2   0.786691 0.608732 0.579732 -0.242505
O59   O     O_3   0.872838 0.765146 0.515459 -0.437443
O60   O     O_3   0.004934 0.655781 0.547875 -0.463460
O61   O     O_3   0.694886 0.178473 0.962612 -0.548736
O62   O     O_3   0.344165 0.349186 0.547899 -0.463625
O63   O     O_3   0.793034 0.471757 0.964099 -0.563193
O64   O     O_3   0.648909 0.992075 0.548192 -0.463250
O65   O     O_3   0.402931 0.310830 0.957300 -0.479628
O66   O     O_3   0.668872 0.159044 0.058206 -0.554880
O67   O     O_R   0.870330 0.530190 0.801660 -0.493440
O68   O     O_3   0.992867 0.649420 0.451890 -0.462540
O69   O     O_3   0.424356 0.324344 0.053385 -0.542737
O70   O     O_3   0.655430 0.003935 0.452214 -0.463029
O71   O     O_3   0.823251 0.488565 0.059769 -0.559869
O72   O     O_3   0.350341 0.343535 0.451930 -0.462794
O73   O     O_R   0.469810 0.340140 0.698340 -0.479977
O74   O     O_R   0.659860 0.129670 0.801660 -0.505448
S1    S     S_3+6 0.073044 0.310339 0.447132 0.052054
S2    S     S_3+6 0.309647 0.072576 0.552840 0.054241
S3    S     S_3+6 0.165754 0.449308 0.936810 0.118633
S4    S     S_3+6 0.763169 0.691623 0.553015 0.055134
S5    S     S_3+6 0.265357 0.788125 0.046052 0.066462
S6    S     S_3+6 0.691454 0.763191 0.447067 0.053230
S7    S     S_3+6 0.149878 0.389247 0.050898 0.071346
S8    S     S_3+6 0.237131 0.927928 0.446939 0.052811
S9    S     S_3+6 0.623035 0.773641 0.049458 0.045898
S10   S     S_3+6 0.262379 0.875772 0.936608 0.076075
S11   S     S_3+6 0.927265 0.237327 0.553005 0.053779
S12   S     S_3+6 0.665906 0.753806 0.936046 0.039732

loop_
_geom_bond_atom_site_label_1
_geom_bond_atom_site_label_2
_ccdc_geom_bond_type
O26   S5    S    
O46   S11   S    
C22   S8    S    
C79   H28   S    
O21   S1    D    
C49   C68   S    
C81   H36   S    
C67   O11   A    
C34   O8    A    
Cr4   O11   S    
C18   C26   A    
C24   C27   A    
Cr4   O67   S    
Cr2   O9    S    
Cr1   O5    S    
C7    C70   T    
C34   O12   A    
C76   O65   S    
Cr2   O6    S    
Cr5   O73   S    
H47   O46   S    
C20   C30   A    
C24   S9    S    
O20   S1    D    
C23   O7    A    
C2    O73   A    
C23   O1    A    
O37   S9    D    
C32   O61   S    
C77   H27   S    
C78   O4    A    
O58   S4    D    
Cr5   O3    S    
C29   S3    S    
C15   C78   S    
C71   H5    S    
O49   S12   S    
C14   C63   T    
C73   O62   S    
C16   C84   S    
C6    C64   T    
C4    C13   S    
O35   S8    D    
C43   O72   S    
Cr2   O18   S    
Cr4   O2    S    
C45   O23   A    
O53   S3    D    
C74   H17   S    
C84   O67   A    
C73   H14   S    
C39   O68   S    
O47   S12   D    
C79   H29   S    
C73   H13   S    
C76   H24   S    
C14   C67   S    
O42   S10   S    
C19   S5    S    
C32   C38   A    
C82   H40   S    
C77   H26   S    
H44   O36   S    
Cr1   O1    S    
O54   S3    D    
O33   S8    D    
C8    C12   S    
C82   O71   S    
C37   C53   A    
C73   H11   S    
O24   S5    D    
C75   H18   S    
C38   O66   S    
C56   O34   A    
C2    C17   S    
C28   S2    S    
C36   C41   A    
C36   O64   S    
C11   C59   T    
C41   C49   A    
C38   C46   A    
C75   O64   S    
H2    O52   S    
C78   O13   A    
O55   S3    S    
C37   O65   S    
C80   H31   S    
C10   C66   T    
C48   C69   S    
C24   C50   A    
O44   S11   D    
C19   C46   A    
Cr1   O34   S    
C75   H19   S    
O38   S9    D    
O41   S10   D    
C35   C55   A    
C33   C43   A    
C36   C54   A    
Cr1   O8    S    
H45   O39   S    
C5    C65   T    
C35   C42   A    
Cr3   O10   S    
O50   S2    D    
C9    C23   S    
C57   C60   S    
C80   H32   S    
C13   C58   T    
C29   C55   A    
C33   O62   S    
C21   C29   A    
C3    O16   A    
O28   S6    D    
C12   O6    A    
C46   C64   S    
C30   C57   A    
Cr1   O18   S    
C56   O10   A    
C25   C51   A    
C47   C70   S    
C83   H41   S    
C1    O5    A    
C26   C52   A    
C4    O2    A    
C71   H7    S    
C27   S12   S    
C76   H22   S    
C35   O63   S    
C79   H30   S    
C80   O69   S    
C50   C66   S    
C8    C69   T    
H34   O32   S    
C25   S10   S    
C10   C34   S    
C42   C48   A    
Cr4   O19   S    
C82   H39   S    
O52   S2    S    
C82   H38   S    
O57   S4    D    
Cr6   O4    S    
C42   O71   S    
C52   C58   S    
O27   S6    D    
C1    O45   A    
C81   O70   S    
C84   O14   A    
Cr6   O14   S    
O31   S7    D    
C2    O15   A    
C22   C49   A    
Cr2   O45   S    
C18   S1    S    
C51   C59   S    
C16   C61   T    
C67   O3    A    
C77   O66   S    
O25   S5    D    
C18   C44   A    
C71   O60   S    
O32   S7    S    
C72   H10   S    
C32   C51   A    
C3    O74   A    
O48   S12   D    
C75   H20   S    
C28   C54   A    
Cr3   O7    S    
C81   H35   S    
C45   O9    A    
C20   S6    S    
H3    O55   S    
Cr3   O56   S    
C6    C56   S    
H23   O29   S    
C27   C53   A    
Cr5   O19   S    
C39   C44   A    
C71   H6    S    
C74   O63   S    
C33   C57   A    
C37   C40   A    
C79   O68   S    
C54   C62   S    
H46   O42   S    
C31   C52   A    
H4    O59   S    
Cr4   O15   S    
C21   C48   A    
Cr6   O19   S    
Cr2   O12   S    
H48   O49   S    
C9    C68   T    
C83   H42   S    
Cr3   O23   S    
C74   H15   S    
Cr6   O74   S    
C53   C63   S    
H1    O22   S    
Cr5   O16   S    
C5    C45   S    
C41   O70   S    
C76   H21   S    
C40   C50   A    
O22   S1    S    
C55   C61   S    
C44   C65   S    
O59   S4    S    
C15   C62   T    
C31   C39   A    
C74   H16   S    
O30   S7    D    
C40   O69   S    
C19   C25   A    
C83   H43   S    
C20   C47   A    
C3    C11   S    
O51   S2    D    
C72   H8    S    
C17   C60   T    
C30   S4    S    
C83   O72   S    
Cr5   O13   S    
C4    O17   A    
O36   S8    S    
O43   S11   D    
H12   O26   S    
C21   S7    S    
C26   S11   S    
O29   S6    S    
Cr3   O18   S    
O40   S10   D    
C1    C7    S    
C22   C28   A    
O39   S9    S    
Cr6   O17   S    
C77   H25   S    
C43   C47   A    
C80   H33   S    
C31   O60   S    
C81   H37   S    
C12   O56   A    
C72   O61   S    
C72   H9    S    
