data_mof_unit_43980.cif
_audit_creation_date              2012-12-11T15:22:48-0500
_audit_creation_method            fapswitch 2.2
_symmetry_space_group_name_H-M    P1
_symmetry_Int_Tables_number       1
_space_group_crystal_system       triclinic
_cell_length_a                    22.475942
_cell_length_b                    12.996556
_cell_length_c                    26.998648
_cell_angle_alpha                 89.865694
_cell_angle_beta                  90.429726
_cell_angle_gamma                 89.978704
_cell_volume                      7886.32663577

loop_
_atom_site_label
_atom_site_type_symbol
_atom_type_description
_atom_site_fract_x
_atom_site_fract_y
_atom_site_fract_z
_atom_type_partial_charge
C1    C     C_R   0.720706 0.345062 0.178247 0.542786
C2    C     C_R   0.483586 0.252390 0.897310 -0.132589
C3    C     C_R   0.010038 0.586380 0.555352 -0.118535
C4    C     C_R   0.506112 0.077873 0.394693 -0.124775
C5    C     C_R   0.499255 0.087807 0.605438 -0.128852
C6    C     C_R   0.003162 0.582752 0.394648 -0.131030
C7    C     C_R   0.997768 0.583492 0.605860 -0.125924
C8    C     C_R   0.738727 0.958949 0.372653 0.025789
C9    C     C_R   0.260169 0.956528 0.628143 0.024831
C10   C     C_R   0.240065 0.455205 0.371595 0.025014
C11   C     C_R   0.757601 0.449815 0.629959 0.025234
C12   C     C_R   0.687536 0.929948 0.398736 -0.125024
C13   C     C_R   0.021966 0.757704 0.102759 -0.130513
C14   C     C_R   0.310560 0.922841 0.602373 -0.125696
C15   C     C_R   0.189710 0.421742 0.397515 -0.125845
C16   C     C_R   0.803987 0.395639 0.607007 -0.126124
C17   C     C_R   0.690032 0.916859 0.449531 -0.122662
C18   C     C_R   0.307504 0.907296 0.551761 -0.122363
C19   C     C_R   0.192995 0.405656 0.448091 -0.122894
C20   C     C_R   0.798857 0.367185 0.557547 -0.123363
C21   C     C_R   0.744092 0.929195 0.474895 0.037544
C22   C     C_R   0.253624 0.922098 0.526343 0.037629
C23   C     C_R   0.247073 0.419589 0.473282 0.037790
C24   C     C_R   0.981230 0.755238 0.897153 -0.143496
C25   C     C_R   0.747213 0.392016 0.530811 0.036374
C26   C     C_R   0.796330 0.949523 0.448342 -0.116601
C27   C     C_R   0.201950 0.946573 0.552788 -0.120267
C28   C     C_R   0.298731 0.443374 0.446640 -0.119936
C29   C     C_R   0.699305 0.439443 0.554794 -0.119590
C30   C     C_R   0.793580 0.965229 0.397426 -0.123062
C31   C     C_R   0.205292 0.964528 0.603465 -0.129068
C32   C     C_R   0.295157 0.461968 0.395996 -0.128529
C33   C     C_R   0.704336 0.467668 0.604088 -0.127714
C34   C     C_R   0.783164 0.984821 0.557072 -0.120657
C35   C     C_R   0.513777 0.258914 0.051602 0.030217
C36   C     C_R   0.215860 0.980103 0.443939 -0.119566
C37   C     C_R   0.285179 0.478025 0.555323 -0.121175
C38   C     C_R   0.690237 0.338338 0.457055 -0.127203
C39   C     C_R   0.720267 0.345258 0.322448 0.535739
C40   C     C_R   0.278927 0.347077 0.678220 0.543053
C41   C     C_R   0.221112 0.847034 0.321745 0.544170
C42   C     C_R   0.778751 0.847631 0.678449 0.544300
C43   C     C_R   0.790302 0.967346 0.607555 -0.129216
C44   C     C_R   0.209467 0.964514 0.393269 -0.128701
C45   C     C_R   0.291299 0.463302 0.606097 -0.131054
C46   C     C_R   0.494012 0.255088 0.948579 0.032253
C47   C     C_R   0.683322 0.333119 0.406331 -0.114010
C48   C     C_R   0.717539 0.829615 0.603033 -0.127355
C49   C     C_R   0.279845 0.823061 0.398163 -0.124994
C50   C     C_R   0.220205 0.322941 0.601929 -0.125635
C51   C     C_R   0.784455 0.393158 0.394749 -0.132994
C52   C     C_R   0.711396 0.845582 0.552593 -0.123899
C53   C     C_R   0.285140 0.837072 0.448773 -0.122298
C54   C     C_R   0.215218 0.336013 0.551234 -0.123108
C55   C     C_R   0.791209 0.400551 0.446112 -0.115314
C56   C     C_R   0.745778 0.920700 0.528950 0.036468
C57   C     C_R   0.009467 0.758514 0.051835 0.028655
C58   C     C_R   0.251768 0.913523 0.472280 0.037699
C59   C     C_R   0.249033 0.411505 0.527343 0.037458
C60   C     C_R   0.743625 0.374329 0.477383 0.030911
C61   C     C_R   0.759431 0.886570 0.630293 0.024889
C62   C     C_R   0.239708 0.883276 0.370508 0.025339
C63   C     C_R   0.260547 0.383009 0.629292 0.024529
C64   C     C_R   0.729687 0.362234 0.374949 0.041430
C65   C     C_R   0.553682 0.158671 0.321314 0.537502
C66   C     C_R   0.445246 0.159080 0.678150 0.542350
C67   C     C_R   0.054437 0.658827 0.321676 0.542133
C68   C     C_R   0.991748 0.756912 0.948421 0.025008
C69   C     C_R   0.945649 0.658975 0.678370 0.544476
C70   C     C_R   0.731425 0.002505 0.323180 0.542816
C71   C     C_R   0.268417 0.002218 0.676995 0.544058
C72   C     C_R   0.231643 0.501889 0.322918 0.543639
C73   C     C_R   0.768254 0.501777 0.677139 0.545051
C74   C     C_R   0.500248 0.077561 0.107407 -0.102382
C75   C     C_R   0.461733 0.069620 0.903093 -0.099254
C76   C     C_R   0.009613 0.572004 0.104526 -0.097615
C77   C     C_R   0.977195 0.568492 0.899437 -0.105004
C78   C     C_R   0.486938 0.076507 0.056910 -0.038600
C79   C     C_R   0.495067 0.166993 0.028616 -0.009861
C80   C     C_R   0.469680 0.071692 0.954137 -0.044113
C81   C     C_R   0.999121 0.570926 0.053660 -0.040875
C82   C     C_R   0.985428 0.568833 0.950511 -0.044914
C83   C     C_R   0.460297 0.982663 0.982643 0.391857
C84   C     C_R   0.468675 0.985186 0.033764 0.391182
C85   C     C_R   0.984605 0.476232 0.977383 0.382551
C86   C     C_R   0.990807 0.477366 0.028702 0.399003
C87   C     C_R   0.486120 0.164706 0.977104 -0.009352
C88   C     C_R   0.999949 0.664422 0.026980 -0.009782
C89   C     C_R   0.279202 0.345516 0.821599 0.540962
C90   C     C_R   0.992405 0.663455 0.975283 -0.007403
C91   C     C_R   0.521415 0.348412 0.023144 -0.120284
C92   C     C_R   0.511199 0.346676 0.972021 -0.123710
C93   C     C_R   0.009061 0.851010 0.024887 -0.126440
C94   C     C_R   0.999695 0.850282 0.973606 -0.129915
C95   C     C_R   0.742258 0.952194 0.131606 0.019901
C96   C     C_R   0.265074 0.978998 0.873892 0.026760
C97   C     C_R   0.235572 0.478095 0.126387 0.032447
C98   C     C_R   0.761087 0.457859 0.870302 0.018423
C99   C     C_R   0.793666 0.977800 0.105227 -0.125982
C100  C     C_R   0.220833 0.845719 0.178428 0.540993
C101  C     C_R   0.246438 0.057550 0.905681 -0.115598
C102  C     C_R   0.254633 0.556115 0.094304 -0.111214
C103  C     C_R   0.706005 0.463945 0.894176 -0.121449
C104  C     C_R   0.798642 0.951431 0.055732 -0.117336
C105  C     C_R   0.248600 0.044206 0.956446 -0.120525
C106  C     C_R   0.252965 0.542063 0.043606 -0.117935
C107  C     C_R   0.702381 0.445295 0.944915 -0.113367
C108  C     C_R   0.752932 0.896792 0.031674 0.031934
C109  C     C_R   0.267265 0.950240 0.976811 0.037045
C110  C     C_R   0.234350 0.447931 0.023602 0.033725
C111  C     C_R   0.780396 0.842528 0.822587 0.538257
C112  C     C_R   0.753946 0.421859 0.972525 0.024862
C113  C     C_R   0.703064 0.865367 0.058780 -0.116509
C114  C     C_R   0.287171 0.871590 0.945123 -0.070279
C115  C     C_R   0.214301 0.369630 0.055589 -0.098898
C116  C     C_R   0.808284 0.410037 0.948031 -0.113930
C117  C     C_R   0.553422 0.157732 0.177835 0.546874
C118  C     C_R   0.444760 0.156684 0.823247 0.544792
C119  C     C_R   0.053559 0.657447 0.177640 0.545476
C120  C     C_R   0.945823 0.656942 0.822749 0.541299
C121  C     C_R   0.697682 0.893098 0.108462 -0.121529
C122  C     C_R   0.467000 0.159778 0.874497 -0.016635
C123  C     C_R   0.287066 0.886717 0.893751 -0.109485
C124  C     C_R   0.213937 0.385443 0.106887 -0.117477
C125  C     C_R   0.811705 0.426748 0.897331 -0.115245
C126  C     C_R   0.707307 0.885999 0.946398 -0.110155
C127  C     C_R   0.302077 0.873672 0.057547 -0.104722
C128  C     C_R   0.199022 0.371702 0.943062 -0.118820
C129  C     C_R   0.785169 0.335762 0.051159 -0.103646
C130  C     C_R   0.713797 0.876126 0.895067 -0.126229
C131  C     C_R   0.291699 0.850909 0.107347 -0.127391
C132  C     C_R   0.208916 0.349674 0.893143 -0.135372
C133  C     C_R   0.523393 0.166375 0.129617 -0.019345
C134  C     C_R   0.779338 0.320771 0.101861 -0.111135
C135  C     C_R   0.819734 0.850139 0.907015 -0.111887
C136  C     C_R   0.201167 0.952191 0.104186 -0.122229
C137  C     C_R   0.299492 0.450702 0.895876 -0.119998
C138  C     C_R   0.707885 0.460370 0.105278 -0.126437
C139  C     C_R   0.813114 0.856395 0.957743 -0.121430
C140  C     C_R   0.211088 0.973751 0.054719 -0.121908
C141  C     C_R   0.290111 0.471394 0.945446 -0.119010
C142  C     C_R   0.714392 0.476349 0.054598 -0.117275
C143  C     C_R   0.757264 0.877228 0.978048 0.029524
C144  C     C_R   0.972033 0.661140 0.872788 -0.018525
C145  C     C_R   0.260918 0.933153 0.030524 0.022131
C146  C     C_R   0.240475 0.430673 0.969906 0.029878
C147  C     C_R   0.751385 0.411601 0.026820 0.030140
C148  C     C_R   0.770488 0.860913 0.875221 0.034501
C149  C     C_R   0.240003 0.887293 0.130500 0.016231
C150  C     C_R   0.260371 0.386357 0.869691 0.019335
C151  C     C_R   0.738800 0.380140 0.128950 0.021281
C152  C     C_R   0.524128 0.167237 0.369621 0.020698
C153  C     C_R   0.469987 0.170114 0.628201 0.022980
C154  C     C_R   0.027883 0.668764 0.371007 0.023114
C155  C     C_R   0.024492 0.663940 0.128784 -0.019148
C156  C     C_R   0.972407 0.669203 0.629116 0.022867
C157  C     C_R   0.523443 0.261729 0.394679 -0.141443
C158  C     C_R   0.454879 0.257416 0.599933 -0.125511
C159  C     C_R   0.036917 0.759719 0.398089 -0.125788
C160  C     C_R   0.962951 0.759859 0.601696 -0.126445
C161  C     C_R   0.511844 0.264899 0.445283 -0.128371
C162  C     C_R   0.464998 0.259409 0.549192 -0.121832
C163  C     C_R   0.025627 0.762215 0.448654 -0.121173
C164  C     C_R   0.974396 0.762223 0.551142 -0.122192
C165  C     C_R   0.731498 0.001546 0.179575 0.542727
C166  C     C_R   0.527465 0.258207 0.102182 -0.127091
C167  C     C_R   0.269296 0.004317 0.821341 0.537054
C168  C     C_R   0.230818 0.504202 0.178768 0.537885
C169  C     C_R   0.768853 0.502079 0.820726 0.541593
C170  C     C_R   0.498612 0.174047 0.471321 0.036986
C171  C     C_R   0.491705 0.175120 0.525787 0.034108
C172  C     C_R   0.004134 0.674381 0.472953 0.036782
C173  C     C_R   0.996452 0.674559 0.527212 0.035726
C174  C     C_R   0.493081 0.081409 0.444980 -0.118694
C175  C     C_R   0.510684 0.090826 0.554738 -0.119981
C176  C     C_R   0.991030 0.585767 0.445175 -0.122411
Cr1   Cr    Cr6+3 0.756570 0.170940 0.251190 1.023391
Cr2   Cr    Cr6+3 0.374010 0.036240 0.749520 1.022451
Cr3   Cr    Cr6+3 0.125990 0.536240 0.250480 1.025384
Cr4   Cr    Cr6+3 0.874010 0.536240 0.749520 1.020038
Cr5   Cr    Cr6+3 0.243430 0.170940 0.748810 1.016223
Cr6   Cr    Cr6+3 0.256570 0.670940 0.251190 1.019302
Cr7   Cr    Cr6+3 0.743430 0.670940 0.748810 1.018909
Cr8   Cr    Cr6+3 0.623740 0.299110 0.249580 1.016895
Cr9   Cr    Cr6+3 0.376260 0.299110 0.750420 1.015367
Cr10  Cr    Cr6+3 0.123740 0.799110 0.249580 1.015196
Cr11  Cr    Cr6+3 0.876260 0.799110 0.750420 1.017385
Cr12  Cr    Cr6+3 0.625990 0.036240 0.250480 1.019961
F1    F     F_    0.443219 0.892989 0.961030 -0.628774
F2    F     F_    0.460376 0.897655 0.060433 -0.631729
F3    F     F_    0.977269 0.384551 0.954043 -0.628854
F4    F     F_    0.989946 0.386701 0.053842 -0.615212
H1    H     H_    0.447992 0.998060 0.885961 0.200263
H2    H     H_    0.301590 0.798095 0.959878 0.120477
H3    H     H_    0.200005 0.295979 0.041115 0.108926
H4    H     H_    0.848806 0.392759 0.968338 0.164525
H5    H     H_    0.657515 0.872327 0.128004 0.138944
H6    H     H_    0.303385 0.826637 0.869665 0.117959
H7    H     H_    0.197456 0.325665 0.131193 0.117104
H8    H     H_    0.854995 0.422336 0.880099 0.155908
H9    H     H_    0.536300 0.332187 0.376136 0.123885
H10   H     H_    0.431362 0.321543 0.616283 0.136534
H11   H     H_    0.056558 0.827020 0.381032 0.133860
H12   H     H_    0.496518 0.007205 0.128806 0.190887
H13   H     H_    0.942825 0.826902 0.618468 0.133600
H14   H     H_    0.533173 0.026044 0.538056 0.100869
H15   H     H_    0.480441 0.010841 0.463505 0.099110
H16   H     H_    0.028806 0.518729 0.538094 0.101987
H17   H     H_    0.972703 0.517929 0.462722 0.097688
H18   H     H_    0.511330 0.019741 0.626452 0.122147
H19   H     H_    0.505147 0.004077 0.376149 0.126162
H20   H     H_    0.005662 0.512806 0.626205 0.124869
H21   H     H_    0.995631 0.511807 0.374588 0.122069
H22   H     H_    0.516342 0.337712 0.464313 0.096296
H23   H     H_    0.970533 0.495478 0.880915 0.191388
H24   H     H_    0.449242 0.325022 0.528084 0.100752
H25   H     H_    0.036481 0.831406 0.469069 0.099585
H26   H     H_    0.963181 0.831093 0.530443 0.099455
H27   H     H_    0.644415 0.925286 0.380679 0.135333
H28   H     H_    0.353622 0.916399 0.620414 0.135258
H29   H     H_    0.146508 0.416143 0.379660 0.134699
H30   H     H_    0.845496 0.380428 0.626306 0.128523
H31   H     H_    0.808520 0.045734 0.539743 0.104441
H32   H     H_    0.191280 0.041954 0.461161 0.101427
H33   H     H_    0.310096 0.539195 0.537768 0.101337
H34   H     H_    0.010757 0.499721 0.124614 0.196627
H35   H     H_    0.653628 0.314958 0.480423 0.113453
H36   H     H_    0.822356 0.012906 0.628108 0.124371
H37   H     H_    0.178614 0.012263 0.372473 0.123802
H38   H     H_    0.322338 0.510893 0.626654 0.123647
H39   H     H_    0.642066 0.303493 0.391387 0.130603
H40   H     H_    0.649046 0.901894 0.469109 0.099090
H41   H     H_    0.348084 0.888998 0.532286 0.100619
H42   H     H_    0.152427 0.387892 0.467723 0.099556
H43   H     H_    0.835773 0.328826 0.539798 0.099266
H44   H     H_    0.682385 0.794826 0.531789 0.102603
H45   H     H_    0.863511 0.833748 0.892603 0.135410
H46   H     H_    0.312891 0.784285 0.469732 0.099475
H47   H     H_    0.187273 0.283300 0.530551 0.099353
H48   H     H_    0.832795 0.428938 0.461293 0.106735
H49   H     H_    0.693121 0.766681 0.619650 0.132440
H50   H     H_    0.303548 0.759374 0.381602 0.135566
H51   H     H_    0.196091 0.259972 0.618821 0.135478
H52   H     H_    0.821152 0.412625 0.370709 0.105304
H53   H     H_    0.838936 0.955921 0.467078 0.101451
H54   H     H_    0.159422 0.954899 0.534084 0.100650
H55   H     H_    0.341392 0.450938 0.465189 0.099454
H56   H     H_    0.160862 0.981423 0.120824 0.134676
H57   H     H_    0.659080 0.459905 0.534731 0.102287
H58   H     H_    0.833591 0.987098 0.377923 0.126231
H59   H     H_    0.165811 0.989741 0.622747 0.124276
H60   H     H_    0.334617 0.486852 0.376545 0.124522
H61   H     H_    0.667890 0.509074 0.620914 0.126309
H62   H     H_    0.486988 0.322239 0.875485 0.118375
H63   H     H_    0.545222 0.327237 0.119240 0.132971
H64   H     H_    0.977433 0.826935 0.876772 0.122104
H65   H     H_    0.033165 0.829052 0.121343 0.126243
H66   H     H_    0.517385 0.416618 0.950753 0.108546
H67   H     H_    0.339627 0.480213 0.879026 0.137519
H68   H     H_    0.535933 0.419441 0.040348 0.112008
H69   H     H_    0.999038 0.922650 0.953605 0.120514
H70   H     H_    0.016256 0.923840 0.043440 0.115522
H71   H     H_    0.828648 0.023778 0.121865 0.134493
H72   H     H_    0.232099 0.131322 0.891242 0.134283
H73   H     H_    0.268840 0.630100 0.108423 0.133028
H74   H     H_    0.666348 0.487504 0.874120 0.128092
H75   H     H_    0.663691 0.902584 0.961143 0.121540
H76   H     H_    0.341332 0.842848 0.039936 0.188745
H77   H     H_    0.159813 0.340965 0.960844 0.135976
H78   H     H_    0.676564 0.507482 0.125425 0.128885
H79   H     H_    0.813856 0.284419 0.030716 0.129954
H80   H     H_    0.675156 0.881844 0.871014 0.117749
H81   H     H_    0.322542 0.801056 0.126936 0.143349
H82   H     H_    0.177861 0.300270 0.873659 0.131590
H83   H     H_    0.803398 0.257676 0.119018 0.140216
H84   H     H_    0.837238 0.978415 0.035771 0.114416
H85   H     H_    0.235213 0.107707 0.979773 0.107441
H86   H     H_    0.266506 0.605300 0.020045 0.107207
H87   H     H_    0.659533 0.451737 0.962736 0.108640
H88   H     H_    0.852036 0.845411 0.981071 0.118153
H89   H     H_    0.667734 0.821563 0.041336 0.118909
H90   H     H_    0.177822 0.018231 0.034885 0.110357
H91   H     H_    0.323570 0.515529 0.965111 0.115443
H92   H     H_    0.689293 0.537593 0.036946 0.110274
O1    O     O_R   0.769900 0.064540 0.196060 -0.523924
O2    O     O_R   0.433710 0.069580 0.694600 -0.519681
O3    O     O_R   0.066290 0.569580 0.305400 -0.521779
O4    O     O_R   0.933710 0.569580 0.694600 -0.518100
O5    O     O_R   0.680760 0.993330 0.302620 -0.508573
O6    O     O_R   0.319240 0.993330 0.697380 -0.507007
O7    O     O_R   0.180760 0.493330 0.302620 -0.507280
O8    O     O_R   0.819240 0.493330 0.697380 -0.503896
O9    O     O_3   0.668770 0.168760 0.250420 -0.243166
O10   O     O_3   0.331230 0.168760 0.749580 -0.242909
O11   O     O_3   0.168770 0.668760 0.250420 -0.242574
O12   O     O_R   0.230100 0.064540 0.803940 -0.519081
O13   O     O_3   0.831230 0.668760 0.749580 -0.242780
O14   O     O_R   0.750800 0.274080 0.199250 -0.504207
O15   O     O_R   0.249200 0.274080 0.800750 -0.507689
O16   O     O_R   0.250800 0.774080 0.199250 -0.507136
O17   O     O_R   0.749200 0.774080 0.800750 -0.496918
O18   O     O_R   0.669990 0.371670 0.194150 -0.519233
O19   O     O_R   0.330010 0.371670 0.805850 -0.520510
O20   O     O_R   0.169990 0.871670 0.194150 -0.521520
O21   O     O_R   0.830010 0.871670 0.805850 -0.519287
O22   O     O_R   0.574600 0.238480 0.197800 -0.500811
O23   O     O_R   0.269900 0.564540 0.196060 -0.518789
O24   O     O_R   0.425400 0.238480 0.802200 -0.498152
O25   O     O_R   0.074600 0.738480 0.197800 -0.501326
O26   O     O_R   0.925400 0.738480 0.802200 -0.504373
O27   O     O_R   0.566130 0.068680 0.194240 -0.516478
O28   O     O_R   0.433870 0.068680 0.805760 -0.520988
O29   O     O_R   0.066130 0.568680 0.194240 -0.515463
O30   O     O_R   0.933870 0.568680 0.805760 -0.523804
O31   O     O_R   0.680610 0.992490 0.199570 -0.500846
O32   O     O_R   0.319390 0.992490 0.800430 -0.496619
O33   O     O_R   0.180610 0.492490 0.199570 -0.494247
O34   O     O_R   0.730100 0.564540 0.803940 -0.514523
O35   O     O_R   0.819390 0.492490 0.800430 -0.506708
O36   O     O_R   0.770060 0.065440 0.307230 -0.515217
O37   O     O_R   0.229940 0.065440 0.692770 -0.521529
O38   O     O_R   0.270060 0.565440 0.307230 -0.521297
O39   O     O_R   0.729940 0.565440 0.692770 -0.525122
O40   O     O_R   0.750960 0.274920 0.302300 -0.495423
O41   O     O_R   0.249040 0.274920 0.697700 -0.505125
O42   O     O_R   0.250960 0.774920 0.302300 -0.504924
O43   O     O_R   0.749040 0.774920 0.697700 -0.506334
O44   O     O_R   0.670160 0.372580 0.305320 -0.521109
O45   O     O_R   0.574760 0.239320 0.300850 -0.508740
O46   O     O_R   0.329840 0.372580 0.694680 -0.523814
O47   O     O_R   0.170160 0.872580 0.305320 -0.522433
O48   O     O_R   0.829840 0.872580 0.694680 -0.521327
O49   O     O_R   0.425240 0.239320 0.699150 -0.504978
O50   O     O_R   0.074760 0.739320 0.300850 -0.504826
O51   O     O_R   0.925240 0.739320 0.699150 -0.503638
O52   O     O_R   0.566290 0.069580 0.305400 -0.522681

loop_
_geom_bond_atom_site_label_1
_geom_bond_atom_site_label_2
_ccdc_geom_bond_type
C21   C26   A    
C34   C56   A    
C50   C63   A    
Cr9   O49   S    
C132  C150  A    
C107  C112  A    
C123  H6    S    
C16   H30   S    
C51   H52   S    
C120  C144  S    
Cr6   O11   S    
C136  C140  A    
C117  C133  S    
C79   C87   A    
C7    H20   S    
C135  C139  A    
C5    H18   S    
C43   C61   A    
C72   O7    A    
C131  H81   S    
C97   C124  A    
C138  H78   S    
C95   C99   A    
Cr11  O51   S    
C75   C122  A    
C29   C33   A    
C126  C143  A    
Cr7   O17   S    
C137  C141  A    
C91   H68   S    
Cr5   O12   S    
C142  H92   S    
C98   C169  S    
Cr7   O43   S    
C162  C171  A    
Cr9   O24   S    
C68   C90   A    
C106  H86   S    
C25   C60   S    
C36   H32   S    
C81   C86   A    
C99   H71   S    
C72   O38   A    
C14   H28   S    
C80   C83   A    
C2    H62   S    
C42   O43   A    
Cr12  O5    S    
C73   O39   A    
C25   C29   A    
C109  C145  S    
C27   C31   A    
C1    O14   A    
C28   C32   A    
C47   C64   A    
C111  O17   A    
C76   H34   S    
C17   C21   A    
C135  H45   S    
Cr8   O44   S    
C28   H55   S    
C120  O30   A    
C108  C113  A    
C100  O20   A    
C19   C23   A    
Cr7   O34   S    
Cr3   O29   S    
Cr5   O37   S    
C39   O40   A    
C156  C160  A    
C16   C20   A    
C31   H59   S    
C164  C173  A    
Cr8   O22   S    
Cr10  O11   S    
C4    H19   S    
C127  C145  A    
C89   C150  S    
C22   C27   A    
Cr1   O14   S    
C36   C44   A    
C37   C45   A    
C52   H44   S    
C170  C174  A    
C152  C157  A    
C49   C62   A    
C114  H2    S    
Cr9   O19   S    
Cr10  O20   S    
C51   C64   A    
C140  H90   S    
C140  C145  A    
C22   C58   S    
C66   C153  S    
C53   C58   A    
C138  C151  A    
C85   F3    S    
C82   C85   A    
C76   C155  A    
C86   F4    S    
Cr12  O27   S    
C70   O36   A    
C133  C166  A    
Cr1   O1    S    
C165  O31   A    
C67   O50   A    
C77   C82   A    
C49   C53   A    
C134  C151  A    
Cr3   O3    S    
C73   O8    A    
C51   C55   A    
C127  C131  A    
C129  C147  A    
C81   C88   A    
C169  O35   A    
C48   C52   A    
C69   O4    A    
C117  O22   A    
Cr12  O52   S    
C103  C107  A    
Cr8   O45   S    
C111  C148  S    
Cr4   O4    S    
Cr6   O38   S    
C41   O47   A    
C162  H24   S    
C85   C86   A    
Cr6   O23   S    
C23   C59   S    
C6    H21   S    
C124  H7    S    
Cr4   O8    S    
C67   C154  S    
C167  O32   A    
Cr12  O31   S    
C13   C57   A    
C170  C171  S    
C118  C122  S    
C165  O1    A    
C153  C158  A    
C24   H64   S    
C13   H65   S    
C139  C143  A    
C98   C125  A    
C7    C156  A    
Cr4   O13   S    
C104  H84   S    
C134  H83   S    
C17   H40   S    
C54   C59   A    
C137  H67   S    
C4    C152  A    
C71   O37   A    
C69   C156  S    
Cr5   O15   S    
Cr6   O16   S    
C66   O2    A    
C50   H51   S    
C110  C146  S    
C91   C92   A    
C68   C94   A    
C41   O42   A    
C29   H57   S    
Cr11  O26   S    
C44   H37   S    
C83   C84   A    
C8    C12   A    
C166  H63   S    
Cr1   O36   S    
C23   C28   A    
C37   C59   A    
C109  C114  A    
C38   C60   A    
C114  C123  A    
C163  H25   S    
Cr1   O40   S    
C26   C30   A    
C116  C125  A    
C119  O25   A    
C137  C150  A    
C157  H9    S    
C45   H38   S    
C19   H42   S    
C75   H1    S    
C112  C116  A    
C65   O45   A    
C34   H31   S    
C46   C87   A    
C167  O12   A    
C111  O21   A    
C105  C109  A    
C96   C123  A    
C18   C22   A    
C120  O26   A    
C142  C147  A    
C89   O15   A    
Cr2   O28   S    
C34   C43   A    
C39   O44   A    
C11   C33   A    
C97   C168  S    
C8    C70   S    
C112  C147  S    
C154  C159  A    
C65   O52   A    
C128  C146  A    
C74   H12   S    
C35   C79   A    
C1    O18   A    
C40   O41   A    
C89   O19   A    
C116  H4    S    
C113  C121  A    
C101  H72   S    
C96   C101  A    
C172  C176  A    
C38   H35   S    
C10   C72   S    
C161  H22   S    
C117  O27   A    
Cr1   O9    S    
C118  O28   A    
Cr2   O6    S    
C168  O23   A    
Cr3   O11   S    
Cr2   O32   S    
C136  C149  A    
Cr2   O2    S    
C15   C19   A    
C39   C64   S    
C50   C54   A    
C40   C63   S    
Cr10  O25   S    
C160  C164  A    
C54   H47   S    
C93   H70   S    
C3    C7    A    
C46   C92   A    
C20   C25   A    
C126  C130  A    
C98   C103  A    
C35   C166  A    
C176  H17   S    
C136  H56   S    
Cr11  O48   S    
C125  H8    S    
C102  H73   S    
C12   C17   A    
C71   O6    A    
C55   H48   S    
C97   C102  A    
C95   C121  A    
C37   H33   S    
C99   C104  A    
C4    C174  A    
C55   C60   A    
C5    C175  A    
C41   C62   S    
C95   C165  S    
C40   O46   A    
C2    C122  A    
C127  H76   S    
C168  O33   A    
C139  H88   S    
C138  C142  A    
Cr9   O46   S    
C9    C14   A    
C11   C16   A    
Cr11  O21   S    
C20   H43   S    
C96   C167  S    
C6    C154  A    
C169  O34   A    
C88   C90   A    
C11   C73   S    
C174  H15   S    
C157  C161  A    
C104  C108  A    
C77   H23   S    
C164  H26   S    
C115  H3    S    
C115  C124  A    
C83   F1    S    
C9    C71   S    
C21   C56   S    
C92   H66   S    
C100  C149  S    
C82   C90   A    
C8    C30   A    
C24   C144  A    
C1    C151  S    
C24   C68   A    
C129  C134  A    
C94   H69   S    
C74   C78   A    
C175  H14   S    
C110  C115  A    
Cr7   O13   S    
C108  C143  S    
C113  H89   S    
Cr7   O39   S    
C93   C94   A    
C105  H85   S    
C128  H77   S    
C14   C18   A    
C107  H87   S    
C49   H50   S    
C18   H41   S    
C2    C46   A    
Cr4   O30   S    
C129  H79   S    
C3    H16   S    
C80   C87   A    
C36   C58   A    
C10   C15   A    
C69   O51   A    
C47   H39   S    
Cr10  O50   S    
C74   C133  A    
C103  H74   S    
C66   O49   A    
C13   C155  A    
C67   O3    A    
C160  H13   S    
C3    C173  A    
C141  H91   S    
C118  O24   A    
Cr2   O10   S    
C119  O29   A    
C84   F2    S    
C100  O16   A    
C75   C80   A    
C12   H27   S    
C42   O48   A    
Cr12  O9    S    
Cr3   O33   S    
C26   H53   S    
Cr5   O41   S    
C57   C93   A    
C128  C132  A    
C101  C105  A    
C130  C148  A    
C70   O5    A    
Cr5   O10   S    
C27   H54   S    
C9    C31   A    
C78   C79   A    
C44   C62   A    
C171  C175  A    
C45   C63   A    
C30   H58   S    
C15   H29   S    
C53   H46   S    
C163  C172  A    
C10   C32   A    
C130  H80   S    
Cr8   O9    S    
C159  H11   S    
C132  H82   S    
Cr3   O7    S    
C42   C61   S    
C121  H5    S    
C38   C47   A    
C161  C170  A    
C141  C146  A    
Cr10  O47   S    
C158  H10   S    
C159  C163  A    
C126  H75   S    
C172  C173  S    
C106  C110  A    
C119  C155  S    
C48   H49   S    
C76   C81   A    
C32   H60   S    
Cr6   O42   S    
C57   C88   A    
C65   C152  S    
C33   H61   S    
C77   C144  A    
Cr11  O13   S    
C43   H36   S    
C48   C61   A    
C6    C176  A    
C5    C153  A    
C102  C106  A    
C131  C149  A    
C158  C162  A    
C78   C84   A    
C135  C148  A    
Cr9   O10   S    
C52   C56   A    
Cr8   O18   S    
Cr4   O35   S    
C35   C91   A    
