data_mof_unit_16894.cif
_audit_creation_date              2012-10-26T18:47:34-0400
_audit_creation_method            fapswitch 2.2
_symmetry_space_group_name_H-M    P1
_symmetry_Int_Tables_number       1
_space_group_crystal_system       triclinic
_cell_length_a                    10.923947
_cell_length_b                    12.951543
_cell_length_c                    11.718647
_cell_angle_alpha                 99.856452
_cell_angle_beta                  95.264037
_cell_angle_gamma                 90.519134
_cell_volume                      1626.09737333

loop_
_atom_site_label
_atom_site_type_symbol
_atom_type_description
_atom_site_fract_x
_atom_site_fract_y
_atom_site_fract_z
_atom_type_partial_charge
C1    C     C_R   0.505075 0.299522 0.478826 0.570941
C2    C     C_R   0.408609 0.981248 0.621148 -0.160403
C3    C     C_R   0.586995 0.127295 0.384592 -0.004574
C4    C     C_R   0.413017 0.872706 0.615413 -0.004607
C5    C     C_R   0.458949 0.137265 0.546421 -0.161386
C6    C     C_R   0.541063 0.862735 0.453583 -0.161391
C7    C     C_R   0.467045 0.029831 0.542398 0.032889
C8    C     C_R   0.532968 0.970170 0.457607 0.032889
C9    C     C_R   0.440253 0.371422 0.019741 -0.176533
C10   C     C_R   0.559734 0.628582 0.980259 -0.176515
C11   C     C_R   0.438247 0.387503 0.141615 0.066040
C12   C     C_R   0.494929 0.700479 0.521174 0.570891
C13   C     C_R   0.561742 0.612501 0.858385 0.066089
C14   C     C_R   0.517738 0.560314 0.157941 0.062537
C15   C     C_R   0.482263 0.439686 0.842059 0.062666
C16   C     C_R   0.261987 0.495349 0.498004 0.553933
C17   C     C_R   0.738010 0.504669 0.502001 0.553893
C18   C     C_R   0.519373 0.547957 0.034978 0.000375
C19   C     C_R   0.480623 0.452044 0.965022 0.000423
C20   C     C_R   0.193751 0.620481 0.152864 -0.115008
C21   C     C_R   0.806350 0.379796 0.847336 -0.115096
C22   C     C_R   0.151175 0.621883 0.262538 0.054586
C23   C     C_R   0.872832 0.509617 0.505628 -0.052458
C24   C     C_R   0.848886 0.378320 0.737633 0.054346
C25   C     C_R   0.101944 0.528192 0.288718 0.115698
C26   C     C_R   0.898076 0.471984 0.711351 0.115475
C27   C     C_R   0.095387 0.436339 0.205215 -0.032696
C28   C     C_R   0.904620 0.563888 0.794777 -0.032670
C29   C     C_R   0.137824 0.435603 0.096367 0.022339
C30   C     C_R   0.862217 0.564699 0.903652 0.022297
C31   C     C_R   0.187230 0.528278 0.070509 -0.072766
C32   C     C_R   0.812868 0.472047 0.929618 -0.072783
C33   C     C_R   0.927298 0.536774 0.410061 0.001434
C34   C     C_R   0.127160 0.490454 0.494396 -0.052399
C35   C     C_R   0.072693 0.463353 0.589993 0.001470
C36   C     C_3   0.160782 0.723167 0.348186 -0.381444
C37   C     C_3   0.839270 0.276991 0.652059 -0.381559
C38   C     C_3   0.130989 0.334961 0.010625 -0.394074
C39   C     C_3   0.869020 0.665396 0.989303 -0.393988
C40   C     C_2   0.854094 0.587867 0.323034 0.249549
C41   C     C_2   0.145896 0.412405 0.677132 0.249652
C42   C     C_2   0.337658 0.825894 0.693520 0.210416
C43   C     C_2   0.662354 0.174108 0.306486 0.210411
C44   C     C_R   0.947015 0.478390 0.598786 -0.046133
C45   C     C_R   0.052979 0.521711 0.401251 -0.046063
C46   C     C_R   0.482822 0.813488 0.532015 0.005569
C47   C     C_R   0.517188 0.186512 0.467988 0.005600
C48   C     C_R   0.591404 0.018753 0.378858 -0.160401
Cu1   Cu    Cu3+1 0.509250 0.507730 0.615930 0.985698
Cu2   Cu    Cu3+1 0.490750 0.492270 0.384070 0.985565
H1    H     H_    0.222058 0.529457 0.987382 0.180240
H2    H     H_    0.767445 0.309238 0.869101 0.101865
H3    H     H_    0.057059 0.364792 0.225438 0.111493
H4    H     H_    0.942913 0.635416 0.774474 0.111579
H5    H     H_    0.593681 0.817073 0.389426 0.100314
H6    H     H_    0.406329 0.182927 0.610577 0.100304
H7    H     H_    0.643945 0.972347 0.315242 0.084324
H8    H     H_    0.356069 0.027654 0.684764 0.084299
H9    H     H_    0.258236 0.751005 0.364388 0.151015
H10   H     H_    0.105259 0.783265 0.311617 0.111904
H11   H     H_    0.127725 0.715140 0.432977 0.153772
H12   H     H_    0.778084 0.470925 0.012776 0.180179
H13   H     H_    0.741814 0.249152 0.635894 0.151076
H14   H     H_    0.872309 0.284956 0.567241 0.153723
H15   H     H_    0.894806 0.216923 0.688673 0.111803
H16   H     H_    0.180669 0.341427 0.934004 0.180625
H17   H     H_    0.174006 0.271707 0.052376 0.096126
H18   H     H_    0.033358 0.312726 0.981294 0.150576
H19   H     H_    0.819294 0.659000 0.065914 0.180670
H20   H     H_    0.966645 0.687643 0.018656 0.150684
H21   H     H_    0.826027 0.728608 0.947463 0.096084
H22   H     H_    0.795477 0.652556 0.351891 0.081864
H23   H     H_    0.448636 0.366861 0.788282 0.111675
H24   H     H_    0.204232 0.347480 0.648392 0.081620
H25   H     H_    0.316666 0.872714 0.775102 0.086214
H26   H     H_    0.683351 0.127288 0.224906 0.086202
H27   H     H_    0.551366 0.633138 0.211719 0.111727
H28   H     H_    0.593768 0.675958 0.818938 0.125778
H29   H     H_    0.406215 0.324048 0.181061 0.125779
H30   H     H_    0.409927 0.296274 0.968723 0.077603
H31   H     H_    0.590050 0.703732 0.031275 0.077631
H32   H     H_    0.232690 0.691059 0.131177 0.101827
N1    N     N_R   0.523180 0.519350 0.790130 -0.221937
N2    N     N_R   0.476820 0.480650 0.209870 -0.221980
O1    O     O_R   0.506570 0.354460 0.582000 -0.538625
O2    O     O_2   0.146892 0.446438 0.780712 -0.549052
O3    O     O_2   0.292246 0.737750 0.665414 -0.487669
O4    O     O_2   0.707762 0.262254 0.334591 -0.487737
O5    O     O_R   0.493430 0.645540 0.418000 -0.538634
O6    O     O_R   0.490940 0.341410 0.386200 -0.479736
O7    O     O_R   0.509060 0.658590 0.613800 -0.479745
O8    O     O_R   0.327460 0.506540 0.597900 -0.450136
O9    O     O_R   0.672540 0.493460 0.402100 -0.450340
O10   O     O_R   0.311830 0.493480 0.402100 -0.512222
O11   O     O_R   0.688170 0.506520 0.597900 -0.512163
O12   O     O_2   0.853442 0.554243 0.219395 -0.549326

loop_
_geom_bond_atom_site_label_1
_geom_bond_atom_site_label_2
_ccdc_geom_bond_type
C1    O6    A    
C20   H32   S    
C27   C29   A    
C33   C45   A    
C14   C18   A    
C5    H6    S    
C2    C7    A    
C14   N2    A    
C6    H5    S    
C36   H9    S    
Cu2   N2    S    
C7    C8    A    
C4    C46   A    
C15   C19   A    
C41   O2    D    
C5    C47   A    
C3    C43   S    
C42   H25   S    
C17   C23   S    
C43   O4    D    
C24   C26   A    
C18   C19   A    
C3    C48   A    
C34   C35   A    
C14   H27   S    
C12   O7    A    
C16   C34   S    
C41   H24   S    
Cu2   O6    S    
C38   H16   S    
C23   C33   A    
C22   C25   A    
C37   H15   S    
C29   C38   S    
Cu1   O7    S    
C17   O11   A    
C6    C46   A    
C40   O12   D    
C37   H13   S    
C9    C19   A    
C1    O1    A    
C21   C32   A    
C33   C40   S    
C26   C44   S    
Cu1   O1    S    
C12   O5    A    
C48   H7    S    
C12   C46   S    
C31   H1    S    
C5    C7    A    
C28   H4    S    
Cu2   O10   S    
C15   N1    A    
C23   C44   A    
C9    H30   S    
C2    C4    A    
C8    C48   A    
Cu2   O5    S    
C2    H8    S    
C24   C37   S    
C39   H19   S    
C34   C45   A    
Cu1   O11   S    
C35   C44   A    
C9    C11   A    
C11   H29   S    
C15   H23   S    
C20   C22   A    
C16   O8    A    
C17   O9    A    
Cu1   O8    S    
C36   H11   S    
C25   C45   S    
C37   H14   S    
C43   H26   S    
C13   H28   S    
C40   H22   S    
C16   O10   A    
C1    C47   S    
C38   H18   S    
C36   H10   S    
C10   C13   A    
C6    C8    A    
C27   H3    S    
Cu2   O9    S    
C11   N2    A    
C25   C27   A    
C22   C36   S    
C13   N1    A    
C10   H31   S    
C26   C28   A    
Cu1   N1    S    
C28   C30   A    
C32   H12   S    
C29   C31   A    
C30   C32   A    
C4    C42   S    
C10   C18   A    
C3    C47   A    
C39   H20   S    
C30   C39   S    
C35   C41   S    
C38   H17   S    
Cu1   Cu2   S    
C21   C24   A    
C39   H21   S    
C42   O3    D    
C21   H2    S    
C20   C31   A    
