data_mof_unit_6631.cif
_audit_creation_date              2012-12-10T16:47:49-0500
_audit_creation_method            fapswitch 2.2
_symmetry_space_group_name_H-M    P1
_symmetry_Int_Tables_number       1
_space_group_crystal_system       triclinic
_cell_length_a                    7.867912
_cell_length_b                    8.591435
_cell_length_c                    10.618525
_cell_angle_alpha                 92.310392
_cell_angle_beta                  86.082774
_cell_angle_gamma                 93.314922
_cell_volume                      714.425092818

loop_
_atom_site_label
_atom_site_type_symbol
_atom_type_description
_atom_site_fract_x
_atom_site_fract_y
_atom_site_fract_z
_atom_type_partial_charge
C1    C     C_R   0.545044 0.792850 0.486447 0.903739
C2    C     C_2   0.573739 0.953267 0.460852 -0.276458
C3    C     C_2   0.815743 0.623307 0.103492 0.963065
C4    C     C_2   0.423255 0.337412 0.926548 0.909095
C5    C     C_2   0.755035 0.012554 0.457677 1.053547
C6    C     C_2   0.291330 0.987051 0.374932 0.951747
C7    C     C_3   0.980226 0.622952 0.646767 -0.141005
C8    C     C_3   0.087510 0.771901 0.680477 -0.372636
C9    C     C_3   0.005514 0.862715 0.793223 -0.837694
C10   C     C_2   0.439192 0.042562 0.449427 -0.344074
C11   C     C_R   0.501729 0.494397 0.736961 0.868856
C12   C     C_R   0.455828 0.205597 0.488841 0.901992
C13   C     C_R   0.500924 0.517598 0.264293 0.987136
C14   C     C_2   0.642495 0.584558 0.059815 0.040486
C15   C     C_2   0.500451 0.561323 0.135557 -0.312227
C16   C     C_2   0.622940 0.578465 0.925123 -0.281560
C17   C     C_2   0.510913 0.478574 0.869083 -0.162611
H1    H     H_    0.375620 0.561582 0.097519 0.142185
H2    H     H_    0.080333 0.974627 0.808816 0.295125
H3    H     H_    0.215277 0.745315 0.706813 0.264564
H4    H     H_    0.101767 0.847808 0.597875 0.251125
H5    H     H_    0.856434 0.665396 0.632779 0.233283
H6    H     H_    0.971150 0.542964 0.726939 0.207146
H7    H     H_    0.698587 0.664748 0.870045 0.153751
H8    H     H_    0.012105 0.394259 0.395153 0.228265
H9    H     H_    0.068670 0.598761 0.073303 0.331640
H10   H     H_    0.429919 0.162558 0.047285 0.353300
H11   H     H_    0.954064 0.085030 0.559496 0.365457
H12   H     H_    0.193409 0.829744 0.248999 0.360307
H13   H     H_    0.872538 0.888784 0.776704 0.288714
H14   H     H_    0.004857 0.794521 0.879702 0.274402
N1    N     N_2   0.950320 0.457950 0.466680 -0.135446
N2    N     N_2   0.049680 0.542050 0.533320 -0.074911
O1    O     O_R   0.389250 0.738570 0.508180 -0.623587
O2    O     O_R   0.957270 0.562408 0.036142 -0.785593
O3    O     O_2   0.285057 0.287931 0.890893 -0.602493
O4    O     O_R   0.501964 0.256900 0.016485 -0.775733
O5    O     O_2   0.826298 0.055279 0.358135 -0.532275
O6    O     O_R   0.838124 0.027885 0.569870 -0.826180
O7    O     O_2   0.167405 0.065850 0.374124 -0.602158
O8    O     O_R   0.300120 0.852587 0.296455 -0.782684
O9    O     O_R   0.678390 0.711630 0.486820 -0.632046
O10   O     O_R   0.355470 0.513470 0.691600 -0.605295
O11   O     O_R   0.644610 0.486520 0.670240 -0.647997
O12   O     O_R   0.321610 0.288370 0.513180 -0.580874
O13   O     O_R   0.610750 0.261430 0.491820 -0.601581
O14   O     O_R   0.355390 0.513480 0.329760 -0.607391
O15   O     O_R   0.644530 0.486530 0.308400 -0.589647
O16   O     O_2   0.835405 0.712239 0.194885 -0.607542
Zn1   Zn    Zn3+2 0.306940 0.517990 0.514260 0.998296
Zn2   Zn    Zn3+2 0.693060 0.482010 0.485740 1.014473

loop_
_geom_bond_atom_site_label_1
_geom_bond_atom_site_label_2
_ccdc_geom_bond_type
C6    C10   S    
C13   O15   A    
C16   H7    S    
C4    O3    D    
N1    Zn2   S    
C11   O10   A    
C15   H1    S    
C7    H5    S    
H9    O2    S    
C3    O2    S    
O9    Zn2   S    
N1    N2    D    
H8    N1    S    
C5    O6    S    
C8    H4    S    
C3    O16   D    
C11   O11   A    
O10   Zn1   S    
C5    O5    D    
C7    N2    S    
C8    H3    S    
C3    C14   S    
C10   C12   S    
O12   Zn1   S    
H10   O4    S    
C7    H6    S    
C4    C17   S    
C9    H13   S    
O11   Zn2   S    
C1    O1    A    
O14   Zn1   S    
C14   C16   S    
C13   C15   S    
C6    O7    D    
O1    Zn1   S    
C2    C5    S    
C16   C17   D    
C9    H14   S    
C2    C10   D    
C1    O9    A    
C7    C8    S    
C4    O4    S    
C12   O13   A    
C1    C2    S    
C13   O14   A    
C14   C15   D    
C8    C9    S    
H11   O6    S    
H12   O8    S    
N2    Zn1   S    
O13   Zn2   S    
C9    H2    S    
O15   Zn2   S    
C11   C17   S    
C12   O12   A    
C6    O8    S    
