data_mof_unit_66082.cif
_audit_creation_date              2012-12-11T17:44:49-0500
_audit_creation_method            fapswitch 2.2
_symmetry_space_group_name_H-M    P1
_symmetry_Int_Tables_number       1
_space_group_crystal_system       triclinic
_cell_length_a                    8.214027
_cell_length_b                    12.724888
_cell_length_c                    14.920549
_cell_angle_alpha                 97.469871
_cell_angle_beta                  97.755865
_cell_angle_gamma                 98.614837
_cell_volume                      1509.76532462

loop_
_atom_site_label
_atom_site_type_symbol
_atom_type_description
_atom_site_fract_x
_atom_site_fract_y
_atom_site_fract_z
_atom_type_partial_charge
Ba1   Ba    Ba6+2 0.843760 0.550230 0.455610 1.639390
Ba2   Ba    Ba6+2 0.346080 0.449860 0.544400 1.633898
C1    C     C_3   0.518281 0.906775 0.184270 -0.417807
C2    C     C_R   0.108947 0.467440 0.206816 0.057697
C3    C     C_R   0.919107 0.475303 0.765284 -0.287459
C4    C     C_3   0.069708 0.768061 0.202852 0.369291
C5    C     C_R   0.819720 0.438512 0.827313 0.015760
C6    C     C_R   0.884042 0.446456 0.919643 -0.155958
C7    C     C_R   0.051048 0.493926 0.953443 0.009047
C8    C     C_R   0.148790 0.538515 0.890283 -0.019719
C9    C     C_R   0.122955 0.500819 0.048248 0.007396
C10   C     C_R   0.291010 0.553573 0.077965 -0.022472
C11   C     C_R   0.381064 0.598215 0.014915 -0.104581
C12   C     C_3   0.581591 0.826871 0.242008 0.341527
C13   C     C_R   0.310378 0.592018 0.924441 -0.053766
C14   C     C_R   0.035334 0.455963 0.114496 -0.137124
C15   C     C_R   0.271597 0.521325 0.233882 -0.292626
C16   C     C_3   0.031192 0.793457 0.106129 -0.372688
C17   C     C_R   0.081847 0.528908 0.794772 0.042320
C18   C     C_R   0.772342 0.180565 0.533925 -0.273266
C19   C     C_R   0.418922 0.808954 0.463930 -0.267580
C20   C     C_R   0.388892 0.985533 0.428709 -0.116835
C21   C     C_R   0.322546 0.877901 0.424847 -0.023614
C22   C     C_R   0.578914 0.847911 0.512913 0.078302
C23   C     C_3   0.411212 0.282858 0.265770 0.310138
C24   C     C_R   0.645847 0.959571 0.520755 -0.037796
C25   C     C_R   0.549390 0.028444 0.476891 -0.056528
C26   C     C_R   0.614737 0.139199 0.484138 0.036029
C27   C     C_R   0.871121 0.113634 0.572851 -0.011004
C28   C     C_3   0.373029 0.789602 0.722990 0.727572
C29   C     C_R   0.806500 0.004691 0.569354 -0.093896
C30   C     C_3   0.489158 0.809371 0.814483 -0.246745
C31   C     C_3   0.929659 0.219700 0.346224 0.281376
C32   C     C_3   0.906658 0.097996 0.323973 -0.357614
C33   C     C_3   0.809040 0.708479 0.730160 0.291440
C34   C     C_3   0.363290 0.249113 0.162780 -0.394688
C35   C     C_3   0.905565 0.759926 0.824392 -0.389767
C36   C     C_3   0.217607 0.885077 0.631614 0.249194
C37   C     C_3   0.120914 0.224593 0.795106 0.361895
C38   C     C_3   0.159372 0.196275 0.890784 -0.360177
C39   C     C_3   0.604920 0.174365 0.751047 0.364823
C40   C     C_3   0.658755 0.086064 0.800872 -0.371627
C41   C     C_R   0.365042 0.561408 0.170553 -0.005183
H1    H     H_    0.684298 0.870035 0.296444 0.078068
H2    H     H_    0.895962 0.675676 0.688316 0.060732
H3    H     H_    0.710469 0.641715 0.737681 0.020494
H4    H     H_    0.473984 0.970488 0.228182 0.104474
H5    H     H_    0.004630 0.826560 0.817339 0.151911
H6    H     H_    0.962960 0.700081 0.859334 0.062127
H7    H     H_    0.823131 0.793414 0.869258 0.100598
H8    H     H_    0.477521 0.792856 0.275772 -0.049432
H9    H     H_    0.413548 0.864618 0.130688 0.111394
H10   H     H_    0.300891 0.305801 0.293743 0.016936
H11   H     H_    0.513678 0.353293 0.278719 0.060466
H12   H     H_    0.542941 0.736993 0.825005 0.030232
H13   H     H_    0.257773 0.180491 0.147635 0.126557
H14   H     H_    0.324970 0.317116 0.130389 0.060910
H15   H     H_    0.471329 0.224647 0.133082 0.127776
H16   H     H_    0.619373 0.944242 0.150257 0.129966
H17   H     H_    0.057905 0.728165 0.056141 0.069667
H18   H     H_    0.199432 0.302886 0.792732 0.092113
H19   H     H_    0.987504 0.232728 0.782463 -0.070553
H20   H     H_    0.293358 0.190364 0.906832 0.153774
H21   H     H_    0.130452 0.259608 0.941885 0.067681
H22   H     H_    0.082784 0.118062 0.895442 0.107760
H23   H     H_    0.595366 0.873988 0.815515 0.103167
H24   H     H_    0.712422 0.208725 0.719846 -0.068492
H25   H     H_    0.499619 0.139062 0.695279 0.100908
H26   H     H_    0.766519 0.119847 0.855466 0.094926
H27   H     H_    0.696007 0.024200 0.751795 0.098752
H28   H     H_    0.987170 0.692153 0.207607 0.093788
H29   H     H_    0.553935 0.049572 0.832768 0.153141
H30   H     H_    0.328395 0.528113 0.304624 0.072526
H31   H     H_    0.508720 0.638563 0.034112 0.104932
H32   H     H_    0.910738 0.410788 0.096676 0.088255
H33   H     H_    0.865951 0.467454 0.693852 0.072225
H34   H     H_    0.421955 0.832707 0.871803 0.072903
H35   H     H_    0.799930 0.415448 0.963128 0.080963
H36   H     H_    0.387476 0.627202 0.881076 0.097667
H37   H     H_    0.310670 0.035081 0.396034 0.104401
H38   H     H_    0.883828 0.956598 0.603762 0.084725
H39   H     H_    0.822456 0.265027 0.538072 0.061117
H40   H     H_    0.201604 0.756604 0.215165 -0.072894
H41   H     H_    0.365459 0.725154 0.460186 0.070198
H42   H     H_    0.897713 0.800605 0.090072 0.149268
H43   H     H_    0.109158 0.870376 0.099470 0.110696
H44   H     H_    0.425604 0.742699 0.669665 -0.010058
H45   H     H_    0.816387 0.243282 0.369024 0.002209
H46   H     H_    0.187478 0.807931 0.583320 0.019544
H47   H     H_    0.240299 0.949791 0.590788 0.084606
H48   H     H_    0.110631 0.896914 0.667537 0.081186
H49   H     H_    0.037385 0.246840 0.401889 0.080404
H50   H     H_    0.797940 0.068434 0.269392 0.114386
H51   H     H_    0.884963 0.060869 0.385327 0.085971
H52   H     H_    0.019991 0.073778 0.300238 0.143838
O1    O     O_2   0.827930 0.435360 0.277760 -0.456614
O2    O     O_2   0.207375 0.121589 0.561362 -0.491610
O3    O     O_3   0.156305 0.143510 0.730810 -0.594199
O4    O     O_3   0.100310 0.439010 0.391180 -0.500261
O5    O     O_3   0.587770 0.631830 0.546230 -0.488505
O6    O     O_2   0.332600 0.233710 0.456170 -0.463664
O7    O     O_3   0.463060 0.196394 0.304681 -0.649593
O8    O     O_2   0.478975 0.442782 0.825029 -0.490642
O9    O     O_3   0.551635 0.249372 0.813668 -0.599090
O10   O     O_3   0.625610 0.634200 0.333270 -0.475675
O11   O     O_2   0.705663 0.553583 0.174301 -0.492742
O12   O     O_3   0.736427 0.787352 0.690221 -0.655860
O13   O     O_3   0.955556 0.263115 0.266938 -0.634995
O14   O     O_3   0.643653 0.749673 0.185607 -0.599805
O15   O     O_2   0.857120 0.766320 0.543890 -0.478312
O16   O     O_3   0.056570 0.691100 0.379020 -0.483804
O17   O     O_2   0.986371 0.881804 0.434799 -0.497308
O18   O     O_3   0.360746 0.891250 0.696752 -0.708511
O19   O     O_3   0.041036 0.853118 0.265591 -0.597315
O20   O     O_2   0.361790 0.564680 0.722290 -0.495352
O21   O     O_3   0.089410 0.561080 0.608830 -0.483754
O22   O     O_3   0.564100 0.365890 0.666740 -0.471607
O23   O     O_3   0.216154 0.736855 0.734738 -0.690108
O24   O     O_3   0.601940 0.368260 0.453780 -0.479669
O25   O     O_3   0.133140 0.308990 0.620990 -0.481631
P1    P     P_3+3 0.998770 0.403620 0.291990 0.980067
P2    P     P_3+3 0.687370 0.751000 0.571300 0.968077
P3    P     P_3+3 0.102427 0.828087 0.376801 0.945321
P4    P     P_3+3 0.190950 0.596470 0.708020 0.936230
P5    P     P_3+3 0.089987 0.170552 0.620904 0.944159
P6    P     P_3+3 0.584737 0.622039 0.214533 0.951627
P7    P     P_3+3 0.506460 0.232720 0.423782 0.933944
P8    P     P_3+3 0.603015 0.377418 0.784950 0.965716

loop_
_geom_bond_atom_site_label_1
_geom_bond_atom_site_label_2
_ccdc_geom_bond_type
C12   O14   S    
C6    H35   S    
C27   P5    S    
C14   H32   S    
C39   C40   S    
C32   H50   S    
O13   P1    S    
Ba1   O4    S    
C5    C6    A    
C39   H24   S    
C36   H46   S    
C24   C25   A    
C16   H43   S    
C38   H20   S    
O1    P1    D    
C12   H1    S    
C33   C35   S    
C31   H45   S    
C22   C24   A    
C10   C41   A    
C18   H39   S    
C8    C13   A    
O24   P7    S    
Ba1   O24   S    
C23   O7    S    
C40   H27   S    
C41   P6    S    
Ba1   Ba2   S    
Ba2   O20   S    
Ba1   P2    S    
C4    O19   S    
C30   H34   S    
Ba2   O21   S    
O3    P5    S    
C13   H36   S    
Ba2   O24   S    
C6    C7    A    
O20   P4    D    
Ba1   O21   S    
C5    P8    S    
C7    C8    A    
C30   H12   S    
C26   P7    S    
O4    P1    S    
Ba2   O5    S    
C24   C29   A    
C15   H30   S    
C31   O13   S    
C4    C16   S    
Ba1   O5    S    
C40   H29   S    
Ba2   O22   S    
C39   H25   S    
C18   C27   A    
C4    H28   S    
C37   H18   S    
C17   P4    S    
C16   H42   S    
O16   P3    S    
C23   H11   S    
O17   P3    D    
O2    P5    D    
C34   H14   S    
C31   H49   S    
C37   C38   S    
C3    C5    A    
C36   O18   S    
Ba2   O25   S    
O25   P5    S    
C37   O3    S    
C21   P3    S    
C18   C26   A    
Ba2   O6    S    
C36   H48   S    
C40   H26   S    
C2    C14   A    
C15   C41   A    
C34   H13   S    
Ba1   O15   S    
C35   H6    S    
C9    C14   A    
C12   H8    S    
O9    P8    S    
C19   H41   S    
C8    C17   A    
C9    C10   A    
C22   P2    S    
C31   C32   S    
O23   P4    S    
C32   H52   S    
C35   H5    S    
O8    P8    D    
C7    C9    A    
C1    C12   S    
O19   P3    S    
O10   P6    S    
C16   H17   S    
Ba2   O4    S    
O7    P7    S    
C20   C25   A    
C11   C13   A    
C2    C15   A    
C33   H2    S    
C30   H23   S    
C37   H19   S    
C36   H47   S    
C4    H40   S    
O21   P4    S    
C32   H51   S    
C23   H10   S    
C29   H38   S    
C1    H9    S    
C3    C17   A    
Ba2   P4    S    
C28   O23   S    
O11   P6    D    
C34   H15   S    
C38   H21   S    
C39   O9    S    
C38   H22   S    
C3    H33   S    
C19   C21   A    
C20   H37   S    
C27   C29   A    
O15   P2    D    
C28   C30   S    
C35   H7    S    
Ba1   O1    S    
C1    H4    S    
O6    P7    D    
C2    P1    S    
O5    P2    S    
O22   P8    S    
Ba1   P1    S    
C33   O12   S    
C23   C34   S    
O14   P6    S    
C10   C11   A    
C19   C22   A    
C25   C26   A    
C20   C21   A    
O12   P2    S    
C28   H44   S    
C33   H3    S    
Ba1   O16   S    
Ba1   O10   S    
C11   H31   S    
C28   O18   S    
C1    H16   S    
