data_mof_unit_66568.cif
_audit_creation_date              2012-12-11T17:19:06-0500
_audit_creation_method            fapswitch 2.2
_symmetry_space_group_name_H-M    P1
_symmetry_Int_Tables_number       1
_space_group_crystal_system       triclinic
_cell_length_a                    15.133336
_cell_length_b                    7.26565
_cell_length_c                    13.113625
_cell_angle_alpha                 89.649562
_cell_angle_beta                  100.553445
_cell_angle_gamma                 90.338961
_cell_volume                      1417.45559461

loop_
_atom_site_label
_atom_site_type_symbol
_atom_type_description
_atom_site_fract_x
_atom_site_fract_y
_atom_site_fract_z
_atom_type_partial_charge
O1    O     O_R   0.648180 0.355050 0.151550 -0.528883
O2    O     O_R   0.351820 0.644950 0.848450 -0.528883
O3    O     O_R   0.851820 0.855050 0.348450 -0.546320
O4    O     O_R   0.148180 0.144950 0.651550 -0.546320
O5    O     O_R   0.835240 0.681980 0.154280 -0.538714
O6    O     O_R   0.164760 0.318020 0.845720 -0.538714
O7    O     O_R   0.664760 0.181980 0.345720 -0.529069
O8    O     O_R   0.335240 0.818020 0.654280 -0.529069
H1    H     H_    0.636995 0.045110 0.857001 0.186652
H2    H     H_    0.363005 0.954890 0.142999 0.186652
H3    H     H_    0.862642 0.458990 0.642871 0.177085
H4    H     H_    0.137358 0.541009 0.357129 0.177085
C1    C     C_R   0.858179 0.516275 0.126213 0.688588
C2    C     C_R   0.141821 0.483725 0.873787 0.688589
C3    C     C_R   0.642052 0.014428 0.373978 0.697504
C4    C     C_R   0.357947 0.985572 0.626022 0.697504
O9    O     O_R   0.647870 0.684600 0.139630 -0.526318
O10   O     O_R   0.352130 0.315400 0.860370 -0.526319
O11   O     O_R   0.852130 0.184600 0.360370 -0.526834
O12   O     O_R   0.147870 0.815400 0.639630 -0.526833
O13   O     O_R   0.663110 0.857440 0.333700 -0.529466
O14   O     O_R   0.336890 0.142560 0.666300 -0.529466
O15   O     O_R   0.836890 0.357440 0.166300 -0.527512
O16   O     O_R   0.163110 0.642560 0.833700 -0.527512
C5    C     C_R   0.613550 0.516351 0.115406 0.790371
C6    C     C_R   0.386450 0.483649 0.884594 0.790370
C7    C     C_R   0.886663 0.016548 0.384194 0.752954
C8    C     C_R   0.113337 0.983452 0.615806 0.752955
H5    H     H_    0.487920 0.035583 0.765826 0.122848
H6    H     H_    0.512080 0.964417 0.234174 0.122848
H7    H     H_    0.011314 0.455945 0.734430 0.114225
H8    H     H_    0.988686 0.544054 0.265570 0.114225
O17   O     O_3   0.755220 0.522230 0.313690 -0.370142
O18   O     O_3   0.244780 0.477770 0.686310 -0.370142
O19   O     O_3   0.744780 0.022230 0.186310 -0.370756
O20   O     O_3   0.255220 0.977770 0.813690 -0.370756
V1    V     V_3+5 0.749030 0.796100 0.238190 1.507126
V2    V     V_3+5 0.250970 0.203900 0.761810 1.507127
V3    V     V_3+5 0.750970 0.296100 0.261810 1.545946
V4    V     V_3+5 0.249030 0.703900 0.738190 1.545947
C9    C     C_1   0.966931 0.005776 0.465562 -0.117242
C10   C     C_1   0.033069 0.994224 0.534438 -0.117242
C11   C     C_1   0.533287 0.505664 0.034144 -0.070134
C12   C     C_1   0.466712 0.494336 0.965856 -0.070134
C13   C     C_R   0.539553 0.026459 0.719078 -0.155547
C14   C     C_R   0.460447 0.973541 0.280922 -0.155547
C15   C     C_R   0.959820 0.470309 0.781066 -0.159740
C16   C     C_R   0.040180 0.529691 0.218933 -0.159741
C17   C     C_R   0.626559 0.032833 0.773356 -0.108072
C18   C     C_R   0.373440 0.967167 0.226644 -0.108072
C19   C     C_R   0.872924 0.471126 0.726527 -0.089375
C20   C     C_R   0.127076 0.528873 0.273472 -0.089375
C21   C     C_R   0.698889 0.013535 0.722816 -0.019314
C22   C     C_R   0.301111 0.986465 0.277184 -0.019315
C23   C     C_R   0.800569 0.491550 0.776996 -0.002567
C24   C     C_R   0.199431 0.508450 0.223004 -0.002568
C25   C     C_R   0.682124 0.996429 0.612908 -0.019252
C26   C     C_R   0.317876 0.003571 0.387091 -0.019252
C27   C     C_R   0.817205 0.504167 0.887164 -0.105822
C28   C     C_R   0.182795 0.495833 0.112836 -0.105822
C29   C     C_R   0.592196 0.003000 0.553361 0.011317
C30   C     C_R   0.407804 0.997000 0.446639 0.011317
C31   C     C_R   0.907483 0.500970 0.946668 0.014357
C32   C     C_R   0.092517 0.499030 0.053332 0.014357
C33   C     C_R   0.519747 0.009303 0.609738 0.063096
C34   C     C_R   0.480252 0.990697 0.390262 0.063096
C35   C     C_R   0.979848 0.487569 0.890375 0.083887
C36   C     C_R   0.020152 0.512431 0.109625 0.083887
C37   C     C_R   0.571548 0.001180 0.441534 -0.142691
C38   C     C_R   0.428451 0.998820 0.558466 -0.142691
C39   C     C_R   0.928599 0.510363 0.058431 -0.162926
C40   C     C_R   0.071401 0.489637 0.941568 -0.162925
C41   C     C_2   0.208965 0.992540 0.211319 0.732939
O21   O     O_2   0.194850 0.916231 0.127003 -0.560543
O22   O     O_R   0.139049 0.089231 0.242776 -0.661287
H9    H     H_    0.080971 0.083612 0.190142 0.297635
C42   C     C_2   0.791035 0.007459 0.788681 0.732939
O23   O     O_2   0.805150 0.083769 0.872997 -0.560543
O24   O     O_R   0.860951 0.910767 0.757224 -0.661287
H10   H     H_    0.919029 0.916385 0.809859 0.297635
C43   C     C_2   0.291537 0.501311 0.289076 0.782052
O25   O     O_2   0.303904 0.563019 0.377198 -0.542144
O26   O     O_R   0.363603 0.420672 0.253057 -0.659941
H11   H     H_    0.421414 0.423519 0.306211 0.298754
C44   C     C_2   0.708463 0.498688 0.710924 0.782052
O27   O     O_2   0.696096 0.436980 0.622803 -0.542145
O28   O     O_R   0.636397 0.579329 0.746943 -0.659941
H12   H     H_    0.578586 0.576481 0.693789 0.298754
C45   C     C_2   0.760099 0.961232 0.565409 0.745530
O29   O     O_2   0.814748 0.084526 0.562798 -0.563646
O30   O     O_R   0.776777 0.781409 0.537292 -0.640631
H13   H     H_    0.841114 0.762381 0.528602 0.291616
C46   C     C_2   0.239901 0.038767 0.434591 0.745531
O31   O     O_2   0.185252 0.915473 0.437203 -0.563645
O32   O     O_R   0.223222 0.218591 0.462708 -0.640631
H14   H     H_    0.158886 0.237619 0.471398 0.291616
C47   C     C_2   0.738043 0.515096 0.936338 0.773455
O33   O     O_2   0.697194 0.374371 0.949518 -0.535703
O34   O     O_R   0.704855 0.685587 0.959317 -0.645512
H15   H     H_    0.746143 0.790844 0.948479 0.278164
C48   C     C_2   0.261957 0.484904 0.063661 0.773455
O35   O     O_2   0.302806 0.625630 0.050482 -0.535703
O36   O     O_R   0.295145 0.314413 0.040683 -0.645512
H16   H     H_    0.253858 0.209157 0.051521 0.278165

loop_
_geom_bond_atom_site_label_1
_geom_bond_atom_site_label_2
_ccdc_geom_bond_type
C26   C30   A    
O28   H12   S    
C48   O35   D    
O5    V1    S    
C41   O22   S    
C9    C10   T    
O32   H14   S    
O10   C6    A    
O22   H9    S    
C5    C11   S    
C47   O33   D    
C6    C12   S    
C24   C43   S    
C42   O23   D    
C30   C38   A    
C46   O31   D    
C25   C45   S    
O18   V4    S    
C32   C36   A    
O19   V1    S    
C26   C46   S    
C14   C34   A    
C16   C20   A    
C23   C27   A    
O12   V4    S    
C17   C21   A    
C34   C37   A    
C33   C38   A    
O14   V2    S    
C1    O15   A    
C35   C40   A    
C41   O21   D    
C2    O16   A    
C47   O34   S    
O26   H11   S    
O6    V2    S    
C45   O30   S    
O11   C7    A    
O5    C1    A    
O7    C3    A    
O8    C4    A    
H7    C15   S    
O1    C5    A    
H8    C16   S    
C15   C35   A    
H4    C20   S    
C43   O25   D    
O3    C7    A    
C42   O24   S    
C3    C37   S    
C31   C35   A    
C30   C34   A    
C44   O28   S    
H1    C17   S    
O30   H13   S    
C21   C25   A    
C15   C19   A    
O12   C8    A    
C44   O27   D    
C24   C28   A    
H5    C13   S    
C23   C44   S    
C21   C42   S    
C11   C12   T    
O2    V4    S    
O6    C2    A    
C22   C41   S    
C7    C9    S    
O34   H15   S    
C13   C17   A    
C4    C38   S    
O2    C6    A    
O17   V3    S    
C16   C36   A    
O11   V3    S    
O4    V2    S    
C13   C33   A    
C27   C47   S    
O9    V1    S    
C28   C48   S    
H2    C18   S    
C22   C26   A    
C29   C37   A    
C4    O14   A    
C2    C40   S    
H6    C14   S    
C31   C39   A    
C43   O26   S    
C25   C29   A    
C1    C39   S    
C14   C18   A    
C27   C31   A    
C28   C32   A    
O9    C5    A    
O20   V2    S    
O10   V2    S    
C18   C22   A    
C46   O32   S    
C36   C39   A    
O15   V3    S    
C8    C10   S    
O16   V4    S    
C19   C23   A    
C32   C40   A    
H3    C19   S    
O1    V3    S    
O24   H10   S    
C29   C33   A    
C3    O13   A    
O13   V1    S    
O3    V1    S    
C48   O36   S    
O4    C8    A    
O36   H16   S    
O7    V3    S    
O8    V4    S    
C45   O29   D    
C20   C24   A    
