data_mof_unit_54746.cif
_audit_creation_date              2012-12-11T16:43:17-0500
_audit_creation_method            fapswitch 2.2
_symmetry_space_group_name_H-M    P1
_symmetry_Int_Tables_number       1
_space_group_crystal_system       triclinic
_cell_length_a                    6.926725
_cell_length_b                    23.264389
_cell_length_c                    25.82211
_cell_angle_alpha                 104.748593
_cell_angle_beta                  90.309337
_cell_angle_gamma                 90.474939
_cell_volume                      4023.77068217

loop_
_atom_site_label
_atom_site_type_symbol
_atom_type_description
_atom_site_fract_x
_atom_site_fract_y
_atom_site_fract_z
_atom_type_partial_charge
O1    O     O_R   0.505750 0.453350 0.547660 -0.534904
O2    O     O_R   0.170990 0.432220 0.437590 -0.542139
O3    O     O_R   0.005600 0.546650 0.452340 -0.540264
C1    C     C_R   0.339754 0.415117 0.417644 0.701800
O4    O     O_R   0.175720 0.446240 0.546340 -0.539446
O5    O     O_R   0.010370 0.560770 0.561860 -0.539406
C2    C     C_R   0.344653 0.434448 0.562706 0.704909
O6    O     O_R   0.500990 0.439230 0.438140 -0.539579
O7    O     O_3   0.340820 0.537560 0.504970 -0.368943
V1    V     V_3+5 0.064050 0.493030 0.499080 1.407461
O8    O     O_R   0.680940 0.567780 0.562410 -0.540173
C3    C     C_R   0.850835 0.584139 0.582794 0.713330
O9    O     O_R   0.676210 0.553760 0.453660 -0.543197
C4    C     C_R   0.845135 0.565854 0.437182 0.689464
V2    V     V_3+5 0.564640 0.506970 0.500920 1.406562
O10   O     O_3   0.837740 0.462440 0.495030 -0.366655
C5    C     C_R   0.774130 0.884646 0.122505 -0.160795
H1    H     H_    0.642670 0.903954 0.111896 0.120779
C6    C     C_R   0.762797 0.849112 0.158712 -0.144972
H2    H     H_    0.623456 0.842631 0.175282 0.100585
C7    C     C_R   0.929423 0.823360 0.174170 0.094937
C8    C     C_R   0.107883 0.834156 0.152379 -0.142236
H3    H     H_    0.238780 0.814385 0.162745 0.099483
C9    C     C_R   0.119371 0.869877 0.116240 -0.162437
H4    H     H_    0.259138 0.877144 0.100287 0.119653
C10   C     C_R   0.952560 0.895605 0.100811 -0.054887
C11   C     C_R   0.062186 0.788332 0.251830 -0.152017
H5    H     H_    0.184290 0.818346 0.254592 0.109701
C12   C     C_R   0.049736 0.753261 0.288445 -0.152160
H6    H     H_    0.162770 0.757243 0.318310 0.108387
C13   C     C_R   0.891670 0.714525 0.287235 0.081980
C14   C     C_R   0.746334 0.711879 0.248405 -0.151747
H7    H     H_    0.624240 0.681860 0.245640 0.109883
C15   C     C_R   0.758782 0.746951 0.211791 -0.152148
H8    H     H_    0.645756 0.742968 0.181923 0.108427
C16   C     C_R   0.916872 0.785677 0.212994 0.081921
C17   C     C_R   0.700809 0.665935 0.347803 -0.142163
H9    H     H_    0.569856 0.685697 0.337461 0.099494
C18   C     C_R   0.689436 0.630152 0.383894 -0.162856
H10   H     H_    0.549701 0.622834 0.399838 0.119670
C19   C     C_R   0.856320 0.604428 0.399284 -0.054713
C20   C     C_R   0.034708 0.615462 0.377611 -0.160525
H11   H     H_    0.166228 0.596168 0.388197 0.120685
C21   C     C_R   0.045926 0.651054 0.341451 -0.144497
H12   H     H_    0.185240 0.657584 0.324890 0.100623
C22   C     C_R   0.879226 0.676797 0.326024 0.094963
C23   C     C_R   0.030137 0.638135 0.665659 -0.199977
C24   C     C_R   0.865314 0.632951 0.632559 -0.110414
C25   C     C_R   0.716294 0.674401 0.647224 -0.177971
C26   C     C_R   0.732501 0.721179 0.693758 0.113266
C27   C     C_R   0.898051 0.725943 0.726932 -0.008487
C28   C     C_R   0.047526 0.683880 0.713194 0.075096
C29   C     C_R   0.585434 0.763315 0.707742 -0.155109
C30   C     C_R   0.600436 0.809431 0.754452 -0.200993
C31   C     C_R   0.763427 0.814504 0.787854 0.100578
C32   C     C_R   0.913513 0.772853 0.773940 0.048201
C33   C     C_R   0.078694 0.778113 0.807044 0.059096
C34   C     C_R   0.225281 0.735918 0.793586 -0.226563
C35   C     C_R   0.210942 0.688597 0.747227 0.192155
C36   C     C_R   0.778836 0.860571 0.834894 -0.215344
C37   C     C_R   0.944144 0.866495 0.867903 -0.086526
C38   C     C_R   0.094120 0.825241 0.853415 -0.209027
H13   H     H_    0.144290 0.605938 0.654351 0.156175
H14   H     H_    0.588845 0.670808 0.621995 0.130643
H15   H     H_    0.457627 0.760285 0.682763 0.132845
H16   H     H_    0.483927 0.841035 0.764564 0.132373
H17   H     H_    0.662824 0.892340 0.845434 0.124932
H18   H     H_    0.221552 0.829219 0.878699 0.128040
H19   H     H_    0.351158 0.739628 0.819405 0.131679
C39   C     C_R   0.290891 0.170810 0.139963 -0.194333
C40   C     C_R   0.456817 0.135146 0.131248 -0.105952
C41   C     C_R   0.604011 0.146115 0.170381 -0.208203
C42   C     C_R   0.584777 0.191121 0.218564 0.078796
C43   C     C_R   0.417354 0.226831 0.226456 -0.002501
C44   C     C_R   0.271099 0.216793 0.186799 0.118153
C45   C     C_R   0.728110 0.200981 0.259229 0.200995
C46   C     C_R   0.705660 0.247263 0.306038 -0.237563
C47   C     C_R   0.540944 0.283032 0.313706 0.056075
C48   C     C_R   0.395153 0.272509 0.274137 0.044472
C49   C     C_R   0.227188 0.307785 0.282153 0.100640
C50   C     C_R   0.084411 0.297633 0.242030 -0.178121
C51   C     C_R   0.106218 0.252648 0.194815 -0.139459
C52   C     C_R   0.520029 0.329246 0.360427 -0.200618
C53   C     C_R   0.353092 0.364614 0.368974 -0.085427
C54   C     C_R   0.205859 0.352960 0.329828 -0.224391
H20   H     H_    0.176723 0.162883 0.110011 0.125324
H21   H     H_    0.730951 0.118397 0.163615 0.154376
H22   H     H_    0.817019 0.255169 0.336769 0.129111
H23   H     H_    0.634018 0.337553 0.390437 0.127491
H24   H     H_    0.077480 0.380140 0.335751 0.123354
H25   H     H_    0.954988 0.324285 0.247278 0.129440
H26   H     H_    0.992651 0.245442 0.164757 0.124597
C55   C     C_R   0.276520 0.129173 0.889321 -0.162543
H27   H     H_    0.146914 0.121211 0.909831 0.122780
C56   C     C_R   0.263766 0.164618 0.853029 -0.145008
H28   H     H_    0.125202 0.183444 0.847432 0.101000
C57   C     C_R   0.427425 0.176206 0.825018 0.105271
C58   C     C_R   0.605212 0.151990 0.835278 -0.138632
H29   H     H_    0.734109 0.159069 0.814106 0.098553
C59   C     C_R   0.618368 0.117013 0.872118 -0.164810
H30   H     H_    0.757059 0.098708 0.878555 0.117760
C60   C     C_R   0.453791 0.104766 0.899336 -0.054357
C61   C     C_R   0.563624 0.251137 0.778816 -0.163499
H31   H     H_    0.693916 0.254919 0.802831 0.119190
C62   C     C_R   0.548131 0.285885 0.742040 -0.197950
H32   H     H_    0.667628 0.314837 0.738319 0.128761
C63   C     C_R   0.381216 0.283753 0.710373 0.078270
C64   C     C_R   0.225634 0.246301 0.717085 0.179079
C65   C     C_R   0.243749 0.211148 0.753952 -0.152064
H33   H     H_    0.125821 0.181723 0.757839 0.107455
C66   C     C_R   0.411947 0.213117 0.785293 0.046786
C67   C     C_R   0.331510 0.298629 0.617704 -0.123161
H34   H     H_    0.311593 0.251210 0.601904 0.119216
C68   C     C_R   0.320190 0.335483 0.582573 -0.210825
H35   H     H_    0.287656 0.315942 0.540663 0.109696
C69   C     C_R   0.354614 0.396819 0.600951 -0.039224
C70   C     C_R   0.400967 0.421301 0.655564 0.152425
C71   C     C_R   0.407774 0.383987 0.690788 -0.139689
H36   H     H_    0.440410 0.402797 0.732818 0.114035
C72   C     C_R   0.371462 0.322584 0.672394 0.055243
O11   O     O_R   0.308350 0.060850 0.061810 -0.536899
O12   O     O_R   0.633860 0.053770 0.953650 -0.542666
O13   O     O_R   0.798960 0.939210 0.938150 -0.538876
C73   C     C_R   0.464843 0.066003 0.937185 0.687001
O14   O     O_R   0.638360 0.067800 0.062400 -0.541249
O15   O     O_R   0.803500 0.953330 0.047670 -0.539776
C74   C     C_R   0.469641 0.084881 0.082365 0.711602
O16   O     O_R   0.303810 0.046730 0.952290 -0.539996
O17   O     O_3   0.468430 0.962490 0.995010 -0.368222
V3    V     V_3+5 0.745300 0.006960 0.000930 1.398440
O18   O     O_R   0.132880 0.946160 0.046390 -0.542608
C75   C     C_R   0.963893 0.934122 0.062868 0.693447
O19   O     O_R   0.128380 0.932130 0.937650 -0.542764
C76   C     C_R   0.958458 0.915679 0.917353 0.711343
V4    V     V_3+5 0.244670 0.992930 0.999140 1.399320
O20   O     O_3   0.971670 0.037510 0.005000 -0.368833
N1    N     N_3   0.361322 0.645138 0.734863 -0.676418
H37   H     H_    0.307500 0.606360 0.743128 0.222635
H38   H     H_    0.480393 0.658606 0.760252 0.237294
N2    N     N_3   0.895933 0.163935 0.252991 -0.669467
H39   H     H_    0.851243 0.122129 0.256647 0.220621
H40   H     H_    0.995353 0.180366 0.283952 0.235141
C77   C     C_3   0.036879 0.244925 0.687416 -0.805582
H41   H     H_    0.922631 0.220995 0.703871 0.210351
H42   H     H_    0.986327 0.290912 0.690935 0.215871
H43   H     H_    0.054125 0.221605 0.644620 0.208522
C78   C     C_3   0.440011 0.486897 0.676701 -0.792958
H44   H     H_    0.312622 0.512189 0.668926 0.197349
H45   H     H_    0.469163 0.499070 0.720500 0.204230
H46   H     H_    0.567791 0.500089 0.656465 0.216624

loop_
_geom_bond_atom_site_label_1
_geom_bond_atom_site_label_2
_ccdc_geom_bond_type
C77   H43   S    
C31   C32   A    
C55   H27   S    
C11   C12   A    
C19   C20   A    
C56   H28   S    
C1    O6    A    
C49   C54   A    
C67   C68   A    
C57   C58   A    
V4    O20   S    
C18   C19   A    
C7    C16   S    
C29   C30   A    
C32   C33   A    
N1    H38   S    
C17   H9    S    
C52   C53   A    
C5    C10   A    
C7    C8    A    
C6    C7    A    
N2    H40   S    
C27   C32   A    
O18   V4    S    
C65   C66   A    
C23   H13   S    
C57   C66   S    
C35   N1    S    
V2    O10   S    
C51   H26   S    
C64   C65   A    
C61   C66   A    
C15   H8    S    
C42   C43   A    
C71   H36   S    
O17   V4    S    
O8    V2    S    
O14   V3    S    
C78   H44   S    
C36   H17   S    
C13   C22   S    
C63   C64   A    
C39   C40   A    
O1    V2    S    
C29   H15   S    
O7    V1    S    
C3    C24   S    
C73   O16   A    
C55   C56   A    
C25   H14   S    
C31   C36   A    
O19   V4    S    
C40   C74   S    
C20   C21   A    
C60   C73   S    
C47   C52   A    
C67   H34   S    
C21   C22   A    
C37   C76   S    
C50   C51   A    
C45   C46   A    
C45   N2    S    
C53   C54   A    
C52   H23   S    
C26   C29   A    
C43   C44   A    
O13   C76   A    
C27   C28   A    
C33   C38   A    
C78   H46   S    
C9    H4    S    
C46   H22   S    
O16   V4    S    
C18   H10   S    
O4    C2    A    
C34   H19   S    
C47   C48   A    
C41   C42   A    
C26   C27   A    
C34   C35   A    
C46   C47   A    
O11   V4    S    
C36   C37   A    
C14   C15   A    
C2    C69   S    
O2    C1    A    
C12   H6    S    
C28   C35   A    
C62   C63   A    
C23   C24   A    
C1    C53   S    
O15   C75   A    
C54   H24   S    
C59   C60   A    
C5    H1    S    
C61   C62   A    
N2    H39   S    
O3    C4    A    
C4    C19   S    
C24   C25   A    
C58   H29   S    
O6    V2    S    
C58   C59   A    
C43   C48   A    
O9    V2    S    
O13   V3    S    
O19   C76   A    
C42   C45   A    
C8    C9    A    
C20   H11   S    
O12   C73   A    
O18   C75   A    
C39   H20   S    
C63   C72   S    
C39   C44   A    
C41   H21   S    
C10   C75   S    
C21   H12   S    
C67   C72   A    
O17   V3    S    
C62   H32   S    
C77   H42   S    
C30   C31   A    
C78   H45   S    
O1    C2    A    
C13   C14   A    
V3    O20   S    
C9    C10   A    
C49   C50   A    
C55   C60   A    
O5    V1    S    
C68   C69   A    
O8    C3    A    
C56   C57   A    
C44   C51   A    
C68   H35   S    
C23   C28   A    
C30   H16   S    
C11   C16   A    
N1    H37   S    
C38   H18   S    
C70   C78   S    
C14   H7    S    
C6    H2    S    
O7    V2    S    
O4    V1    S    
C17   C18   A    
O3    V1    S    
V1    O10   S    
C70   C71   A    
O5    C3    A    
C33   C34   A    
C59   H30   S    
C5    C6    A    
O11   C74   A    
C69   C70   A    
C15   C16   A    
C37   C38   A    
C71   C72   A    
C48   C49   A    
C50   H25   S    
C40   C41   A    
C12   C13   A    
C25   C26   A    
C65   H33   S    
C61   H31   S    
O14   C74   A    
O15   V3    S    
C8    H3    S    
C17   C22   A    
O9    C4    A    
O12   V3    S    
C64   C77   S    
C77   H41   S    
C11   H5    S    
O2    V1    S    
