data_mof_unit_13987.cif
_audit_creation_date              2012-12-11T15:48:37-0500
_audit_creation_method            fapswitch 2.2
_symmetry_space_group_name_H-M    P1
_symmetry_Int_Tables_number       1
_space_group_crystal_system       triclinic
_cell_length_a                    11.021287
_cell_length_b                    11.077783
_cell_length_c                    18.788155
_cell_angle_alpha                 90.412363
_cell_angle_beta                  89.892375
_cell_angle_gamma                 60.25585
_cell_volume                      1991.5629011

loop_
_atom_site_label
_atom_site_type_symbol
_atom_type_description
_atom_site_fract_x
_atom_site_fract_y
_atom_site_fract_z
_atom_type_partial_charge
C1    C     C_R   0.236046 0.647364 0.609316 0.539579
C2    C     C_3   0.679646 0.546746 0.800159 -0.260738
C3    C     C_3   0.694398 0.675739 0.812960 0.033367
C4    C     C_3   0.666355 0.649498 0.676750 0.051376
C5    C     C_3   0.801704 0.654000 0.689271 -0.251343
C6    C     C_3   0.673327 0.526038 0.719797 -0.226038
C7    C     C_R   0.677963 0.166957 0.826860 -0.005187
C8    C     C_R   0.775204 0.186879 0.788287 0.054425
C9    C     C_R   0.767086 0.197599 0.714456 -0.025469
C10   C     C_R   0.558147 0.183875 0.716990 -0.188473
C11   C     C_R   0.562138 0.178977 0.789641 -0.175155
C12   C     C_R   0.652231 0.620699 0.601445 0.535249
C13   C     C_3   0.930055 0.112846 0.788387 0.149486
C14   C     C_3   0.922701 0.119593 0.707167 -0.242670
C15   C     C_R   0.662937 0.186343 0.676979 -0.001358
C16   C     C_R   0.171652 0.672352 0.832983 0.017709
C17   C     C_R   0.137961 0.587624 0.791828 0.020593
C18   C     C_R   0.143329 0.587293 0.717908 -0.008386
C19   C     C_R   0.200114 0.769935 0.723765 -0.175216
C20   C     C_R   0.203774 0.763400 0.797596 -0.180410
C21   C     C_3   0.203490 0.433616 0.793898 -0.283486
C22   C     C_3   0.204969 0.434422 0.713247 -0.280160
C23   C     C_R   0.627722 0.230730 0.603353 0.543530
C24   C     C_R   0.182148 0.673211 0.682476 0.016076
C25   C     C_R   0.650238 0.661917 0.165233 0.019741
C26   C     C_R   0.739679 0.537624 0.200502 0.022469
C27   C     C_R   0.737688 0.531568 0.273407 0.026382
C28   C     C_R   0.537230 0.758356 0.279456 -0.159720
C29   C     C_R   0.540519 0.768673 0.204875 -0.158419
C30   C     C_3   0.896419 0.450144 0.199904 -0.263340
C31   C     C_3   0.891626 0.449474 0.279877 -0.284796
C32   C     C_R   0.644168 0.643337 0.314733 0.022809
C33   C     C_R   0.645528 0.159312 0.173962 0.026408
C34   C     C_R   0.218827 0.650437 0.403054 0.549951
C35   C     C_R   0.567586 0.118531 0.216059 0.029087
C36   C     C_R   0.563525 0.135055 0.288933 0.017546
C37   C     C_R   0.716468 0.232086 0.277982 -0.178287
C38   C     C_R   0.722775 0.213420 0.205096 -0.165744
C39   C     C_3   0.413636 0.174742 0.211108 -0.252870
C40   C     C_3   0.407349 0.199609 0.290557 -0.105122
C41   C     C_R   0.641021 0.188747 0.320846 -0.000410
C42   C     C_R   0.105227 0.698908 0.191529 0.021951
C43   C     C_R   0.067329 0.817717 0.233729 0.031563
C44   C     C_R   0.086061 0.807282 0.305965 0.033123
C45   C     C_R   0.639477 0.619509 0.390706 0.546310
C46   C     C_R   0.139186 0.570434 0.300187 -0.176713
C47   C     C_R   0.132048 0.576462 0.225891 -0.178357
C48   C     C_3   0.106823 0.928948 0.229059 -0.260014
C49   C     C_3   0.129920 0.915046 0.309248 -0.120549
C50   C     C_R   0.136413 0.679939 0.339218 0.012206
C51   C     C_R   0.701355 0.102613 0.896669 0.540920
C52   C     C_R   0.722147 0.688067 0.888794 0.541389
C53   C     C_R   0.116802 0.706929 0.905454 0.537698
C54   C     C_R   0.673704 0.108148 0.102762 0.550137
C55   C     C_R   0.695171 0.689349 0.096893 0.547859
C56   C     C_R   0.613775 0.235082 0.393638 0.550863
C57   C     C_R   0.082996 0.715862 0.115413 0.547709
C58   C     C_3   0.559539 0.805291 0.785504 -0.212112
C59   C     C_3   0.538752 0.787217 0.705257 -0.088279
C60   C     C_3   0.820787 0.662516 0.769643 -0.218510
Cr1   Cr    Cr6+3 0.392960 0.397920 0.502240 0.977934
Cr2   Cr    Cr6+3 0.398340 0.708480 0.501250 0.975170
Cr3   Cr    Cr6+3 0.708670 0.393570 0.496460 0.987011
Cr4   Cr    Cr6+3 0.937650 0.938540 0.007610 1.008600
Cr5   Cr    Cr6+3 0.625330 0.937370 0.994520 0.996929
Cr6   Cr    Cr6+3 0.937940 0.625230 0.001190 1.009839
H1    H     H_    0.567418 0.900396 0.795029 0.149380
H2    H     H_    0.769527 0.429142 0.703943 0.166151
H3    H     H_    0.914422 0.565113 0.785560 0.158820
H4    H     H_    0.892795 0.559003 0.666912 0.132720
H5    H     H_    0.471699 0.183136 0.692031 0.142882
H6    H     H_    0.480232 0.167386 0.814938 0.140913
H7    H     H_    0.973663 0.007232 0.811295 0.135950
H8    H     H_    0.963909 0.184057 0.683698 0.152022
H9    H     H_    0.960871 0.016689 0.680976 0.098507
H10   H     H_    0.220390 0.845851 0.699345 0.127313
H11   H     H_    0.466825 0.819223 0.816120 0.099335
H12   H     H_    0.225892 0.833878 0.827260 0.114207
H13   H     H_    0.133252 0.398707 0.816640 0.150390
H14   H     H_    0.307683 0.387252 0.818748 0.138866
H15   H     H_    0.309163 0.388647 0.689011 0.177633
H16   H     H_    0.133448 0.402564 0.688740 0.127985
H17   H     H_    0.455737 0.841352 0.309804 0.107215
H18   H     H_    0.464836 0.863249 0.179290 0.118584
H19   H     H_    0.948470 0.506227 0.180071 0.179725
H20   H     H_    0.933898 0.345859 0.175433 0.121946
H21   H     H_    0.928531 0.345627 0.302034 0.122697
H22   H     H_    0.446417 0.773198 0.700684 0.158753
H23   H     H_    0.933628 0.510722 0.306083 0.146060
H24   H     H_    0.769224 0.281929 0.301245 0.146420
H25   H     H_    0.786667 0.241433 0.173129 0.123079
H26   H     H_    0.387970 0.094406 0.193521 0.129119
H27   H     H_    0.361039 0.272056 0.179840 0.121626
H28   H     H_    0.360543 0.310977 0.303660 0.168251
H29   H     H_    0.159803 0.476637 0.326560 0.120174
H30   H     H_    0.153447 0.484703 0.195664 0.112737
H31   H     H_    0.017909 0.030097 0.212163 0.143378
H32   H     H_    0.204949 0.894715 0.198200 0.125961
H33   H     H_    0.241048 0.874935 0.322393 0.167855
H34   H     H_    0.837853 0.751612 0.781569 0.120413
H35   H     H_    0.798411 0.744355 0.662090 0.109795
H36   H     H_    0.769551 0.453106 0.823205 0.196614
H37   H     H_    0.583021 0.560198 0.826435 0.115901
H38   H     H_    0.581788 0.512502 0.707771 0.125814
O1    O     O_R   0.507380 0.255700 0.581440 -0.538860
O2    O     O_R   0.524480 0.695810 0.424040 -0.511893
O3    O     O_R   0.736390 0.504290 0.414790 -0.522966
O4    O     O_R   0.691300 0.277290 0.422170 -0.517509
O5    O     O_3   0.499990 0.499990 0.499980 -0.244616
O6    O     O_R   0.089400 0.825690 0.930570 -0.540620
O7    O     O_R   0.818460 0.054440 0.929850 -0.497521
O8    O     O_R   0.606060 0.077150 0.915510 -0.539318
O9    O     O_R   0.646550 0.806680 0.917570 -0.515985
O10   O     O_R   0.837170 0.593410 0.915250 -0.515374
O11   O     O_R   0.065200 0.635530 0.931570 -0.499289
O12   O     O_R   0.280320 0.527350 0.578930 -0.507741
O13   O     O_R   0.068260 0.828890 0.091840 -0.521046
O14   O     O_R   0.798870 0.057410 0.079340 -0.507214
O15   O     O_R   0.584930 0.080350 0.076780 -0.521513
O16   O     O_R   0.626960 0.809650 0.067060 -0.504131
O17   O     O_R   0.816040 0.596610 0.076510 -0.527272
O18   O     O_R   0.045610 0.638500 0.081060 -0.513878
O19   O     O_3   0.833640 0.833710 0.001100 -0.255544
O20   O     O_R   0.260510 0.739590 0.584590 -0.539941
O21   O     O_R   0.532300 0.695080 0.573820 -0.512937
O22   O     O_R   0.744840 0.503500 0.576370 -0.531060
O23   O     O_R   0.699120 0.276560 0.571960 -0.503824
O24   O     O_R   0.498940 0.256500 0.419860 -0.530341
O25   O     O_R   0.272500 0.528080 0.429150 -0.520551
O26   O     O_R   0.252060 0.740380 0.423010 -0.534781
O27   O     O_3   0.976405 0.200762 0.817682 -0.576361
C61   C     C_3   0.112164 0.120435 0.844702 -0.134828
H39   H     H_    0.185836 0.053585 0.802424 0.097267
H40   H     H_    0.112569 0.057301 0.890537 0.144119
H41   H     H_    0.148965 0.191110 0.864535 0.128844
C62   C     C_3   0.353592 0.119986 0.335966 -0.262056
C63   C     C_3   0.238648 0.216283 0.387921 -0.434217
H42   H     H_    0.267576 0.283955 0.418302 0.199744
H43   H     H_    0.140998 0.282560 0.358740 0.125524
H44   H     H_    0.218927 0.153979 0.427042 0.117930
H45   H     H_    0.308808 0.070220 0.301574 0.130303
H46   H     H_    0.440547 0.037961 0.367307 0.166204
C64   C     C_3   0.510635 0.917404 0.661958 -0.276250
C65   C     C_3   0.357568 0.032231 0.666915 -0.459412
H47   H     H_    0.287294 0.992432 0.650474 0.151658
H48   H     H_    0.331881 0.074357 0.721962 0.136880
H49   H     H_    0.338251 0.117774 0.630066 0.144145
H50   H     H_    0.581956 0.953591 0.680466 0.143765
H51   H     H_    0.536461 0.895245 0.604756 0.174092
C66   C     C_3   0.028068 0.042999 0.353052 -0.285553
C67   C     C_3   0.049874 0.027009 0.433361 -0.390485
H52   H     H_    0.017705 0.953349 0.454024 0.168555
H53   H     H_    0.160340 0.990278 0.447269 0.163250
H54   H     H_    0.983784 0.129247 0.459877 0.137063
H55   H     H_    0.039332 0.131764 0.335728 0.131760
H56   H     H_    0.921583 0.063117 0.343621 0.172937

loop_
_geom_bond_atom_site_label_1
_geom_bond_atom_site_label_2
_ccdc_geom_bond_type
C53   O6    A    
C44   C49   S    
C55   O17   A    
C51   O8    A    
C32   C45   S    
Cr2   O26   S    
C35   C36   A    
C9    C14   S    
Cr1   O5    S    
Cr2   O20   S    
C7    C8    A    
Cr5   O8    S    
C52   O9    A    
C7    C11   A    
C48   H31   S    
C63   H43   S    
C26   C27   A    
C8    C13   S    
C37   H24   S    
C18   C24   A    
C14   H8    S    
C23   O23   A    
C28   C29   A    
C37   C38   A    
C54   O15   A    
C10   C15   A    
C30   C31   S    
C12   O22   A    
C2    H36   S    
C64   C65   S    
C23   O1    A    
Cr4   O14   S    
C4    C59   S    
C67   H54   S    
C59   H22   S    
C56   O4    A    
C56   O24   A    
C62   H46   S    
C58   H11   S    
C57   O18   A    
C16   C53   S    
C39   H27   S    
C46   H29   S    
C19   C20   A    
C34   O25   A    
C16   C17   A    
C31   H23   S    
C64   H51   S    
C67   H52   S    
Cr6   O18   S    
C1    O12   A    
C6    H38   S    
C30   H20   S    
Cr1   O1    S    
C43   C48   S    
Cr1   O25   S    
C3    C60   S    
C15   C23   S    
C59   C64   S    
C66   H56   S    
C13   C14   S    
C28   H17   S    
C37   C41   A    
C36   C41   A    
C2    C6    S    
C65   H49   S    
C42   C57   S    
C55   O16   A    
C25   C29   A    
C64   H50   S    
C63   H44   S    
C5    H35   S    
C34   C50   S    
C31   H21   S    
Cr6   O11   S    
C27   C31   S    
C22   H15   S    
C28   C32   A    
C29   H18   S    
C4    C6    S    
C47   H30   S    
C39   C40   S    
C11   H6    S    
C8    C9    A    
Cr4   O7    S    
C12   O21   A    
C25   C26   A    
C38   H25   S    
C17   C21   S    
Cr4   O13   S    
Cr3   O5    S    
C35   C39   S    
C43   C44   A    
C41   C56   S    
C62   H45   S    
C61   H39   S    
C49   H33   S    
C40   C62   S    
Cr4   O6    S    
C36   C40   S    
C16   C20   A    
C21   H13   S    
Cr1   O12   S    
C17   C18   A    
C13   O27   S    
Cr6   O17   S    
C30   H19   S    
C49   C66   S    
C65   H48   S    
C48   C49   S    
C13   H7    S    
C26   C30   S    
C66   H55   S    
C54   O14   A    
Cr5   O19   S    
C4    C12   S    
C42   C43   A    
Cr3   O3    S    
O27   C61   S    
C22   H16   S    
C39   H26   S    
C45   O2    A    
C57   O13   A    
C44   C50   A    
C33   C54   S    
C46   C47   A    
C19   H10   S    
C51   O7    A    
Cr6   O10   S    
C5    C60   S    
C27   C32   A    
C18   C22   S    
Cr5   O9    S    
C25   C55   S    
C40   H28   S    
C62   C63   S    
C60   H34   S    
C5    H4    S    
Cr2   O21   S    
C3    C52   S    
Cr2   O2    S    
C52   O10   A    
Cr4   O19   S    
C48   H32   S    
C63   H42   S    
C46   C50   A    
C33   C38   A    
C20   H12   S    
C65   H47   S    
C14   H9    S    
C19   C24   A    
C58   C59   S    
C1    O20   A    
C7    C51   S    
C10   H5    S    
Cr2   O5    S    
C60   H3    S    
C61   H41   S    
C21   H14   S    
C6    H2    S    
C33   C35   A    
Cr5   O16   S    
C2    C3    S    
Cr1   O24   S    
C42   C47   A    
C67   H53   S    
C9    C15   A    
C2    H37   S    
Cr5   O15   S    
Cr3   O22   S    
C10   C11   A    
Cr6   O19   S    
C3    C58   S    
C53   O11   A    
C58   H1    S    
C4    C5    S    
C34   O26   A    
C1    C24   S    
C61   H40   S    
C66   C67   S    
Cr3   O4    S    
C21   C22   S    
Cr3   O23   S    
C45   O3    A    
