data_mof_unit_61139.cif
_audit_creation_date              2012-12-11T17:37:22-0500
_audit_creation_method            fapswitch 2.2
_symmetry_space_group_name_H-M    P1
_symmetry_Int_Tables_number       1
_space_group_crystal_system       triclinic
_cell_length_a                    23.781725
_cell_length_b                    6.916018
_cell_length_c                    21.964756
_cell_angle_alpha                 89.947966
_cell_angle_beta                  101.833538
_cell_angle_gamma                 90.066319
_cell_volume                      3535.86872283

loop_
_atom_site_label
_atom_site_type_symbol
_atom_type_description
_atom_site_fract_x
_atom_site_fract_y
_atom_site_fract_z
_atom_type_partial_charge
O1    O     O_R   0.301920 0.607900 0.199160 -0.543872
O2    O     O_R   0.698080 0.392100 0.800840 -0.544294
O3    O     O_R   0.198080 0.107900 0.300840 -0.543946
O4    O     O_R   0.801920 0.892100 0.699160 -0.542927
O5    O     O_R   0.190790 0.275820 0.184850 -0.528721
O6    O     O_R   0.809210 0.724180 0.815150 -0.529205
O7    O     O_R   0.309210 0.775820 0.315150 -0.528691
O8    O     O_R   0.690790 0.224180 0.684850 -0.523796
C1    C     C_R   0.168729 0.447154 0.166678 0.721264
C2    C     C_R   0.831264 0.552846 0.833333 0.698099
C3    C     C_R   0.331271 0.947197 0.333323 0.721194
C4    C     C_R   0.668727 0.052805 0.666678 0.731751
O9    O     O_R   0.301050 0.278040 0.191980 -0.506277
O10   O     O_R   0.698950 0.721960 0.808020 -0.505964
O11   O     O_R   0.198950 0.778040 0.308020 -0.506350
O12   O     O_R   0.801050 0.221960 0.691980 -0.504320
O13   O     O_R   0.309130 0.110040 0.308020 -0.519253
O14   O     O_R   0.690870 0.889960 0.691980 -0.518328
O15   O     O_R   0.190870 0.610040 0.191980 -0.519167
O16   O     O_R   0.809130 0.389960 0.808020 -0.525831
C5    C     C_R   0.319685 0.446684 0.179161 0.750310
C6    C     C_R   0.680314 0.553316 0.820838 0.751861
C7    C     C_R   0.180424 0.946430 0.320941 0.750052
C8    C     C_R   0.818665 0.053426 0.677869 0.746279
O17   O     O_3   0.252520 0.442130 0.288070 -0.359231
O18   O     O_3   0.747480 0.557870 0.711930 -0.350298
O19   O     O_3   0.247480 0.942130 0.211930 -0.359145
O20   O     O_3   0.752520 0.057870 0.788070 -0.361100
V1    V     V_3+5 0.249530 0.166380 0.242940 1.468253
V2    V     V_3+5 0.750470 0.833620 0.757060 1.469011
V3    V     V_3+5 0.250470 0.666380 0.257060 1.468378
V4    V     V_3+5 0.749530 0.333620 0.742940 1.475187
C9    C     C_R   0.910529 0.198016 0.559437 0.278855
C10   C     C_R   0.060575 0.809450 0.407226 0.289420
C11   C     C_R   0.559449 0.688165 0.905890 0.286077
C12   C     C_R   0.440549 0.311836 0.094108 0.286489
C13   C     C_R   0.869402 0.207888 0.598243 0.340243
C14   C     C_R   0.101511 0.795053 0.368016 0.251149
C15   C     C_R   0.600817 0.703379 0.867167 0.253763
C16   C     C_R   0.399182 0.296621 0.132832 0.254334
C17   C     C_R   0.860105 0.045760 0.634761 -0.147400
C18   C     C_R   0.137974 0.954109 0.362648 -0.108914
C19   C     C_R   0.637482 0.544896 0.862169 -0.109464
C20   C     C_R   0.362517 0.455104 0.137830 -0.108563
C21   C     C_R   0.891236 0.875298 0.630647 -0.255071
C22   C     C_R   0.134414 0.120919 0.398173 -0.252464
C23   C     C_R   0.633612 0.377725 0.897553 -0.257476
C24   C     C_R   0.366387 0.622275 0.102446 -0.258663
H1    H     H_    0.885145 0.749357 0.657921 0.170674
H2    H     H_    0.162284 0.243292 0.395592 0.160815
H3    H     H_    0.661589 0.255693 0.895239 0.162397
H4    H     H_    0.338410 0.744307 0.104760 0.161507
C25   C     C_R   0.931227 0.864704 0.592195 -0.148218
C26   C     C_R   0.096045 0.130901 0.438556 -0.224256
C27   C     C_R   0.594831 0.366992 0.937509 -0.206577
C28   C     C_R   0.405167 0.633009 0.062490 -0.208557
H5    H     H_    0.954512 0.730912 0.590401 0.172440
H6    H     H_    0.094671 0.261045 0.465649 0.156553
H7    H     H_    0.593366 0.236797 0.964629 0.168817
H8    H     H_    0.406633 0.763204 0.035370 0.167644
C29   C     C_R   0.941586 0.023991 0.556708 -0.006681
C30   C     C_R   0.059315 0.976103 0.443533 0.059730
C31   C     C_R   0.557921 0.521283 0.942145 0.048748
C32   C     C_R   0.442077 0.478718 0.057853 0.049145
C33   C     C_1   0.983742 0.005113 0.517503 -0.022051
C34   C     C_1   0.018418 0.991928 0.484204 0.056941
C35   C     C_1   0.517090 0.505815 0.983010 0.069042
C36   C     C_1   0.482908 0.494187 0.016988 0.068895
C37   C     C_1   0.616634 0.040763 0.614570 -0.196927
C38   C     C_1   0.383367 0.959242 0.385429 -0.202892
C39   C     C_1   0.883357 0.540867 0.885448 -0.208948
C40   C     C_1   0.116628 0.459140 0.114573 -0.203308
C41   C     C_1   0.573273 0.026790 0.571797 0.012470
C42   C     C_1   0.426730 0.973217 0.428199 0.008942
C43   C     C_1   0.926716 0.526879 0.928222 0.004289
C44   C     C_1   0.073264 0.473134 0.071807 0.007897
C45   C     C_1   0.521734 0.008101 0.521270 0.008254
C46   C     C_1   0.478270 0.991907 0.478725 0.007150
C47   C     C_1   0.978256 0.508133 0.978746 0.003657
C48   C     C_1   0.021721 0.491883 0.021287 0.004795
O21   O     O_3   0.918772 0.360482 0.525341 -0.655770
H9    H     H_    0.949024 0.337452 0.501348 0.310199
O22   O     O_3   0.020706 0.666025 0.410122 -0.647344
H10   H     H_    0.011707 0.598142 0.369627 0.298239
O23   O     O_3   0.519482 0.831200 0.908428 -0.646778
H11   H     H_    0.510771 0.899209 0.867914 0.295675
O24   O     O_3   0.480516 0.168800 0.091570 -0.645803
H12   H     H_    0.489229 0.100794 0.132084 0.298066
O25   O     O_3   0.837188 0.373202 0.600767 -0.640370
H13   H     H_    0.846727 0.473241 0.572302 0.331643
O26   O     O_3   0.106308 0.629560 0.334312 -0.646123
H14   H     H_    0.094675 0.516931 0.356654 0.288642
O27   O     O_3   0.605874 0.869211 0.833615 -0.647659
H15   H     H_    0.593984 0.981512 0.855811 0.288876
O28   O     O_3   0.394125 0.130788 0.166384 -0.646380
H16   H     H_    0.406015 0.018488 0.144188 0.289258

loop_
_geom_bond_atom_site_label_1
_geom_bond_atom_site_label_2
_ccdc_geom_bond_type
O17   V3    S    
O24   H12   S    
O18   V4    S    
O27   H15   S    
C27   H7    S    
O19   V1    S    
O13   V1    S    
O3    C7    A    
O28   H16   S    
C1    C40   S    
C10   C30   A    
C4    C37   S    
O15   V3    S    
O21   H9    S    
C3    C38   S    
O23   H11   S    
O1    C5    A    
C7    C18   S    
C32   C36   S    
O9    V1    S    
C14   C18   A    
C26   H6    S    
O4    C8    A    
O1    V3    S    
O2    V4    S    
C18   C22   A    
O3    V1    S    
C38   C42   T    
C15   O27   S    
C12   C16   A    
C25   C29   A    
C1    O15   A    
C6    C19   S    
C2    O16   A    
C27   C31   A    
O2    C6    A    
C28   C32   A    
C37   C41   T    
O14   V2    S    
C16   C20   A    
C40   C44   T    
C2    C39   S    
O11   C7    A    
C21   C25   A    
O12   C8    A    
C8    C17   S    
O10   V2    S    
O7    C3    A    
O5    V1    S    
C12   O24   S    
O17   V1    S    
C31   C35   S    
O7    V3    S    
C30   C34   S    
O19   V3    S    
C35   C36   T    
O8    V4    S    
O20   V4    S    
O26   H14   S    
C25   H5    S    
C15   C19   A    
C26   C30   A    
C45   C46   T    
C14   O26   S    
C9    C13   A    
C28   H8    S    
C11   C15   A    
O5    C1    A    
C5    C20   S    
O22   H10   S    
C21   H1    S    
O8    C4    A    
C22   C26   A    
O9    C5    A    
O6    V2    S    
O18   V2    S    
C43   C47   S    
C10   O22   S    
C16   O28   S    
C23   C27   A    
O16   V4    S    
C24   C28   A    
C3    O13   A    
C17   C21   A    
C10   C14   A    
C44   C48   S    
O6    C2    A    
C23   H3    S    
O11   V3    S    
O12   V4    S    
C22   H2    S    
C13   O25   S    
O10   C6    A    
O20   V2    S    
C39   C43   T    
C11   O23   S    
C9    O21   S    
C13   C17   A    
C47   C48   T    
C29   C33   S    
C24   H4    S    
C9    C29   A    
C33   C34   T    
C42   C46   S    
C4    O14   A    
C41   C45   S    
C11   C31   A    
O25   H13   S    
C12   C32   A    
C19   C23   A    
O4    V2    S    
C20   C24   A    
