data_mof_unit_36438.cif
_audit_creation_date              2012-12-10T18:15:19-0500
_audit_creation_method            fapswitch 2.2
_symmetry_space_group_name_H-M    P1
_symmetry_Int_Tables_number       1
_space_group_crystal_system       triclinic
_cell_length_a                    18.406098
_cell_length_b                    18.47581
_cell_length_c                    39.557345
_cell_angle_alpha                 90.262815
_cell_angle_beta                  90.106276
_cell_angle_gamma                 89.933112
_cell_volume                      13451.9964753

loop_
_atom_site_label
_atom_site_type_symbol
_atom_type_description
_atom_site_fract_x
_atom_site_fract_y
_atom_site_fract_z
_atom_type_partial_charge
C1    C     C_R   0.934759 0.489667 0.431148 0.135246
C2    C     C_R   0.566362 0.993016 0.068450 0.135452
C3    C     C_R   0.302430 0.749790 0.724487 0.216954
C4    C     C_R   0.251704 0.303887 0.274315 0.219416
C5    C     C_R   0.746061 0.694004 0.725664 0.216247
C6    C     C_R   0.304804 0.748843 0.274762 0.228012
C7    C     C_R   0.694762 0.252113 0.725808 0.224158
C8    C     C_R   0.201086 0.691319 0.248504 -0.049057
C9    C     C_R   0.800153 0.306662 0.751969 -0.053426
C10   C     C_R   0.306989 0.199566 0.247889 -0.053996
C11   C     C_R   0.692520 0.799861 0.752107 -0.053992
C12   C     C_R   0.800074 0.306661 0.248667 -0.059217
C13   C     C_R   0.017260 0.438234 0.930865 0.135751
C14   C     C_R   0.198945 0.694144 0.751408 -0.051630
C15   C     C_R   0.696197 0.803434 0.249827 -0.054908
C16   C     C_R   0.304961 0.197573 0.749864 -0.051485
C17   C     C_R   0.194040 0.301365 0.748006 -0.051369
C18   C     C_R   0.807202 0.699584 0.251319 -0.057075
C19   C     C_R   0.298359 0.808791 0.747689 -0.054494
C20   C     C_R   0.699517 0.192953 0.251611 -0.056123
C21   C     C_R   0.806027 0.699041 0.748256 -0.049641
C22   C     C_R   0.196216 0.303470 0.249314 -0.052521
C23   C     C_R   0.701544 0.191252 0.747442 -0.052646
C24   C     C_R   0.996126 0.568574 0.069168 0.136472
C25   C     C_R   0.298185 0.808270 0.252024 -0.062719
C26   C     C_R   0.000320 0.500109 0.377964 -0.028777
C27   C     C_R   0.000245 0.502004 0.621631 -0.032296
C28   C     C_R   0.500685 0.999913 0.377758 -0.031833
C29   C     C_R   0.500463 0.999287 0.621931 -0.030305
C30   C     C_R   0.499985 0.999116 0.877984 -0.028430
C31   C     C_R   0.499844 0.999755 0.121733 -0.031992
C32   C     C_R   0.999454 0.500985 0.877758 -0.031367
C33   C     C_R   0.997621 0.500323 0.121815 -0.029903
C34   C     C_3   0.799242 0.477856 0.433134 -0.321203
C35   C     C_R   0.565780 0.008111 0.931299 0.132229
C36   C     C_3   0.201571 0.494033 0.566351 -0.324312
C37   C     C_3   0.503933 0.801615 0.434600 -0.319771
C38   C     C_3   0.496892 0.200048 0.567171 -0.323105
C39   C     C_3   0.201953 0.523693 0.432724 -0.321999
C40   C     C_3   0.799932 0.526119 0.566530 -0.324517
C41   C     C_3   0.516395 0.197264 0.434210 -0.318838
C42   C     C_3   0.518315 0.798226 0.567137 -0.319484
C43   C     C_3   0.297821 0.982589 0.932675 -0.318458
C44   C     C_3   0.702031 0.995604 0.067122 -0.323322
C45   C     C_3   0.002750 0.306761 0.937829 -0.318682
C46   C     C_R   0.432931 0.004841 0.068471 0.135079
C47   C     C_3   0.980629 0.703265 0.069611 -0.319379
C48   C     C_3   0.701275 0.013156 0.933783 -0.319680
C49   C     C_3   0.297254 0.004405 0.067145 -0.323527
C50   C     C_3   0.994738 0.702635 0.931823 -0.321111
C51   C     C_3   0.993684 0.300162 0.064779 -0.322154
C52   C     C_3   0.241484 0.913766 0.192222 0.055533
C53   C     C_3   0.192208 0.941202 0.164109 -0.388701
C54   C     C_3   0.759614 0.090848 0.809960 0.064044
C55   C     C_3   0.818268 0.071167 0.835618 -0.377507
C56   C     C_3   0.085571 0.233478 0.194775 0.062064
C57   C     C_R   0.987604 0.568434 0.930466 0.137211
C58   C     C_3   0.069932 0.178803 0.167034 -0.402298
C59   C     C_3   0.912753 0.762888 0.807971 0.059599
C60   C     C_3   0.934040 0.824536 0.831359 -0.369890
C61   C     C_3   0.752674 0.103494 0.182197 0.067976
C62   C     C_3   0.810695 0.067508 0.160063 -0.382880
C63   C     C_3   0.250266 0.903403 0.814291 0.061326
C64   C     C_3   0.196957 0.920880 0.842659 -0.386757
C65   C     C_3   0.925556 0.778435 0.204202 0.060532
C66   C     C_3   0.946146 0.834180 0.177790 -0.392120
C67   C     C_3   0.099989 0.245647 0.813640 0.065754
C68   C     C_R   0.988030 0.435332 0.068085 0.140745
C69   C     C_3   0.086938 0.184321 0.838541 -0.375129
C70   C     C_3   0.270612 0.175019 0.829546 0.013614
C71   C     C_3   0.258035 0.122308 0.858414 -0.373642
C72   C     C_3   0.725883 0.821800 0.168936 0.047519
C73   C     C_3   0.762434 0.856682 0.138500 -0.363998
C74   C     C_3   0.169322 0.735408 0.829476 0.023520
C75   C     C_3   0.117221 0.755689 0.857823 -0.377362
C76   C     C_3   0.824673 0.277761 0.170622 0.021515
C77   C     C_3   0.866077 0.251780 0.139526 -0.380073
C78   C     C_3   0.733441 0.818374 0.831476 0.003932
C79   C     C_R   0.935469 0.489187 0.395682 -0.117097
C80   C     C_3   0.734919 0.871654 0.860971 -0.377885
C81   C     C_3   0.291420 0.184583 0.167652 0.043437
C82   C     C_3   0.254765 0.162051 0.134734 -0.369648
C83   C     C_3   0.832993 0.260351 0.829017 0.022822
C84   C     C_3   0.886057 0.240087 0.857019 -0.374311
C85   C     C_3   0.185020 0.727553 0.168088 0.018605
C86   C     C_3   0.134386 0.741579 0.138288 -0.374865
C87   C     C_3   0.738345 0.405530 0.688864 0.069974
C88   C     C_3   0.676437 0.436288 0.667015 -0.381716
C89   C     C_3   0.245550 0.602021 0.316691 0.056275
C90   C     C_R   0.064330 0.486692 0.603782 -0.112486
C91   C     C_3   0.297041 0.584709 0.345850 -0.388467
C92   C     C_3   0.571722 0.704501 0.713280 0.056710
C93   C     C_3   0.537117 0.667373 0.682091 -0.362048
C94   C     C_3   0.397612 0.249810 0.315806 0.061699
C95   C     C_3   0.410907 0.308108 0.342553 -0.376308
C96   C     C_3   0.254018 0.603238 0.683431 0.070869
C97   C     C_3   0.314837 0.571320 0.661220 -0.380789
C98   C     C_3   0.756315 0.397602 0.316934 0.059725
C99   C     C_3   0.704920 0.414793 0.346130 -0.387169
C100  C     C_3   0.420853 0.271613 0.699378 0.067159
C101  C     C_R   0.515573 0.935786 0.395037 -0.110125
C102  C     C_3   0.437061 0.332099 0.674613 -0.395635
C103  C     C_3   0.613517 0.762126 0.320868 0.058627
C104  C     C_3   0.600567 0.707359 0.349119 -0.374939
C105  C     C_3   0.777049 0.670686 0.330748 0.022370
C106  C     C_3   0.759276 0.617075 0.358668 -0.367629
C107  C     C_3   0.223099 0.327434 0.668548 0.043820
C108  C     C_3   0.253092 0.369282 0.638663 -0.375661
C109  C     C_3   0.666152 0.233106 0.329490 0.029121
C110  C     C_3   0.613349 0.255691 0.357187 -0.370609
C111  C     C_3   0.321402 0.777093 0.669093 0.021766
C112  C     C_R   0.066414 0.490815 0.568279 0.137462
C113  C     C_R   0.503939 0.064357 0.604024 -0.109630
C114  C     C_3   0.366254 0.753667 0.638592 -0.375443
C115  C     C_3   0.230056 0.329241 0.329637 0.018417
C116  C     C_3   0.245827 0.383443 0.357813 -0.370222
C117  C     C_3   0.761853 0.674574 0.668775 0.044501
C118  C     C_3   0.721283 0.636115 0.640258 -0.374138
C119  C     C_3   0.334819 0.767350 0.329983 0.030612
C120  C     C_3   0.389396 0.744701 0.356953 -0.364425
C121  C     C_3   0.673031 0.229728 0.670158 0.019922
C122  C     C_3   0.626256 0.255452 0.640793 -0.379441
C123  C     C_R   0.065445 0.511423 0.395563 -0.117921
C124  C     C_R   0.936703 0.519810 0.603854 -0.113177
C125  C     C_R   0.488821 0.063979 0.395782 -0.109643
C126  C     C_R   0.495998 0.933544 0.604320 -0.106297
C127  C     C_R   0.434715 0.988960 0.895508 -0.117832
C128  C     C_R   0.565178 0.991119 0.103965 -0.114718
C129  C     C_R   0.016235 0.438145 0.895624 -0.109000
C130  C     C_R   0.000822 0.566192 0.104421 -0.107615
C131  C     C_R   0.565086 0.008499 0.895844 -0.119963
C132  C     C_R   0.517698 0.934236 0.430280 0.137378
C133  C     C_R   0.434390 0.007892 0.103947 -0.115489
C134  C     C_R   0.984276 0.565252 0.895161 -0.109592
C135  C     C_R   0.989679 0.435555 0.103614 -0.107477
C136  C     C_R   0.000734 0.501869 0.448427 0.056131
C137  C     C_R   0.000914 0.505318 0.550941 0.045931
C138  C     C_R   0.506147 0.999477 0.448349 0.046396
C139  C     C_R   0.500305 0.997606 0.551226 0.050617
C140  C     C_R   0.499618 0.997808 0.948510 0.056347
C141  C     C_R   0.499560 0.998666 0.051046 0.046685
C142  C     C_R   0.002159 0.503604 0.948412 0.046442
C143  C     C_R   0.501651 0.064696 0.568521 0.136914
C144  C     C_R   0.992901 0.502364 0.051034 0.049832
C145  C     C_1   0.000806 0.503673 0.484542 -0.017003
C146  C     C_1   0.000829 0.504843 0.514741 -0.033627
C147  C     C_1   0.504705 0.998129 0.484676 -0.036946
C148  C     C_1   0.502795 0.997460 0.514914 -0.030198
C149  C     C_1   0.499409 0.997931 0.984629 -0.006874
C150  C     C_1   0.499365 0.998211 0.014845 -0.021899
C151  C     C_1   0.999085 0.503518 0.984556 -0.037584
C152  C     C_1   0.996087 0.503277 0.014895 -0.033610
C153  C     C_R   0.499702 0.000081 0.340887 0.489922
C154  C     C_R   0.066588 0.512592 0.431051 0.133808
C155  C     C_R   0.500158 0.999837 0.658995 0.501534
C156  C     C_R   0.000075 0.499942 0.340939 0.491510
C157  C     C_R   0.999998 0.500284 0.658837 0.494404
C158  C     C_R   0.999611 0.500196 0.840857 0.493285
C159  C     C_R   0.999723 0.499927 0.158972 0.504395
C160  C     C_R   0.500038 0.999867 0.840936 0.493659
C161  C     C_R   0.499946 0.000001 0.158953 0.495304
C162  C     C_R   0.361239 0.141557 0.249049 0.534335
C163  C     C_R   0.638814 0.858465 0.750899 0.542450
C164  C     C_R   0.858109 0.361335 0.249099 0.531506
C165  C     C_R   0.935290 0.519193 0.568282 0.137698
C166  C     C_R   0.141709 0.638780 0.750926 0.540335
C167  C     C_R   0.639575 0.859233 0.249546 0.535506
C168  C     C_R   0.360115 0.140407 0.750080 0.544230
C169  C     C_R   0.142232 0.637923 0.249018 0.535086
C170  C     C_R   0.857930 0.361635 0.751120 0.539095
C171  C     C_R   0.357646 0.862003 0.748783 0.528807
C172  C     C_R   0.641665 0.138602 0.250962 0.538731
C173  C     C_R   0.861297 0.641741 0.748945 0.538272
C174  C     C_R   0.140261 0.359833 0.249869 0.546537
C175  C     C_R   0.642460 0.137790 0.748682 0.533624
C176  C     C_R   0.494011 0.065581 0.431096 0.136406
C177  C     C_R   0.357475 0.861974 0.251078 0.528886
C178  C     C_R   0.139004 0.358740 0.749087 0.535087
C179  C     C_R   0.860640 0.640862 0.250415 0.542637
C180  C     C_R   0.239080 0.810458 0.228430 0.202658
C181  C     C_R   0.761984 0.185294 0.769549 0.208587
C182  C     C_R   0.197477 0.251923 0.222533 0.209322
C183  C     C_R   0.812055 0.758711 0.770703 0.207870
C184  C     C_R   0.757476 0.187782 0.228162 0.211323
C185  C     C_R   0.240110 0.813313 0.771235 0.211340
C186  C     C_R   0.808969 0.754148 0.226124 0.202909
C187  C     C_R   0.497258 0.931304 0.568935 0.136637
C188  C     C_R   0.188937 0.243127 0.770831 0.210712
C189  C     C_R   0.248153 0.196457 0.774096 0.221381
C190  C     C_R   0.752436 0.804671 0.225106 0.219441
C191  C     C_R   0.193252 0.754136 0.773869 0.226493
C192  C     C_R   0.804493 0.247189 0.225368 0.220726
C193  C     C_R   0.751287 0.803118 0.775293 0.229639
C194  C     C_R   0.252738 0.199958 0.222201 0.220355
C195  C     C_R   0.808041 0.245019 0.773150 0.229718
C196  C     C_R   0.197504 0.747993 0.224580 0.231573
C197  C     C_R   0.739830 0.312404 0.729871 0.208067
C198  C     C_R   0.433612 0.988064 0.930904 0.133147
C199  C     C_R   0.258030 0.689322 0.272798 0.209469
C200  C     C_R   0.688356 0.743032 0.728086 0.191166
C201  C     C_R   0.310583 0.256537 0.271831 0.210070
C202  C     C_R   0.256759 0.689745 0.727918 0.208716
C203  C     C_R   0.742239 0.310939 0.272449 0.212327
C204  C     C_R   0.306199 0.251250 0.724216 0.205328
C205  C     C_R   0.693695 0.747744 0.274416 0.211902
C206  C     C_R   0.751695 0.699106 0.276175 0.218493
C207  C     C_R   0.251036 0.303374 0.723736 0.219217
C208  C     C_R   0.694294 0.252563 0.274392 0.225514
H1    H     H_    0.886006 0.479232 0.381658 0.126199
H2    H     H_    0.614990 0.983782 0.118056 0.131841
H3    H     H_    0.965702 0.866381 0.817114 0.188922
H4    H     H_    0.726741 0.150008 0.169115 0.091384
H5    H     H_    0.711203 0.059956 0.183730 0.194446
H6    H     H_    0.866099 0.087666 0.166256 0.182581
H7    H     H_    0.810975 0.007554 0.163837 0.143580
H8    H     H_    0.797837 0.077668 0.132985 0.068423
H9    H     H_    0.275030 0.956933 0.808923 0.214907
H10   H     H_    0.293813 0.866376 0.823476 0.095667
H11   H     H_    0.196829 0.877133 0.861548 0.106373
H12   H     H_    0.215163 0.969942 0.856595 0.077306
H13   H     H_    0.029949 0.389167 0.881911 0.132848
H14   H     H_    0.141620 0.931179 0.832548 0.192750
H15   H     H_    0.966579 0.734985 0.199898 0.211067
H16   H     H_    0.933295 0.800530 0.230220 0.114694
H17   H     H_    0.914579 0.884628 0.181492 0.163017
H18   H     H_    0.005057 0.846749 0.180112 0.132090
H19   H     H_    0.936985 0.811645 0.151959 0.133499
H20   H     H_    0.046243 0.272489 0.810704 0.205092
H21   H     H_    0.137454 0.287177 0.824381 0.088614
H22   H     H_    0.118990 0.193706 0.861911 0.090602
H23   H     H_    0.029027 0.182382 0.845950 0.098396
H24   H     H_    0.005377 0.615656 0.118916 0.136933
H25   H     H_    0.100598 0.131168 0.827045 0.213124
H26   H     H_    0.241748 0.226241 0.835835 0.105983
H27   H     H_    0.329746 0.186925 0.828000 0.120118
H28   H     H_    0.297738 0.077356 0.856776 0.145198
H29   H     H_    0.264390 0.150705 0.883052 0.091336
H30   H     H_    0.202586 0.099094 0.857286 0.147916
H31   H     H_    0.666148 0.830821 0.167024 0.129997
H32   H     H_    0.735751 0.762065 0.167203 0.152997
H33   H     H_    0.823072 0.858566 0.141522 0.164095
H34   H     H_    0.749842 0.824487 0.115041 0.095685
H35   H     H_    0.614742 0.017560 0.881965 0.128228
H36   H     H_    0.741981 0.913555 0.136012 0.120331
H37   H     H_    0.222524 0.761813 0.834880 0.106031
H38   H     H_    0.177932 0.675841 0.829736 0.127474
H39   H     H_    0.071054 0.717344 0.858300 0.138945
H40   H     H_    0.146013 0.754319 0.882535 0.081502
H41   H     H_    0.095382 0.811040 0.853978 0.160707
H42   H     H_    0.828774 0.337790 0.172195 0.143394
H43   H     H_    0.766082 0.264055 0.166822 0.096361
H44   H     H_    0.862333 0.192377 0.136609 0.142771
H45   H     H_    0.842567 0.276378 0.116425 0.097570
H46   H     H_    0.384694 0.015471 0.118032 0.134448
H47   H     H_    0.924389 0.266316 0.141973 0.142691
H48   H     H_    0.771877 0.773640 0.837436 0.108305
H49   H     H_    0.677587 0.795433 0.829648 0.111768
H50   H     H_    0.691613 0.912697 0.857693 0.157189
H51   H     H_    0.726371 0.842157 0.885022 0.094653
H52   H     H_    0.787675 0.899963 0.862847 0.131034
H53   H     H_    0.348520 0.165236 0.167071 0.137273
H54   H     H_    0.292240 0.245051 0.168399 0.145546
H55   H     H_    0.197621 0.180245 0.134122 0.173764
H56   H     H_    0.282874 0.187005 0.112836 0.097085
H57   H     H_    0.969900 0.612761 0.880802 0.131195
H58   H     H_    0.256050 0.102395 0.132380 0.128868
H59   H     H_    0.780806 0.232046 0.834193 0.103459
H60   H     H_    0.822712 0.319609 0.830285 0.126739
H61   H     H_    0.932922 0.277637 0.857142 0.138173
H62   H     H_    0.858419 0.242445 0.881949 0.082311
H63   H     H_    0.906736 0.184402 0.853188 0.153897
H64   H     H_    0.200491 0.668980 0.168060 0.129435
H65   H     H_    0.235328 0.760433 0.164423 0.112452
H66   H     H_    0.111585 0.797345 0.139647 0.147546
H67   H     H_    0.163972 0.734699 0.113957 0.096173
H68   H     H_    0.984448 0.385466 0.117419 0.135231
H69   H     H_    0.088358 0.703019 0.139339 0.148236
H70   H     H_    0.772679 0.365550 0.674421 0.095740
H71   H     H_    0.772809 0.454490 0.693588 0.208161
H72   H     H_    0.622093 0.416764 0.676713 0.188566
H73   H     H_    0.675279 0.498757 0.668228 0.134273
H74   H     H_    0.685789 0.420320 0.639399 0.078423
H75   H     H_    0.220782 0.548416 0.311308 0.214288
H76   H     H_    0.201977 0.639952 0.325111 0.092851
H77   H     H_    0.301983 0.631266 0.363221 0.111795
H78   H     H_    0.274103 0.540179 0.361278 0.070910
H79   H     H_    0.873463 0.444804 0.470607 0.247901
H80   H     H_    0.350994 0.567162 0.336320 0.193444
H81   H     H_    0.529334 0.743612 0.723266 0.186861
H82   H     H_    0.582257 0.663188 0.733688 0.109565
H83   H     H_    0.560098 0.611660 0.678666 0.120842
H84   H     H_    0.477294 0.662637 0.685606 0.144686
H85   H     H_    0.546529 0.699447 0.658624 0.154514
H86   H     H_    0.451387 0.223282 0.312524 0.206310
H87   H     H_    0.359443 0.207635 0.325158 0.087795
H88   H     H_    0.372285 0.301616 0.363746 0.099010
H89   H     H_    0.466082 0.302756 0.353495 0.086765
H90   H     H_    0.755430 0.474422 0.452333 0.136563
H91   H     H_    0.406617 0.362938 0.331418 0.208825
H92   H     H_    0.223148 0.647448 0.670115 0.088592
H93   H     H_    0.215364 0.556634 0.685830 0.197542
H94   H     H_    0.368760 0.593439 0.669328 0.181395
H95   H     H_    0.318051 0.509595 0.663953 0.134486
H96   H     H_    0.303232 0.583929 0.633504 0.075472
H97   H     H_    0.781896 0.451063 0.312321 0.212695
H98   H     H_    0.799431 0.359008 0.325110 0.091818
H99   H     H_    0.701384 0.368574 0.363649 0.109563
H100  H     H_    0.727120 0.460142 0.361559 0.070472
H101  H     H_    0.794582 0.430280 0.416055 0.132841
H102  H     H_    0.650539 0.431136 0.336743 0.194828
H103  H     H_    0.459512 0.227952 0.691996 0.204281
H104  H     H_    0.434082 0.288697 0.725665 0.126816
H105  H     H_    0.405960 0.381345 0.681372 0.170469
H106  H     H_    0.496120 0.344938 0.675526 0.113297
H107  H     H_    0.423970 0.314390 0.648308 0.134371
H108  H     H_    0.560651 0.790789 0.318611 0.200734
H109  H     H_    0.654868 0.803411 0.328410 0.081555
H110  H     H_    0.644051 0.712582 0.368733 0.104392
H111  H     H_    0.547722 0.718178 0.362341 0.075219
H112  H     H_    0.112754 0.471711 0.617640 0.131694
H113  H     H_    0.791498 0.528816 0.418840 0.150447
H114  H     H_    0.597725 0.650970 0.338772 0.202948
H115  H     H_    0.754223 0.724499 0.337948 0.105396
H116  H     H_    0.837170 0.676328 0.328947 0.120234
H117  H     H_    0.797479 0.570808 0.357406 0.138929
H118  H     H_    0.763871 0.643832 0.383801 0.087286
H119  H     H_    0.703159 0.595779 0.355839 0.159855
H120  H     H_    0.163047 0.333763 0.668883 0.131679
H121  H     H_    0.235567 0.269051 0.664207 0.162461
H122  H     H_    0.313020 0.374012 0.640052 0.156310
H123  H     H_    0.239174 0.340915 0.614664 0.097227
H124  H     H_    0.132893 0.491144 0.524656 0.265625
H125  H     H_    0.229488 0.424475 0.638801 0.125021
H126  H     H_    0.720333 0.256713 0.335599 0.104383
H127  H     H_    0.671757 0.173185 0.329720 0.126350
H128  H     H_    0.566012 0.218783 0.357357 0.133157
H129  H     H_    0.640762 0.254001 0.382234 0.076066
H130  H     H_    0.593589 0.311695 0.352861 0.168033
H131  H     H_    0.320587 0.837461 0.670374 0.140681
H132  H     H_    0.264313 0.758339 0.664902 0.099718
H133  H     H_    0.373421 0.693895 0.637767 0.139918
H134  H     H_    0.338643 0.770165 0.614722 0.102326
H135  H     H_    0.245347 0.498073 0.547036 0.132590
H136  H     H_    0.421146 0.778737 0.640192 0.146866
H137  H     H_    0.257254 0.277290 0.336087 0.105620
H138  H     H_    0.170518 0.319274 0.328592 0.120277
H139  H     H_    0.205214 0.427613 0.357043 0.140703
H140  H     H_    0.243466 0.356202 0.382762 0.088545
H141  H     H_    0.300567 0.407696 0.354862 0.157004
H142  H     H_    0.821241 0.669019 0.664264 0.128387
H143  H     H_    0.748111 0.733362 0.667127 0.155605
H144  H     H_    0.662471 0.631812 0.646035 0.167594
H145  H     H_    0.726929 0.666726 0.616212 0.089993
H146  H     H_    0.216086 0.448792 0.583122 0.147270
H147  H     H_    0.744131 0.580939 0.636916 0.119571
H148  H     H_    0.281312 0.742590 0.336174 0.104190
H149  H     H_    0.328144 0.827142 0.330925 0.123822
H150  H     H_    0.435565 0.783113 0.357361 0.134914
H151  H     H_    0.363054 0.744480 0.382229 0.073800
H152  H     H_    0.410717 0.689425 0.351585 0.173656
H153  H     H_    0.674900 0.169402 0.669799 0.139801
H154  H     H_    0.729451 0.250237 0.665945 0.101630
H155  H     H_    0.618621 0.315051 0.641786 0.146820
H156  H     H_    0.652929 0.241552 0.616341 0.092570
H157  H     H_    0.199001 0.545946 0.580621 0.140066
H158  H     H_    0.571649 0.229826 0.642144 0.139666
H159  H     H_    0.545448 0.869863 0.472731 0.250470
H160  H     H_    0.506915 0.759153 0.454345 0.131930
H161  H     H_    0.534851 0.782066 0.412291 0.141076
H162  H     H_    0.445944 0.809951 0.427771 0.146938
H163  H     H_    0.464233 0.129141 0.529336 0.249197
H164  H     H_    0.526909 0.886915 0.380787 0.131219
H165  H     H_    0.496841 0.244513 0.548319 0.136515
H166  H     H_    0.546077 0.206738 0.582983 0.146798
H167  H     H_    0.446758 0.204563 0.582681 0.142995
H168  H     H_    0.128370 0.562365 0.469053 0.247887
H169  H     H_    0.246200 0.525983 0.451830 0.138358
H170  H     H_    0.207202 0.571250 0.415853 0.131606
H171  H     H_    0.208300 0.472616 0.418163 0.150679
H172  H     H_    0.868072 0.517064 0.524759 0.263054
H173  H     H_    0.755134 0.528693 0.547579 0.133873
H174  H     H_    0.792451 0.572008 0.584211 0.148986
H175  H     H_    0.506689 0.114585 0.618061 0.136594
H176  H     H_    0.796676 0.473284 0.579794 0.138513
H177  H     H_    0.494860 0.130622 0.474646 0.258520
H178  H     H_    0.512819 0.242913 0.452544 0.134873
H179  H     H_    0.485441 0.213600 0.411456 0.138589
H180  H     H_    0.574516 0.188189 0.427916 0.145297
H181  H     H_    0.498282 0.864080 0.525416 0.251534
H182  H     H_    0.520813 0.753568 0.548261 0.130353
H183  H     H_    0.480317 0.781230 0.587239 0.139961
H184  H     H_    0.573623 0.806900 0.577673 0.151708
H185  H     H_    0.370352 0.940618 0.968839 0.244190
H186  H     H_    0.114738 0.520815 0.381468 0.127245
H187  H     H_    0.253871 0.980191 0.951808 0.138120
H188  H     H_    0.290344 0.936822 0.914721 0.129095
H189  H     H_    0.293205 0.035026 0.919260 0.151403
H190  H     H_    0.632834 0.013034 0.026371 0.258435
H191  H     H_    0.746874 0.996057 0.048361 0.135923
H192  H     H_    0.710741 0.948316 0.083653 0.147402
H193  H     H_    0.703758 0.046992 0.081827 0.134552
H194  H     H_    0.048554 0.377506 0.973835 0.252236
H195  H     H_    0.007969 0.265632 0.958091 0.130908
H196  H     H_    0.029936 0.285147 0.914836 0.140580
H197  H     H_    0.888291 0.533608 0.617975 0.132921
H198  H     H_    0.943974 0.315564 0.932705 0.147320
H199  H     H_    0.964985 0.633904 0.028705 0.248842
H200  H     H_    0.976494 0.748817 0.051451 0.133775
H201  H     H_    0.027052 0.715627 0.086650 0.141972
H202  H     H_    0.928590 0.699839 0.084031 0.147283
H203  H     H_    0.628288 0.058981 0.968535 0.243811
H204  H     H_    0.744917 0.014051 0.953188 0.138861
H205  H     H_    0.709840 0.059321 0.916365 0.127701
H206  H     H_    0.705116 0.961066 0.919849 0.152015
H207  H     H_    0.365802 0.980463 0.027020 0.255680
H208  H     H_    0.475635 0.112654 0.382022 0.130009
H209  H     H_    0.252245 0.004091 0.048385 0.136819
H210  H     H_    0.290333 0.052934 0.083180 0.146687
H211  H     H_    0.294129 0.954205 0.082383 0.135347
H212  H     H_    0.988836 0.635657 0.973248 0.254246
H213  H     H_    0.987191 0.748366 0.949839 0.134892
H214  H     H_    0.959117 0.713588 0.909806 0.139485
H215  H     H_    0.052721 0.700925 0.924101 0.142242
H216  H     H_    0.984414 0.370266 0.023568 0.254025
H217  H     H_    0.990378 0.256381 0.045434 0.130622
H218  H     H_    0.952479 0.288306 0.084246 0.143176
H219  H     H_    0.491304 0.883943 0.618522 0.140586
H220  H     H_    0.049118 0.300193 0.075957 0.148295
H221  H     H_    0.287618 0.883835 0.180231 0.128488
H222  H     H_    0.259534 0.965294 0.203806 0.216640
H223  H     H_    0.142250 0.966614 0.174499 0.167805
H224  H     H_    0.222814 0.983042 0.149469 0.088945
H225  H     H_    0.178939 0.897076 0.145982 0.126841
H226  H     H_    0.733388 0.038153 0.804056 0.215671
H227  H     H_    0.717792 0.126631 0.821719 0.096559
H228  H     H_    0.813851 0.106588 0.858174 0.090904
H229  H     H_    0.809988 0.015067 0.844698 0.101694
H230  H     H_    0.385142 0.980649 0.881309 0.127639
H231  H     H_    0.873278 0.074170 0.824277 0.204218
H232  H     H_    0.046920 0.278140 0.189082 0.204034
H233  H     H_    0.071610 0.210513 0.219907 0.127297
H234  H     H_    0.104487 0.130200 0.170034 0.172808
H235  H     H_    0.011854 0.162687 0.168360 0.113872
H236  H     H_    0.078534 0.203859 0.141787 0.125333
H237  H     H_    0.965728 0.738057 0.801095 0.217906
H238  H     H_    0.879952 0.721924 0.821842 0.097596
H239  H     H_    0.884658 0.849700 0.842408 0.157221
H240  H     H_    0.967811 0.802428 0.852509 0.064908
N1    N     N_2   0.869205 0.478247 0.449925 -0.520128
N2    N     N_2   0.633136 0.988476 0.049746 -0.506313
N3    N     N_2   0.037311 0.373592 0.948442 -0.519119
N4    N     N_2   0.993785 0.636072 0.051121 -0.511486
N5    N     N_2   0.631335 0.019248 0.950198 -0.515773
N6    N     N_2   0.366046 0.008145 0.049675 -0.506575
N7    N     N_2   0.974665 0.635417 0.948157 -0.512357
N8    N     N_2   0.977843 0.369212 0.049350 -0.516943
N9    N     N_2   0.132828 0.478518 0.549987 -0.510901
N10   N     N_2   0.535800 0.868196 0.447162 -0.518523
N11   N     N_2   0.498926 0.130964 0.549730 -0.514449
N12   N     N_2   0.132332 0.524989 0.449676 -0.519548
N13   N     N_2   0.869485 0.533499 0.549697 -0.509664
N14   N     N_2   0.485477 0.132704 0.449144 -0.514628
N15   N     N_2   0.491762 0.863540 0.551151 -0.517090
N16   N     N_2   0.367611 0.977466 0.949421 -0.515078
O1    O     O_3   0.500000 0.000000 0.250000 -0.445261
O2    O     O_R   0.500000 0.939240 0.675070 -0.542108
O3    O     O_R   0.939240 0.500000 0.324930 -0.570158
O4    O     O_R   0.060760 0.500000 0.675070 -0.564169
O5    O     O_R   0.000000 0.439240 0.824930 -0.564985
O6    O     O_R   0.000000 0.560760 0.175070 -0.545983
O7    O     O_R   0.560760 0.000000 0.824930 -0.565149
O8    O     O_R   0.439240 0.000000 0.175070 -0.558640
O9    O     O_R   0.000000 0.560760 0.824930 -0.563841
O10   O     O_R   0.000000 0.439240 0.175070 -0.553237
O11   O     O_R   0.439240 0.000000 0.824930 -0.568414
O12   O     O_3   0.500000 0.000000 0.750000 -0.447984
O13   O     O_R   0.560760 0.000000 0.175070 -0.564385
O14   O     O_R   0.414510 0.146130 0.269710 -0.546865
O15   O     O_R   0.585490 0.853870 0.730290 -0.527111
O16   O     O_R   0.853870 0.414510 0.269710 -0.553284
O17   O     O_R   0.146130 0.585490 0.730290 -0.548388
O18   O     O_R   0.585490 0.853870 0.269710 -0.539617
O19   O     O_R   0.414510 0.146130 0.730290 -0.550130
O20   O     O_R   0.146130 0.585490 0.269710 -0.559538
O21   O     O_R   0.853870 0.414510 0.730290 -0.561323
O22   O     O_R   0.414510 0.853870 0.730290 -0.512014
O23   O     O_3   0.000000 0.500000 0.250000 -0.446717
O24   O     O_R   0.585490 0.146130 0.269710 -0.496246
O25   O     O_R   0.853870 0.585490 0.730290 -0.501122
O26   O     O_R   0.146130 0.414510 0.269710 -0.493361
O27   O     O_R   0.585490 0.146130 0.730290 -0.510538
O28   O     O_R   0.414510 0.853870 0.269710 -0.481504
O29   O     O_R   0.146130 0.414510 0.730290 -0.502052
O30   O     O_R   0.853870 0.585490 0.269710 -0.495499
O31   O     O_R   0.914510 0.646130 0.769710 -0.563282
O32   O     O_R   0.085490 0.353870 0.230290 -0.554952
O33   O     O_R   0.353870 0.914510 0.769710 -0.559481
O34   O     O_3   0.000000 0.500000 0.750000 -0.445122
O35   O     O_R   0.646130 0.085490 0.230290 -0.546449
O36   O     O_R   0.085490 0.353870 0.769710 -0.547724
O37   O     O_R   0.914510 0.646130 0.230290 -0.547499
O38   O     O_R   0.646130 0.085490 0.769710 -0.562786
O39   O     O_R   0.353870 0.914510 0.230290 -0.582857
O40   O     O_R   0.914510 0.353870 0.230290 -0.513684
O41   O     O_R   0.085490 0.646130 0.769710 -0.503033
O42   O     O_R   0.353870 0.085490 0.230290 -0.515673
O43   O     O_R   0.646130 0.914510 0.769710 -0.499464
O44   O     O_R   0.085490 0.646130 0.230290 -0.508177
O45   O     O_R   0.500000 0.939240 0.324930 -0.569929
O46   O     O_R   0.914510 0.353870 0.769710 -0.492978
O47   O     O_R   0.646130 0.914510 0.230290 -0.499973
O48   O     O_R   0.353870 0.085490 0.769710 -0.495806
O49   O     O_3   0.204459 0.874280 0.217271 -0.529893
O50   O     O_3   0.789676 0.117884 0.779430 -0.507589
O51   O     O_3   0.157494 0.261393 0.192687 -0.536618
O52   O     O_3   0.879820 0.789389 0.778042 -0.509799
O53   O     O_3   0.780405 0.120306 0.214976 -0.506277
O54   O     O_3   0.214711 0.879578 0.784210 -0.503355
O55   O     O_3   0.854800 0.749725 0.197839 -0.535039
O56   O     O_R   0.500000 0.060760 0.675070 -0.551653
O57   O     O_3   0.121151 0.218163 0.781551 -0.502109
O58   O     O_3   0.245646 0.144017 0.798898 -0.497621
O59   O     O_3   0.752080 0.854788 0.199121 -0.511329
O60   O     O_3   0.139278 0.756998 0.798112 -0.498166
O61   O     O_3   0.855591 0.246018 0.199898 -0.512558
O62   O     O_3   0.752534 0.853936 0.801103 -0.498431
O63   O     O_3   0.255297 0.151872 0.195271 -0.523647
O64   O     O_3   0.862757 0.241372 0.797150 -0.490706
O65   O     O_3   0.147778 0.745689 0.198310 -0.506898
O66   O     O_3   0.711609 0.380067 0.720548 -0.519875
O67   O     O_R   0.060760 0.500000 0.324930 -0.569122
O68   O     O_3   0.283257 0.624335 0.287058 -0.498251
O69   O     O_3   0.635416 0.741960 0.702774 -0.527261
O70   O     O_3   0.377490 0.280829 0.284318 -0.498953
O71   O     O_3   0.281785 0.622464 0.716025 -0.514799
O72   O     O_3   0.718759 0.376645 0.286891 -0.497016
O73   O     O_3   0.349115 0.244214 0.695144 -0.542516
O74   O     O_3   0.628088 0.726679 0.289526 -0.492196
O75   O     O_3   0.748195 0.644530 0.299898 -0.488135
O76   O     O_3   0.252875 0.355805 0.698860 -0.515941
O77   O     O_3   0.638991 0.256412 0.297876 -0.485832
O78   O     O_R   0.939240 0.500000 0.675070 -0.559519
O79   O     O_3   0.353521 0.748623 0.698876 -0.520447
O80   O     O_3   0.254599 0.357810 0.298626 -0.491434
O81   O     O_3   0.744120 0.642164 0.700170 -0.516315
O82   O     O_3   0.361093 0.745711 0.297910 -0.480859
O83   O     O_3   0.642028 0.254540 0.700917 -0.514348
O84   O     O_R   0.500000 0.060760 0.324930 -0.567568
Zn1   Zn    Zn3+2 0.413200 0.000000 0.222070 0.910081
Zn2   Zn    Zn3+2 0.086800 0.500000 0.277930 0.922111
Zn3   Zn    Zn3+2 0.500000 0.913200 0.722070 0.942331
Zn4   Zn    Zn3+2 0.500000 0.086800 0.277930 0.925101
Zn5   Zn    Zn3+2 0.086800 0.500000 0.722070 0.927960
Zn6   Zn    Zn3+2 0.913200 0.500000 0.277930 0.920679
Zn7   Zn    Zn3+2 0.500000 0.086800 0.722070 0.928614
Zn8   Zn    Zn3+2 0.500000 0.913200 0.277930 0.933122
Zn9   Zn    Zn3+2 0.586800 0.000000 0.777930 0.919111
Zn10  Zn    Zn3+2 0.000000 0.413200 0.222070 0.927046
Zn11  Zn    Zn3+2 0.000000 0.586800 0.777930 0.919786
Zn12  Zn    Zn3+2 0.586800 0.000000 0.222070 0.929978
Zn13  Zn    Zn3+2 0.413200 0.000000 0.777930 0.919519
Zn14  Zn    Zn3+2 0.000000 0.586800 0.222070 0.932791
Zn15  Zn    Zn3+2 0.000000 0.413200 0.777930 0.929518
Zn16  Zn    Zn3+2 0.913200 0.500000 0.722070 0.925322

loop_
_geom_bond_atom_site_label_1
_geom_bond_atom_site_label_2
_ccdc_geom_bond_type
C31   C161  S    
C115  H138  S    
C174  O32   A    
C1    N1    S    
C159  O10   A    
C76   H42   S    
C76   O61   S    
C145  C146  T    
C169  O20   A    
C54   H227  S    
C180  O49   S    
C120  H151  S    
C126  C187  A    
C166  O17   A    
C206  O75   S    
C43   H189  S    
C6    C25   A    
C30   C131  A    
C63   O54   S    
C27   C90   A    
O20   Zn2   S    
C121  H154  S    
C86   H69   S    
O45   Zn8   S    
C140  C198  A    
C40   N13   S    
C51   H218  S    
C85   O65   S    
C5    O81   S    
C66   H19   S    
C154  N12   S    
C99   H99   S    
C157  O78   A    
C182  C194  A    
C105  H115  S    
C1    C136  A    
C114  H134  S    
H203  N5    S    
C29   C155  S    
C163  O43   A    
C59   C60   S    
C10   C162  S    
O42   Zn1   S    
O16   Zn6   S    
C95   H89   S    
C175  O38   A    
C158  O9    A    
C52   O49   S    
C46   C141  A    
C12   C192  A    
C49   H211  S    
C137  C146  S    
C104  H110  S    
C34   H101  S    
O4    Zn5   S    
C74   C75   S    
C109  H127  S    
C101  H164  S    
C111  O79   S    
C59   H238  S    
C108  H125  S    
C94   H87   S    
C186  C190  A    
O22   Zn3   S    
C72   H32   S    
C33   C135  A    
C13   C142  A    
C47   H200  S    
C110  H130  S    
O31   Zn11  S    
C20   C172  S    
C21   C173  S    
C116  H139  S    
C41   H178  S    
C1    C79   A    
C185  O54   S    
C91   H77   S    
C37   H161  S    
C26   C123  A    
O25   Zn16  S    
O3    Zn6   S    
C36   H157  S    
C39   H171  S    
C28   C125  A    
C34   N1    S    
C41   N14   S    
C100  H103  S    
C29   C113  A    
C30   C127  A    
C156  O67   A    
C126  H219  S    
C11   C193  A    
C72   C73   S    
C88   H74   S    
C9    C195  A    
C43   H187  S    
C87   O66   S    
O39   Zn1   S    
O13   Zn12  S    
O44   Zn14  S    
C109  O77   S    
C86   H67   S    
C63   H9    S    
C10   C194  A    
C199  O68   S    
C48   H204  S    
O18   Zn8   S    
O21   Zn16  S    
C171  O33   A    
C4    C201  A    
C65   O55   S    
C112  N9    S    
C66   H17   S    
C78   H49   S    
C177  O28   A    
C178  O36   A    
C70   H27   S    
C36   H135  S    
C166  O41   A    
O12   Zn13  S    
C198  N16   S    
C121  O83   S    
C101  C132  A    
C47   N4    S    
C5    C21   A    
C67   H21   S    
O8    Zn1   S    
C92   H82   S    
C3    C202  A    
C108  H122  S    
C16   C204  A    
C87   H70   S    
O23   Zn10  S    
C75   H40   S    
C93   H83   S    
C156  O3    A    
C123  C154  A    
C33   C130  A    
C81   H53   S    
O35   Zn12  S    
C118  H147  S    
C94   O70   S    
C147  C148  T    
C115  O80   S    
C44   H192  S    
C25   C180  A    
C102  H106  S    
C85   C86   S    
C122  H158  S    
C84   H61   S    
C85   H64   S    
C161  O8    A    
C38   N11   S    
C6    C199  A    
C100  H104  S    
C78   C80   S    
C12   C203  A    
C56   O51   S    
C17   C188  A    
C115  C116  S    
C34   H113  S    
C120  H150  S    
C69   H25   S    
C11   C200  A    
C110  H128  S    
C117  O81   S    
C139  C143  A    
C73   H34   S    
C83   C84   S    
O38   Zn9   S    
H163  N11   S    
C105  H116  S    
C107  C108  S    
C8    C196  A    
C47   H202  S    
C163  O15   A    
C89   C91   S    
C48   H205  S    
C44   N2    S    
C39   H169  S    
C116  H140  S    
C68   N8    S    
O23   Zn14  S    
C134  H57   S    
C96   C97   S    
C98   H97   S    
C15   C167  S    
C208  O77   S    
C177  O39   A    
C61   H5    S    
C60   H239  S    
H159  N10   S    
C32   C129  A    
C105  O75   S    
C9    C197  A    
C141  C150  S    
C56   H233  S    
C155  O2    A    
H190  N2    S    
C164  O40   A    
C139  C148  S    
C93   H85   S    
C38   H166  S    
C71   H30   S    
O84   Zn4   S    
C77   H45   S    
C157  O4    A    
C13   N3    S    
C50   H215  S    
C80   H51   S    
C55   H231  S    
O48   Zn13  S    
C58   H236  S    
C52   H221  S    
C53   H224  S    
C61   H4    S    
H199  N4    S    
C205  O74   S    
C58   H234  S    
C45   H196  S    
C4    C22   A    
C107  O76   S    
C34   H90   S    
C130  H24   S    
C106  H118  S    
C11   C163  S    
C122  H155  S    
C172  O24   A    
C72   H31   S    
C64   H14   S    
O46   Zn15  S    
C77   H44   S    
C158  O5    A    
C3    O79   S    
C4    O80   S    
C97   H95   S    
O30   Zn6   S    
C169  O44   A    
C98   C99   S    
O34   Zn16  S    
C118  H145  S    
C82   H56   S    
C28   C153  S    
C202  O71   S    
C119  H149  S    
O14   Zn4   S    
C204  O73   S    
O6    Zn14  S    
O37   Zn14  S    
C42   H184  S    
C54   C55   S    
C115  H137  S    
C89   H76   S    
C64   H11   S    
C104  H111  S    
C74   O60   S    
C68   C135  A    
C162  O14   A    
C172  O35   A    
C63   C64   S    
C24   N4    S    
C180  C196  A    
C27   C124  A    
C190  O59   S    
H181  N15   S    
C47   H201  S    
C203  C208  A    
C103  O74   S    
C20   C184  A    
C120  H152  S    
C144  C152  S    
C117  C118  S    
C32   C134  A    
H177  N14   S    
C76   H43   S    
O12   Zn3   S    
O41   Zn11  S    
C73   H36   S    
C7    C23   A    
C174  O26   A    
O43   Zn9   S    
O1    Zn4   S    
C85   H65   S    
C68   C144  A    
C121  H153  S    
C49   N6    S    
C65   H16   S    
C61   C62   S    
C117  H143  S    
C170  O46   A    
C124  C165  A    
C24   C130  A    
C51   H217  S    
C116  H141  S    
O9    Zn11  S    
C111  H132  S    
C99   H102  S    
C97   H94   S    
C125  C176  A    
C140  C149  S    
C72   O59   S    
C74   H37   S    
O32   Zn10  S    
C87   C88   S    
C62   H6    S    
C62   H7    S    
C164  O16   A    
O33   Zn13  S    
C77   H47   S    
O56   Zn7   S    
C81   O63   S    
C40   H174  S    
C50   H213  S    
C137  C165  A    
C55   H229  S    
C39   N12   S    
C42   N15   S    
C127  C198  A    
C52   C53   S    
C49   H210  S    
C155  O56   A    
C83   H60   S    
C119  H148  S    
C23   C181  A    
C69   H23   S    
C109  H126  S    
C74   H38   S    
C25   C177  S    
C59   O52   S    
C59   H237  S    
C23   C175  S    
C40   H173  S    
O12   Zn7   S    
C132  C138  A    
O17   Zn5   S    
O1    Zn8   S    
O47   Zn12  S    
C179  O37   A    
C128  H2    S    
C43   N16   S    
C28   C101  A    
H207  N6    S    
C37   H160  S    
C53   H225  S    
C151  C152  T    
C184  C192  A    
C70   C71   S    
C113  H175  S    
C5    C200  A    
O10   Zn10  S    
C93   H84   S    
O5    Zn15  S    
C48   N5    S    
C42   H182  S    
C61   O53   S    
C162  O42   A    
C98   O72   S    
C197  O66   S    
C91   H80   S    
C62   H8    S    
O29   Zn5   S    
C185  C191  A    
C78   O62   S    
C17   C207  A    
C95   H88   S    
C183  O52   S    
O36   Zn15  S    
H79   N1    S    
C194  O63   S    
C165  N13   S    
C81   C82   S    
C196  O65   S    
C113  C143  A    
C84   H63   S    
O67   Zn2   S    
C35   C140  A    
C12   C164  S    
C136  C154  A    
C55   H228  S    
C102  H107  S    
C204  C207  A    
C66   H18   S    
C168  O19   A    
C125  H208  S    
C99   H100  S    
C82   H58   S    
C97   H96   S    
C87   H71   S    
C182  O51   S    
C88   H72   S    
C114  H133  S    
C121  C122  S    
C15   C205  A    
C57   C142  A    
C119  O82   S    
C57   C134  A    
C46   N6    S    
C160  O11   A    
C27   C157  S    
C118  H144  S    
C40   H176  S    
C170  O21   A    
C35   C131  A    
C65   H15   S    
C75   H39   S    
C176  N14   S    
C92   O69   S    
C79   H1    S    
O19   Zn7   S    
C207  O76   S    
C7    O83   S    
C112  C137  A    
C133  H46   S    
C119  C120  S    
O12   Zn9   S    
C105  C106  S    
C26   C79   A    
C84   H62   S    
C78   H48   S    
C94   H86   S    
C10   C201  A    
C171  O22   A    
C159  O6    A    
C90   H112  S    
C149  C150  T    
C19   C185  A    
C46   C133  A    
C24   C144  A    
C92   C93   S    
C183  C193  A    
C70   O58   S    
C111  C114  S    
C94   C95   S    
C181  C195  A    
C60   H3    S    
C110  H129  S    
C167  O47   A    
C73   H33   S    
C22   C182  A    
C36   N9    S    
C103  C104  S    
C41   H179  S    
O1    Zn1   S    
C91   H78   S    
C37   H162  S    
C56   H232  S    
H194  N3    S    
C75   H41   S    
C160  O7    A    
C48   H206  S    
C33   C159  S    
H185  N16   S    
C2    C128  A    
C17   C178  S    
C142  C151  S    
O34   Zn5   S    
C8    C169  S    
C45   N3    S    
C103  H109  S    
H172  N13   S    
C98   H98   S    
C26   C156  S    
C90   C112  A    
C203  O72   S    
C31   C133  A    
C88   H73   S    
C44   H193  S    
C43   H188  S    
C205  C206  A    
C30   C160  S    
C7    C197  A    
C53   H223  S    
C38   H167  S    
C71   H29   S    
C63   H10   S    
O40   Zn10  S    
C19   C171  S    
C175  O27   A    
O28   Zn8   S    
C96   H92   S    
C54   O50   S    
C189  O58   S    
C102  H105  S    
O24   Zn4   S    
C192  O61   S    
C52   H222  S    
C35   N5    S    
C201  O70   S    
C135  H68   S    
C191  O60   S    
C60   H240  S    
C153  O45   A    
C104  H114  S    
C58   H235  S    
C45   H195  S    
C96   O71   S    
C56   C58   S    
C106  H119  S    
O15   Zn3   S    
C92   H81   S    
C122  H156  S    
C50   N7    S    
C173  O31   A    
C80   H52   S    
C186  O55   S    
C132  N10   S    
C136  C145  S    
H212  N7    S    
C188  O57   S    
C81   H54   S    
C29   C126  A    
C107  H120  S    
C31   C128  A    
C44   H191  S    
C139  C187  A    
O11   Zn13  S    
C22   C174  S    
C32   C158  S    
C83   O64   S    
O7    Zn9   S    
C89   H75   S    
C51   N8    S    
C64   H12   S    
O1    Zn12  S    
C76   C77   S    
O23   Zn2   S    
C129  H13   S    
C200  O69   S    
C187  N15   S    
C127  H230  S    
H124  N9    S    
C36   H146  S    
C18   C186  A    
C178  O29   A    
C103  H108  S    
C6    O82   S    
C188  C189  A    
C67   C69   S    
C89   O68   S    
C143  N11   S    
C124  H197  S    
O26   Zn2   S    
O34   Zn11  S    
C41   H180  S    
C14   C202  A    
C123  H186  S    
C138  C147  S    
C3    C19   A    
C100  C102  S    
C54   H226  S    
O27   Zn7   S    
C71   H28   S    
C117  H142  S    
C39   H170  S    
C14   C191  A    
C51   H220  S    
C15   C190  A    
C18   C179  S    
O34   Zn15  S    
C179  O30   A    
C138  C176  A    
C67   O57   S    
C111  H131  S    
H168  N12   S    
C14   C166  S    
C96   H93   S    
C20   C208  A    
C153  O84   A    
C168  O48   A    
C114  H136  S    
C45   H198  S    
C21   C183  A    
O78   Zn16  S    
C13   C129  A    
H216  N8    S    
C38   H165  S    
C95   H91   S    
C167  O18   A    
C161  O13   A    
C100  O73   S    
C50   H214  S    
O23   Zn6   S    
C37   N10   S    
C9    C170  S    
C49   H209  S    
C70   H26   S    
C18   C206  A    
C83   H59   S    
C131  H35   S    
C69   H22   S    
C57   N7    S    
C193  O62   S    
C67   H20   S    
C16   C168  S    
C106  H117  S    
C184  O53   S    
C195  O64   S    
C173  O25   A    
C107  H121  S    
C108  H123  S    
O2    Zn3   S    
C80   H50   S    
C65   C66   S    
C109  C110  S    
C82   H55   S    
C86   H66   S    
C2    C141  A    
C8    C199  A    
C181  O50   S    
C16   C189  A    
C42   H183  S    
C2    N2    S    
