data_mof_unit_49422.cif
_audit_creation_date              2012-12-10T18:59:18-0500
_audit_creation_method            fapswitch 2.2
_symmetry_space_group_name_H-M    P1
_symmetry_Int_Tables_number       1
_space_group_crystal_system       triclinic
_cell_length_a                    10.889201
_cell_length_b                    10.902803
_cell_length_c                    9.559828
_cell_angle_alpha                 89.177077
_cell_angle_beta                  87.298264
_cell_angle_gamma                 91.355744
_cell_volume                      1133.25459007

loop_
_atom_site_label
_atom_site_type_symbol
_atom_type_description
_atom_site_fract_x
_atom_site_fract_y
_atom_site_fract_z
_atom_type_partial_charge
C1    C     C_R   0.501738 0.262345 0.500565 0.833965
C2    C     C_R   0.051521 0.492228 0.633076 0.093477
C3    C     C_R   0.126842 0.516494 0.509595 -0.107082
C4    C     C_R   0.071582 0.529446 0.381245 -0.170625
C5    C     C_R   0.945420 0.514614 0.370646 0.013343
C6    C     C_R   0.872210 0.477380 0.491103 -0.203063
C7    C     C_R   0.498726 0.060427 0.625031 0.007188
C8    C     C_R   0.511555 0.129298 0.500528 -0.043672
C9    C     C_R   0.539362 0.067227 0.375057 -0.153005
C10   C     C_R   0.540097 0.938850 0.373933 -0.170560
C11   C     C_R   0.514268 0.870963 0.498391 -0.072720
C12   C     C_R   0.262005 0.507694 0.503517 0.871796
C13   C     C_R   0.502914 0.934033 0.624003 0.047010
C14   C     C_3   0.407790 0.919059 0.740748 -0.444571
C15   C     C_3   0.402823 0.058209 0.744031 -0.045392
C16   C     C_R   0.595298 0.553023 0.067319 0.219238
C17   C     C_R   0.414254 0.435262 0.082410 -0.015367
C18   C     C_R   0.413557 0.433489 0.933859 0.014065
C19   C     C_R   0.597085 0.550330 0.920280 0.253049
C20   C     C_3   0.646569 0.678411 0.906794 -0.456923
C21   C     C_3   0.636993 0.684287 0.065471 -0.486058
C22   C     C_R   0.502965 0.737657 0.499074 0.831784
C23   C     C_R   0.737492 0.490224 0.496788 0.786115
C24   C     C_R   0.088463 0.509559 0.772453 -0.007986
C25   C     C_R   0.024308 0.447063 0.883426 -0.112256
C26   C     C_R   0.919238 0.377260 0.859478 -0.139805
C27   C     C_R   0.870109 0.380699 0.727869 -0.144723
C28   C     C_R   0.930420 0.448567 0.616540 0.073925
Cu1   Cu    Cu3+1 0.499990 0.499980 0.640670 0.944511
Cu2   Cu    Cu3+1 0.500010 0.500020 0.359330 0.959595
H1    H     H_    0.127582 0.550159 0.286621 0.188865
H2    H     H_    0.743081 0.681806 0.863121 0.217087
H3    H     H_    0.584409 0.740781 0.854580 0.213152
H4    H     H_    0.563180 0.745520 0.104019 0.209411
H5    H     H_    0.871136 0.327513 0.945099 0.136200
H6    H     H_    0.784934 0.330140 0.713748 0.145452
H7    H     H_    0.555705 0.117189 0.276950 0.177282
H8    H     H_    0.323180 0.874348 0.704248 0.246664
N1    N     N_R   0.500790 0.500930 0.147930 -0.220494
N2    N     N_R   0.500790 0.500890 0.852020 -0.240312
O1    O     O_R   0.500000 0.319640 0.618810 -0.634324
O2    O     O_R   0.500010 0.319680 0.381230 -0.580051
O3    O     O_R   0.319640 0.499980 0.618820 -0.600900
O4    O     O_R   0.319650 0.500020 0.381230 -0.593280
O5    O     O_R   0.499990 0.680320 0.618770 -0.570805
O6    O     O_R   0.500000 0.680360 0.381190 -0.582994
O7    O     O_R   0.680350 0.499980 0.618770 -0.578886
O8    O     O_R   0.680360 0.500020 0.381180 -0.601869
H9    H     H_    0.442636 0.876835 0.836700 0.200655
C29   C     C_2   0.275894 0.101589 0.712193 0.393729
H10   H     H_    0.201852 0.090504 0.791713 0.143843
O9    O     O_2   0.253889 0.146693 0.598719 -0.560367
C30   C     C_2   0.452172 0.110474 0.875829 0.338928
H11   H     H_    0.528232 0.176853 0.869699 0.068864
O10   O     O_2   0.405915 0.080388 0.990440 -0.521381
H12   H     H_    0.345399 0.384231 0.146144 0.203798
C31   C     C_2   0.319031 0.354058 0.873065 0.293873
H13   H     H_    0.320283 0.335553 0.763820 0.166839
O11   O     O_2   0.239251 0.301885 0.947578 -0.577550
H14   H     H_    0.726855 0.699051 0.113005 0.240980
C32   C     C_2   0.172002 0.611196 0.810097 0.424023
H15   H     H_    0.212065 0.612276 0.911946 0.070192
O12   O     O_2   0.191574 0.698136 0.730051 -0.573855
H16   H     H_    0.053731 0.455352 0.989513 0.176966
C33   C     C_2   0.896775 0.532672 0.229850 0.327842
H17   H     H_    0.824749 0.472755 0.193128 0.093050
O13   O     O_2   0.940332 0.613207 0.150983 -0.576293
H18   H     H_    0.556327 0.893453 0.275361 0.160413

loop_
_geom_bond_atom_site_label_1
_geom_bond_atom_site_label_2
_ccdc_geom_bond_type
C29   O9    D    
C16   C21   S    
C21   H4    S    
C10   H18   S    
C27   H6    S    
C14   H8    S    
C1    C8    S    
C2    C28   A    
C9    C10   A    
C26   H5    S    
C18   C31   S    
C19   C20   S    
C20   C21   S    
C7    C15   S    
C29   H10   S    
C31   H13   S    
C7    C8    A    
C12   O4    A    
C30   H11   S    
Cu1   O3    S    
C4    C5    A    
C11   C13   A    
C17   H12   S    
Cu2   O4    S    
C26   C27   A    
C24   C32   S    
Cu1   O7    S    
C16   C19   A    
C5    C6    A    
C20   H3    S    
C15   C30   S    
Cu1   N2    S    
C9    H7    S    
C22   O6    A    
Cu2   N1    S    
C17   C18   A    
C12   O3    A    
C2    C3    A    
C19   N2    A    
C30   O10   D    
C2    C24   A    
C32   H15   S    
C31   O11   D    
C4    H1    S    
C23   O7    A    
C10   C11   A    
C6    C23   S    
C16   N1    A    
Cu1   Cu2   S    
C3    C4    A    
C14   H9    S    
C1    O2    A    
C7    C13   A    
C22   O5    A    
C23   O8    A    
C24   C25   A    
C21   H14   S    
C5    C33   S    
C33   H17   S    
C20   H2    S    
C15   C29   S    
Cu2   O8    S    
C27   C28   A    
C32   O12   D    
C17   N1    A    
C14   C15   S    
Cu2   O2    S    
C18   N2    A    
C3    C12   S    
C11   C22   S    
Cu1   O1    S    
C25   C26   A    
C13   C14   S    
Cu2   O6    S    
C6    C28   A    
C1    O1    A    
Cu1   O5    S    
C8    C9    A    
C33   O13   D    
C25   H16   S    
