data_mof_unit_30705.cif
_audit_creation_date              2013-03-05T16:41:36-0500
_audit_creation_method            fapswitch 2.2
_symmetry_space_group_name_H-M    P1
_symmetry_Int_Tables_number       1
_space_group_crystal_system       triclinic
_cell_length_a                    12.853714
_cell_length_b                    10.669255
_cell_length_c                    9.875669
_cell_angle_alpha                 89.690415
_cell_angle_beta                  97.132156
_cell_angle_gamma                 90.462203
_cell_volume                      1343.80851573

loop_
_atom_site_label
_atom_site_type_symbol
_atom_site_description
_atom_site_fract_x
_atom_site_fract_y
_atom_site_fract_z
_atom_type_partial_charge
O1    O     O_R   0.500010 0.316790 0.614690 -0.605788
O2    O     O_R   0.500000 0.316760 0.385350 -0.619427
C1    C     C_R   0.504041 0.259951 0.500810 0.894513
O3    O     O_R   0.346360 0.499990 0.595720 -0.610717
O4    O     O_R   0.346350 0.499960 0.366370 -0.626487
C2    C     C_R   0.298225 0.501465 0.473092 0.905466
Zn1   Zn    Zn3+2 0.500010 0.500020 0.653130 0.959326
Zn2   Zn    Zn3+2 0.499990 0.499980 0.346870 0.948937
O5    O     O_R   0.500000 0.683240 0.614650 -0.624780
O6    O     O_R   0.499990 0.683210 0.385310 -0.622525
O7    O     O_R   0.653650 0.500040 0.633630 -0.625625
O8    O     O_R   0.653640 0.500010 0.404280 -0.628432
C3    C     C_R   0.504144 0.740041 0.500354 0.872868
C4    C     C_R   0.701794 0.500089 0.526763 0.875241
C5    C     C_R   0.813947 0.504210 0.542744 -0.046720
C6    C     C_R   0.186017 0.501991 0.455829 -0.036170
C7    C     C_R   0.021733 0.440425 0.329683 -0.204756
C8    C     C_R   0.129580 0.451374 0.338216 -0.194730
C9    C     C_R   0.135345 0.546591 0.562462 -0.210645
C10   C     C_R   0.028350 0.532666 0.556824 0.197787
C11   C     C_R   0.971240 0.478944 0.439503 0.178943
C12   C     C_R   0.864401 0.464671 0.433712 -0.273126
C13   C     C_R   0.870209 0.554734 0.660628 -0.199069
C14   C     C_R   0.977861 0.569476 0.667453 -0.191194
H1    H     H_    0.820322 0.423963 0.343474 0.158626
H2    H     H_    0.830776 0.585961 0.745066 0.155640
H3    H     H_    0.978315 0.399620 0.239236 0.146938
H4    H     H_    0.021318 0.609880 0.758095 0.141050
H5    H     H_    0.168850 0.416700 0.255433 0.159917
H6    H     H_    0.179475 0.589081 0.651375 0.135796
C15   C     C_R   0.526692 0.063364 0.626610 0.084940
C16   C     C_R   0.523044 0.128809 0.503914 -0.102128
C17   C     C_R   0.540678 0.065780 0.384501 -0.204033
H7    H     H_    0.546327 0.115331 0.289582 0.176568
C18   C     C_R   0.540655 0.936111 0.384246 -0.214824
H8    H     H_    0.546262 0.887738 0.289243 0.170930
C19   C     C_R   0.523077 0.871396 0.503419 -0.094040
C20   C     C_R   0.526853 0.935384 0.626491 0.115688
C21   C     C_3   0.455471 0.926764 0.734824 -0.469910
C22   C     C_3   0.454610 0.068675 0.733858 -0.371382
H9    H     H_    0.377930 0.884111 0.697772 0.210660
H10   H     H_    0.495335 0.886328 0.831453 0.204185
H11   H     H_    0.377001 0.108122 0.693784 0.253166
H12   H     H_    0.493015 0.110755 0.830298 0.215123
C23   C     C_R   0.433557 0.422906 0.061460 0.190477
N1    N     N_R   0.499290 0.499140 0.142710 -0.105175
C24   C     C_R   0.571240 0.568701 0.082974 -0.126262
H13   H     H_    0.627352 0.626349 0.145888 0.147257
C25   C     C_R   0.571047 0.569019 0.939065 -0.136823
H14   H     H_    0.626903 0.626962 0.893478 0.145244
N2    N     N_R   0.499290 0.499180 0.857070 -0.130089
C26   C     C_R   0.434328 0.421098 0.918860 0.144095
C27   C     C_3   0.316825 0.421133 0.896829 0.116532
C28   C     C_3   0.317198 0.425254 0.050664 -0.572324
H15   H     H_    0.283470 0.506239 0.843215 0.110691
H16   H     H_    0.287530 0.515328 0.086398 0.189014
H17   H     H_    0.285079 0.340296 0.096617 0.236102
N3    N     N_R   0.273284 0.303714 0.837216 0.230132
O9    O     O_R   0.295442 0.196752 0.897662 -0.428040
O10   O     O_R   0.206237 0.306362 0.727287 -0.396629

loop_
_geom_bond_atom_site_label_1
_geom_bond_atom_site_label_2
_geom_bond_distance
_ccdc_geom_bond_type
O4    Zn2   2.007867 S    
C13   C14   1.384719 A    
O6    C3    1.285753 A    
C19   C20   1.392645 A    
C27   N3    1.464268 S    
C24   C25   1.420878 A    
C14   H4    1.084095 S    
C3    C19   1.420342 S    
C15   C16   1.391132 A    
C15   C20   1.365471 A    
Zn2   O8    1.985927 S    
C16   C17   1.404176 A    
C7    C11   1.396526 A    
C9    C10   1.376364 A    
C5    C13   1.400115 A    
C7    C8    1.382335 A    
Zn1   N2    2.015184 S    
C21   H9    1.112784 S    
C8    H5    1.081097 S    
O1    Zn1   1.993459 S    
C27   C28   1.519517 S    
C15   C22   1.492861 S    
Zn1   O7    2.007866 S    
C1    C16   1.421801 S    
O3    Zn1   1.985928 S    
Zn2   O6    1.993456 S    
C18   C19   1.402723 A    
O8    C4    1.288539 A    
C23   C28   1.486582 S    
O2    C1    1.283958 A    
C21   H10   1.112221 S    
Zn2   N1    2.015188 S    
C27   H15   1.110577 S    
C6    C9    1.392964 A    
O4    C2    1.286836 A    
C10   C14   1.397794 A    
O7    C4    1.287999 A    
C28   H16   1.111987 S    
O3    C2    1.289785 A    
C5    C12   1.393078 A    
C2    C6    1.431212 S    
N2    C26   1.368732 A    
C7    H3    1.084131 S    
C23   N1    1.359003 A    
C22   H12   1.112042 S    
C17   H7    1.083693 S    
C10   C11   1.413855 A    
C6    C8    1.399363 A    
C25   H14   1.081857 S    
N1    C24   1.368871 A    
C13   H2    1.083490 S    
C21   C22   1.514185 S    
Zn1   O5    1.989397 S    
C25   N2    1.368077 A    
O5    C3    1.284991 A    
C4    C5    1.430934 S    
C18   H8    1.083715 S    
C23   C26   1.409775 A    
C17   C18   1.383484 A    
N3    O9    1.302106 A    
C11   C12   1.374621 A    
C9    H6    1.083857 S    
N3    O10   1.299927 A    
C28   H17   1.110884 S    
C22   H11   1.111678 S    
O2    Zn2   1.989397 S    
C24   H13   1.081766 S    
C26   C27   1.498961 S    
O1    C1    1.287481 A    
C12   H1    1.085661 S    
C20   C21   1.495413 S    
