data_mof_unit_42967.cif
_audit_creation_date              2012-12-11T20:00:35-0500
_audit_creation_method            fapswitch 2.2
_symmetry_space_group_name_H-M    P1
_symmetry_Int_Tables_number       1
_space_group_crystal_system       triclinic
_cell_length_a                    8.30417
_cell_length_b                    16.32164
_cell_length_c                    26.882111
_cell_angle_alpha                 72.271657
_cell_angle_beta                  96.996228
_cell_angle_gamma                 96.209785
_cell_volume                      3434.92058395

loop_
_atom_site_label
_atom_site_type_symbol
_atom_type_description
_atom_site_fract_x
_atom_site_fract_y
_atom_site_fract_z
_atom_type_partial_charge
Ba1   Ba    Ba6+2 0.337820 0.939830 0.518500 1.628004
Ba2   Ba    Ba6+2 0.851970 0.060110 0.481480 1.624254
C1    C     C_3   0.078801 0.535099 0.611336 -0.367443
C2    C     C_R   0.459439 0.384156 0.190056 0.596300
C3    C     C_2   0.250239 0.249139 0.271412 -0.087380
C4    C     C_3   0.549509 0.638058 0.635459 0.408484
C5    C     C_3   0.205359 0.189652 0.324517 -0.028479
C6    C     C_1   0.475369 0.140216 0.339405 0.079001
C7    C     C_2   0.511190 0.182436 0.290762 -0.097477
C8    C     C_2   0.394991 0.243356 0.254296 0.231792
C9    C     C_R   0.523160 0.395378 0.101693 -0.083165
C10   C     C_R   0.500551 0.304741 0.114315 -0.027661
C11   C     C_R   0.517536 0.265690 0.075646 -0.059008
C12   C     C_3   0.087647 0.632033 0.603068 0.338818
C13   C     C_R   0.502012 0.435164 0.139817 -0.070653
C14   C     C_2   0.356307 0.161356 0.360016 -0.254035
C15   C     C_2   0.840460 0.839735 0.637951 -0.277386
C16   C     C_3   0.485853 0.576121 0.685222 -0.296545
C17   C     C_R   0.662078 0.455234 0.965624 -0.000238
C18   C     C_R   0.592315 0.585922 0.983369 0.025297
C19   C     C_R   0.643941 0.545481 0.948708 0.035575
C20   C     C_R   0.741807 0.420609 0.932995 0.118629
C21   C     C_R   0.775670 0.471622 0.882632 -0.033426
C22   C     C_R   0.741598 0.558536 0.863482 -0.071924
C23   C     C_3   0.063900 0.020202 0.649788 0.296352
C24   C     C_R   0.677843 0.595985 0.896785 -0.081437
C25   C     C_R   0.648427 0.684095 0.878303 -0.023027
C26   C     C_R   0.686466 0.733918 0.827306 0.588333
C27   C     C_R   0.776163 0.609423 0.812318 0.582357
C28   C     C_3   0.605827 0.885051 0.392258 0.272186
C29   C     C_2   0.942147 0.748678 0.726879 -0.050090
C30   C     C_3   0.989188 0.808131 0.674291 -0.044709
C31   C     C_1   0.715573 0.857044 0.657944 0.044997
C32   C     C_2   0.674415 0.808593 0.704954 -0.105837
C33   C     C_2   0.792637 0.749574 0.742454 0.202276
C34   C     C_3   0.039244 0.994981 0.707893 -0.360545
C35   C     C_R   0.600951 0.404792 0.014228 0.025579
C36   C     C_R   0.567046 0.446176 0.050900 0.035805
C37   C     C_R   0.576510 0.537747 0.037122 -0.001293
C38   C     C_R   0.564194 0.314747 0.026537 -0.109528
C39   C     C_R   0.530187 0.524955 0.127758 -0.032671
C40   C     C_3   0.598788 0.812514 0.366605 -0.127444
C41   C     C_R   0.550350 0.672053 0.962123 -0.112763
C42   C     C_R   0.580096 0.720455 0.911119 -0.060700
C43   C     C_R   0.570844 0.576103 0.078163 0.118761
C44   C     C_2   0.414822 0.240134 0.520811 -0.288165
C45   C     C_3   0.762241 0.386836 0.375959 0.480960
C46   C     C_R   0.803815 0.759766 0.493080 -0.300300
C47   C     C_2   0.266188 0.306405 0.570396 -0.114035
C48   C     C_2   0.276634 0.241635 0.550115 0.042484
C49   C     C_2   0.529277 0.305556 0.510982 0.043000
C50   C     C_3   0.490473 0.390138 0.517356 0.014095
C51   C     C_3   0.398192 0.378409 0.565315 -0.001571
C52   C     C_3   0.603908 0.113510 0.615125 0.302034
C53   C     C_2   0.627761 0.458364 0.513512 -0.077207
C54   C     C_2   0.591807 0.540781 0.497626 -0.059538
C55   C     C_R   0.856205 0.612297 0.467193 -0.008997
C56   C     C_3   0.831407 0.479629 0.352813 -0.331163
C57   C     C_R   0.716429 0.613605 0.491275 -0.039020
C58   C     C_R   0.965730 0.684996 0.454504 -0.135455
C59   C     C_R   0.937714 0.759777 0.466328 0.091431
C60   C     C_R   0.689435 0.688475 0.503806 0.003867
C61   C     C_3   0.662271 0.183539 0.641186 -0.373787
C62   C     C_3   0.051941 0.981946 0.346108 0.384106
C63   C     C_3   0.935308 0.012099 0.296676 -0.303047
C64   C     C_3   0.246242 0.368366 0.373896 0.437064
C65   C     C_3   0.324267 0.453400 0.340820 -0.287425
C66   C     C_R   0.457923 0.255279 0.164902 0.589677
H1    H     H_    0.200733 0.661297 0.584961 0.112230
H2    H     H_    0.073494 0.522511 0.572800 0.086166
H3    H     H_    0.951582 0.977944 0.267852 0.111461
H4    H     H_    0.957737 0.082627 0.278298 0.078639
H5    H     H_    0.807899 0.998495 0.306394 0.136067
H6    H     H_    0.983271 0.658368 0.575350 -0.014534
H7    H     H_    0.968831 0.502856 0.630793 0.117149
H8    H     H_    0.942832 0.022334 0.627185 0.032436
H9    H     H_    0.978208 0.046083 0.716168 0.141945
H10   H     H_    0.961828 0.933966 0.719594 0.072263
H11   H     H_    0.158643 0.986643 0.731725 0.122682
H12   H     H_    0.675033 0.833116 0.333054 0.130875
H13   H     H_    0.187714 0.506699 0.635914 0.132129
H14   H     H_    0.551830 0.591059 0.720224 0.125893
H15   H     H_    0.865020 0.345401 0.392240 0.096458
H16   H     H_    0.731527 0.521704 0.333111 0.130762
H17   H     H_    0.337269 0.319422 0.382382 0.011076
H18   H     H_    0.429261 0.477077 0.363723 0.128626
H19   H     H_    0.234736 0.503362 0.327996 0.100457
H20   H     H_    0.522107 0.703624 0.634405 0.088889
H21   H     H_    0.366898 0.444168 0.305595 0.170547
H22   H     H_    0.625449 0.174665 0.277571 0.104345
H23   H     H_    0.649515 0.754563 0.395005 0.059995
H24   H     H_    0.493653 0.196635 0.083077 0.122101
H25   H     H_    0.033796 0.710499 0.753516 0.101923
H26   H     H_    0.564062 0.281091 0.997794 0.077997
H27   H     H_    0.161846 0.291071 0.245855 0.089268
H28   H     H_    0.525798 0.556307 0.157747 0.133919
H29   H     H_    0.488100 0.702505 0.983758 0.077122
H30   H     H_    0.548415 0.786837 0.897379 0.121374
H31   H     H_    0.556154 0.812408 0.716894 0.137841
H32   H     H_    0.367670 0.159353 0.401063 0.060164
H33   H     H_    0.839836 0.852155 0.595882 0.076096
H34   H     H_    0.470318 0.111888 0.607083 0.007170
H35   H     H_    0.169848 0.303436 0.594936 0.075012
H36   H     H_    0.068092 0.684026 0.433412 0.101862
H37   H     H_    0.425922 0.182988 0.509208 0.059956
H38   H     H_    0.782762 0.817564 0.502276 0.073127
H39   H     H_    0.752561 0.441349 0.525184 0.089649
H40   H     H_    0.355349 0.583190 0.685968 0.127356
H41   H     H_    0.464805 0.554914 0.489121 0.109588
H42   H     H_    0.502622 0.508383 0.687581 0.117768
H43   H     H_    0.731751 0.895906 0.408694 -0.002832
H44   H     H_    0.524047 0.865950 0.424267 0.067591
H45   H     H_    0.663446 0.128193 0.578248 0.053935
H46   H     H_    0.359888 0.772596 0.379483 0.200758
H47   H     H_    0.386260 0.842293 0.319445 0.208478
H48   H     H_    0.229729 0.965320 0.304356 0.188772
H49   H     H_    0.286691 0.966956 0.365664 0.184518
H50   H     H_    0.134236 0.971732 0.642313 0.032029
H51   H     H_    0.624839 0.293651 0.350911 0.171279
H52   H     H_    0.737573 0.360733 0.305220 0.198414
H53   H     H_    0.917506 0.482790 0.323661 0.106135
H54   H     H_    0.896316 0.504737 0.384409 0.092036
H55   H     H_    0.150587 0.322643 0.445176 0.195759
H56   H     H_    0.602856 0.171211 0.677887 0.132341
H57   H     H_    0.129986 0.427686 0.415517 0.168451
H58   H     H_    0.835155 0.443016 0.858937 0.135756
H59   H     H_    0.736602 0.291861 0.941476 0.175812
H60   H     H_    0.847826 0.323372 0.992277 0.188376
H61   H     H_    0.747170 0.579476 0.628431 0.187794
H62   H     H_    0.772482 0.688023 0.611858 0.120022
H63   H     H_    0.533702 0.702816 0.064810 0.175577
H64   H     H_    0.719062 0.685601 0.047856 0.188721
H65   H     H_    0.632311 0.247734 0.614765 0.052908
H66   H     H_    0.796318 0.184170 0.650703 0.122239
H67   H     H_    0.035819 0.020664 0.372462 0.074789
N1    N     N_R   0.437547 0.295127 0.202201 -0.424862
N2    N     N_R   0.749989 0.696690 0.794625 -0.425524
N3    N     N_3   0.432404 0.788969 0.348182 -0.488899
N4    N     N_3   0.217178 0.997731 0.331610 -0.524091
N5    N     N_3   0.664099 0.358192 0.334669 -0.472249
N6    N     N_3   0.210147 0.379293 0.423330 -0.510635
N7    N     N_3   0.814988 0.339717 0.951889 -0.506418
N8    N     N_3   0.724893 0.633320 0.639130 -0.464315
N9    N     N_3   0.630822 0.663414 0.074443 -0.505030
O1    O     O_2   0.431310 0.922990 0.623550 -0.463948
O2    O     O_2   0.863534 0.315682 0.495818 -0.512871
O3    O     O_3   0.661353 0.386711 0.414153 -0.621900
O4    O     O_3   0.663280 0.983100 0.563360 -0.496174
O5    O     O_3   0.016420 0.932050 0.462720 -0.491306
O6    O     O_2   0.959730 0.164640 0.549160 -0.466478
O7    O     O_3   0.151165 0.100714 0.636636 -0.641434
O8    O     O_2   0.890685 0.225330 0.333088 -0.502365
O9    O     O_3   0.101588 0.347294 0.345353 -0.622857
O10   O     O_2   0.437883 0.176768 0.175574 -0.591520
O11   O     O_2   0.828687 0.575634 0.783412 -0.587417
O12   O     O_3   0.020529 0.892911 0.368942 -0.651254
O13   O     O_2   0.443306 0.419117 0.223158 -0.610101
O14   O     O_2   0.665916 0.810944 0.812512 -0.599579
O15   O     O_3   0.126250 0.812630 0.574830 -0.490729
O16   O     O_2   0.303697 0.767427 0.665718 -0.511527
O17   O     O_3   0.644176 0.034538 0.650084 -0.628513
O18   O     O_3   0.082421 0.649193 0.651102 -0.588260
O19   O     O_2   0.229950 0.835370 0.450810 -0.473503
O20   O     O_3   0.517580 0.797570 0.545130 -0.491745
O21   O     O_2   0.351756 0.692680 0.495628 -0.502679
O22   O     O_3   0.472240 0.614693 0.591369 -0.623253
O23   O     O_2   0.758370 0.077020 0.376420 -0.474528
O24   O     O_3   0.526390 0.016840 0.436620 -0.490565
O25   O     O_3   0.063420 0.187310 0.425160 -0.473056
O26   O     O_3   0.560240 0.960386 0.353955 -0.645571
O27   O     O_3   0.173250 0.067890 0.537260 -0.472865
O28   O     O_3   0.672100 0.202370 0.454860 -0.487464
P1    P     P_3+3 0.610630 0.953360 0.619150 0.993410
P2    P     P_3+3 0.057260 0.861390 0.437850 0.965162
P3    P     P_3+3 0.506220 0.697940 0.533310 0.911813
P4    P     P_3+3 0.579040 0.046590 0.380840 0.982838
P5    P     P_3+3 0.688960 0.299584 0.471011 0.932088
P6    P     P_3+3 0.125508 0.760382 0.641976 0.958297
P7    P     P_3+3 0.141347 0.144160 0.568458 0.951876
P8    P     P_3+3 0.067506 0.235272 0.357335 0.927552

loop_
_geom_bond_atom_site_label_1
_geom_bond_atom_site_label_2
_ccdc_geom_bond_type
O28   P5    S    
Ba2   O6    S    
C53   C54   D    
C4    O22   S    
H64   N9    S    
Ba2   O24   S    
C52   H45   S    
C40   N3    S    
Ba1   O1    S    
C19   C24   A    
O27   P7    S    
C23   H50   S    
C64   H17   S    
C61   H56   S    
C4    H20   S    
C64   N6    S    
O26   P4    S    
C40   H12   S    
O8    P8    D    
C10   C66   A    
Ba1   P1    S    
O22   P3    S    
H51   N5    S    
C61   H65   S    
C17   C19   A    
C8    N1    S    
Ba1   Ba2   S    
C35   C38   A    
C66   O10   D    
C34   H9    S    
C36   C37   A    
C55   C57   A    
C39   H28   S    
C52   C61   S    
Ba2   O4    S    
C44   H37   S    
C65   H21   S    
C63   H5    S    
O20   P3    S    
C32   C33   S    
C15   H33   S    
C22   C27   A    
C28   O26   S    
C11   C38   A    
C17   C35   A    
Ba2   P4    S    
C42   H30   S    
C25   C42   A    
C46   H38   S    
C29   C30   S    
Ba1   O20   S    
H57   N6    S    
C6    C7    D    
C57   C60   A    
C45   N5    S    
C1    H13   S    
C43   N9    S    
C21   C22   A    
Ba1   O5    S    
H52   N5    S    
C45   H15   S    
C1    H7    S    
C7    C8    S    
O25   P8    S    
C50   C53   S    
O23   P4    D    
Ba2   O27   S    
C37   C43   A    
H48   N4    S    
Ba2   O5    S    
C64   C65   S    
C62   H67   S    
C6    C14   D    
C30   P6    S    
H49   N4    S    
C15   C31   D    
C3    H27   S    
C44   C48   S    
C32   H31   S    
C4    C16   S    
C45   O3    S    
Ba1   P2    S    
C56   H54   S    
O18   P6    S    
C26   N2    Am   
C49   C50   S    
C61   H66   S    
C16   H42   S    
C66   N1    Am   
C17   C20   A    
C13   C39   A    
C3    C5    S    
C18   C37   A    
C14   H32   S    
C55   C58   A    
C23   C34   S    
Ba1   O24   S    
C63   H3    S    
C44   C49   D    
Ba1   O27   S    
O2    P5    D    
C53   H39   S    
C58   C59   A    
H59   N7    S    
C12   O18   S    
C9    C36   A    
C41   C42   A    
C35   C36   A    
C56   H16   S    
O17   P1    S    
O3    P5    S    
O7    P7    S    
C2    O13   D    
H47   N3    S    
Ba1   O15   S    
C9    C10   A    
O12   P2    S    
H55   N6    S    
C26   O14   D    
C31   C32   D    
C24   C25   A    
C58   H36   S    
C1    H2    S    
O5    P2    S    
H62   N8    S    
O16   P6    D    
C1    C12   S    
C21   H58   S    
C5    C14   S    
O1    P1    D    
C9    C13   A    
C11   H24   S    
C12   H1    S    
C29   C33   D    
O15   P6    S    
C12   H6    S    
C54   H41   S    
C18   C41   A    
C31   P1    S    
C50   C51   S    
O24   P4    S    
C56   H53   S    
C65   H18   S    
C18   C19   A    
C52   H34   S    
C59   P2    S    
C41   H29   S    
C38   H26   S    
C34   H11   S    
C7    H22   S    
C47   H35   S    
C64   O9    S    
C20   N7    S    
C6    P4    S    
H61   N8    S    
O21   P3    D    
C63   H4    S    
C27   N2    Am   
C62   O12   S    
C65   H19   S    
O4    P1    S    
C54   C57   S    
C27   O11   D    
C28   H43   S    
C23   O7    S    
C23   H8    S    
C62   C63   S    
C2    C13   A    
C48   P7    S    
C46   C60   A    
C3    C8    D    
C29   H25   S    
C33   N2    S    
C45   C56   S    
C22   C24   A    
C46   C59   A    
C47   C51   S    
C60   P3    S    
C16   H14   S    
C5    P8    S    
H46   N3    S    
C52   O17   S    
C16   H40   S    
O9    P8    S    
Ba2   O25   S    
C2    N1    Am   
C10   C11   A    
Ba1   O19   S    
C47   C48   D    
C28   H44   S    
C25   C26   A    
C15   C30   S    
C39   C43   A    
C20   C21   A    
C28   C40   S    
Ba1   O4    S    
C34   H10   S    
C4    N8    S    
C49   P5    S    
O19   P2    D    
H60   N7    S    
Ba2   O23   S    
H63   N9    S    
C40   H23   S    
Ba2   O28   S    
O6    P7    D    
C62   N4    S    
