data_mof_unit_37621.cif
_audit_creation_date              2012-12-10T20:34:52-0500
_audit_creation_method            fapswitch 2.2
_symmetry_space_group_name_H-M    P1
_symmetry_Int_Tables_number       1
_space_group_crystal_system       triclinic
_cell_length_a                    10.680246
_cell_length_b                    10.622928
_cell_length_c                    9.876722
_cell_angle_alpha                 90.003374
_cell_angle_beta                  90.60244
_cell_angle_gamma                 90.468276
_cell_volume                      1120.4689005

loop_
_atom_site_label
_atom_site_type_symbol
_atom_type_description
_atom_site_fract_x
_atom_site_fract_y
_atom_site_fract_z
_atom_type_partial_charge
C1    C     C_R   0.494364 0.259810 0.499981 0.869589
C2    C     C_3   0.879676 0.493410 0.504473 -0.006168
C3    C     C_3   0.932935 0.609985 0.585672 -0.127747
C4    C     C_3   0.927313 0.506985 0.356131 -0.456713
C5    C     C_R   0.461077 0.064040 0.622581 0.092425
C6    C     C_R   0.467829 0.128603 0.500310 -0.099950
C7    C     C_R   0.441900 0.064632 0.378799 -0.168646
C8    C     C_R   0.438995 0.934268 0.379424 -0.228095
C9    C     C_R   0.463907 0.870523 0.501074 -0.146894
C10   C     C_R   0.458010 0.935714 0.623343 0.197845
C11   C     C_3   0.536230 0.928267 0.750200 -0.215895
C12   C     C_R   0.258185 0.500319 0.499217 0.857357
C13   C     C_3   0.540801 0.071630 0.747637 -0.593356
C14   C     C_R   0.419576 0.423457 0.070155 0.156232
C15   C     C_R   0.588850 0.564874 0.072401 0.237011
C16   C     C_R   0.587968 0.564655 0.928326 -0.162612
C17   C     C_R   0.419839 0.423186 0.927824 0.204663
C18   C     C_3   0.280512 0.424453 0.919999 -0.490437
C19   C     C_3   0.280237 0.425581 0.073590 -0.486554
C20   C     C_R   0.492548 0.739966 0.500096 0.893481
C21   C     C_R   0.742528 0.496996 0.501011 0.833197
C22   C     C_3   0.075226 0.376462 0.575201 -0.137283
C23   C     C_3   0.930679 0.363585 0.559631 -0.002579
C24   C     C_3   0.076343 0.615191 0.573707 -0.492079
C25   C     C_3   0.069171 0.499886 0.352428 -0.387971
C26   C     C_3   0.122445 0.496557 0.498906 0.070942
H1    H     H_    0.098114 0.391830 0.684103 0.117357
H2    H     H_    0.897969 0.599354 0.313736 0.198388
H3    H     H_    0.104267 0.701221 0.516548 0.183788
H4    H     H_    0.895269 0.696949 0.537318 0.161354
H5    H     H_    0.433739 0.113742 0.283014 0.170391
H6    H     H_    0.427370 0.884824 0.284358 0.167524
H7    H     H_    0.629137 0.883992 0.735599 0.174709
H8    H     H_    0.491208 0.118407 0.832200 0.202992
H9    H     H_    0.635916 0.110012 0.727252 0.209848
H10   H     H_    0.656563 0.618780 0.873874 0.196938
H11   H     H_    0.243290 0.512495 0.874625 0.233904
H12   H     H_    0.241823 0.335838 0.876020 0.179254
H13   H     H_    0.243956 0.514821 0.116005 0.216717
H14   H     H_    0.240611 0.337984 0.118035 0.212910
H15   H     H_    0.907703 0.291347 0.481045 0.172608
H16   H     H_    0.122276 0.623595 0.675240 0.194409
H17   H     H_    0.105864 0.583603 0.297213 0.177823
H18   H     H_    0.097213 0.414920 0.295209 0.226714
H19   H     H_    0.887453 0.431676 0.289576 0.195211
N1    N     N_R   0.499150 0.499140 0.142800 -0.121354
N2    N     N_R   0.499150 0.499180 0.857150 -0.105897
O1    O     O_R   0.500020 0.316790 0.614690 -0.628476
O2    O     O_R   0.500000 0.316760 0.385350 -0.620885
O3    O     O_R   0.314800 0.500000 0.614670 -0.633157
O4    O     O_R   0.314790 0.499960 0.385330 -0.623095
O5    O     O_R   0.500000 0.683240 0.614650 -0.578397
O6    O     O_R   0.499980 0.683210 0.385310 -0.606670
O7    O     O_R   0.685210 0.500040 0.614670 -0.630079
O8    O     O_R   0.685200 0.500000 0.385330 -0.600440
Zn1   Zn    Zn3+2 0.500010 0.500020 0.653130 0.968875
Zn2   Zn    Zn3+2 0.499990 0.499980 0.346870 0.962931
C27   C     C_2   0.465427 0.877218 0.869655 0.454514
H20   H     H_    0.492091 0.906817 0.971013 0.041736
O9    O     O_2   0.379186 0.802154 0.854444 -0.561908
N3    N     N_2   0.686263 0.628827 0.143254 -0.259272
H21   H     H_    0.773127 0.596169 0.116189 0.207961
C28   C     C_3   0.681534 0.764501 0.135425 -0.753780
H22   H     H_    0.703738 0.797004 0.031395 0.233089
H23   H     H_    0.751394 0.805751 0.207041 0.234954
H24   H     H_    0.587568 0.798201 0.163543 0.241893
C29   C     C_2   0.141353 0.256717 0.533765 0.349373
H25   H     H_    0.203908 0.210956 0.605330 0.071539
O10   O     O_2   0.126951 0.211507 0.420972 -0.589828
N4    N     N_2   0.872297 0.321304 0.685679 -0.329331
H26   H     H_    0.776623 0.312480 0.677078 0.251531
C30   C     C_3   0.920045 0.206374 0.745768 -0.816404
H27   H     H_    0.859944 0.177925 0.831874 0.243462
H28   H     H_    0.016012 0.220628 0.787068 0.242248
H29   H     H_    0.919266 0.128902 0.670102 0.255125
C31   C     C_2   0.897637 0.614034 0.733314 0.420747
H30   H     H_    0.916859 0.535123 0.799669 0.101327
O11   O     O_2   0.851781 0.709093 0.780526 -0.624936

loop_
_geom_bond_atom_site_label_1
_geom_bond_atom_site_label_2
_ccdc_geom_bond_type
C28   H23   S    
C24   H16   S    
C14   C17   A    
C25   H17   S    
C4    C25   S    
C7    C8    A    
C14   N1    A    
C18   H11   S    
C31   O11   D    
C13   H9    S    
C21   O7    A    
C27   O9    D    
C15   C16   A    
O2    Zn2   S    
C25   H18   S    
C18   C19   S    
N3    C28   S    
C24   H3    S    
C8    C9    A    
N4    H26   S    
O4    Zn2   S    
C11   C27   S    
C9    C10   A    
C5    C13   S    
C28   H24   S    
C23   N4    S    
C3    C24   S    
C30   H29   S    
C16   N2    A    
C4    H2    S    
C4    H19   S    
O7    Zn1   S    
C7    H5    S    
C1    C6    S    
C8    H6    S    
C11   H7    S    
C31   H30   S    
C30   H28   S    
C10   C11   S    
C21   O8    A    
O6    Zn2   S    
C30   H27   S    
C27   H20   S    
O3    Zn1   S    
C29   H25   S    
C12   C26   S    
C29   O10   D    
C3    H4    S    
C2    C4    S    
C9    C20   S    
C2    C21   S    
C17   C18   S    
C15   N3    S    
C25   C26   S    
C3    C31   S    
C19   H13   S    
C22   H1    S    
O8    Zn2   S    
N1    Zn2   S    
C12   O4    A    
O1    Zn1   S    
C14   C19   S    
C17   N2    A    
C24   C26   S    
C20   O6    A    
C12   O3    A    
C1    O1    A    
C6    C7    A    
C23   H15   S    
C2    C3    S    
C18   H12   S    
C5    C10   A    
C20   O5    A    
C16   H10   S    
C11   C13   S    
C5    C6    A    
N3    H21   S    
C22   C29   S    
C19   H14   S    
C28   H22   S    
C13   H8    S    
C22   C26   S    
C2    C23   S    
C22   C23   S    
N4    C30   S    
C15   N1    A    
C1    O2    A    
O5    Zn1   S    
N2    Zn1   S    
