data_mof_unit_37763.cif
_audit_creation_date              2012-12-11T15:11:44-0500
_audit_creation_method            fapswitch 2.2
_symmetry_space_group_name_H-M    P1
_symmetry_Int_Tables_number       1
_space_group_crystal_system       triclinic
_cell_length_a                    20.183395
_cell_length_b                    7.281412
_cell_length_c                    13.56315
_cell_angle_alpha                 88.717676
_cell_angle_beta                  102.96476
_cell_angle_gamma                 89.030062
_cell_volume                      1941.49774502

loop_
_atom_site_label
_atom_site_type_symbol
_atom_type_description
_atom_site_fract_x
_atom_site_fract_y
_atom_site_fract_z
_atom_type_partial_charge
O1    O     O_R   0.449830 0.506740 0.599960 -0.539798
O2    O     O_R   0.550170 0.006740 0.400040 -0.544495
O3    O     O_R   0.588980 0.179860 0.596720 -0.532034
O4    O     O_R   0.411020 0.679860 0.403280 -0.519491
C1    C     C_R   0.616526 0.342497 0.615815 0.714939
C2    C     C_R   0.386080 0.849576 0.378863 0.739437
O5    O     O_R   0.452740 0.177340 0.612040 -0.531012
O6    O     O_R   0.547260 0.677340 0.387960 -0.530341
O7    O     O_R   0.412960 0.002070 0.415460 -0.550684
O8    O     O_R   0.587040 0.502070 0.584540 -0.548075
C3    C     C_R   0.437060 0.346242 0.638375 0.706356
C4    C     C_R   0.564573 0.848321 0.362816 0.702682
O9    O     O_3   0.487110 0.337570 0.435490 -0.372336
O10   O     O_3   0.512890 0.837570 0.564510 -0.375920
V1    V     V_3+5 0.502390 0.064650 0.511970 1.477724
V2    V     V_3+5 0.497610 0.564650 0.488030 1.482951
C5    C     C_R   0.646024 0.139828 0.201566 -0.136987
C6    C     C_R   0.381816 0.520107 0.864817 -0.124155
H1    H     H_    0.543513 0.104314 0.213073 0.145182
H2    H     H_    0.477649 0.488416 0.823325 0.143019
H3    H     H_    0.756129 0.322397 0.184114 0.144946
H4    H     H_    0.292472 0.626755 0.967386 0.165467
H5    H     H_    0.634179 0.272688 0.163406 0.141424
H6    H     H_    0.404184 0.591342 0.933121 0.160464
C7    C     C_R   0.608374 0.880628 0.289750 -0.043528
C8    C     C_R   0.396744 0.365533 0.714885 -0.033358
C9    C     C_R   0.925511 0.668050 0.295722 -0.000881
C10   C     C_R   0.081406 0.229671 0.694723 -0.116975
C11   C     C_R   0.878397 0.578028 0.339902 -0.159403
C12   C     C_R   0.115748 0.230131 0.616032 -0.125726
C13   C     C_R   0.812730 0.644667 0.327349 -0.175619
C14   C     C_R   0.179068 0.305293 0.628239 -0.103263
C15   C     C_R   0.794075 0.817695 0.281356 0.098161
C16   C     C_R   0.211003 0.378517 0.721083 0.076240
C17   C     C_R   0.843650 0.917598 0.241543 0.077851
C18   C     C_R   0.170611 0.419639 0.792330 0.074544
C19   C     C_R   0.727171 0.893437 0.271876 0.088633
C20   C     C_R   0.282526 0.404495 0.746593 0.075085
C21   C     C_R   0.712952 0.071462 0.227252 0.141603
C22   C     C_R   0.311410 0.494102 0.837065 0.126779
C23   C     C_R   0.765912 0.180488 0.209972 -0.162148
C24   C     C_R   0.269940 0.556035 0.899461 -0.136842
C25   C     C_R   0.830663 0.103964 0.216533 -0.156705
C26   C     C_R   0.200783 0.517659 0.878661 -0.133927
C27   C     C_R   0.674291 0.802507 0.307277 -0.220706
C28   C     C_R   0.326804 0.336909 0.687338 -0.213186
C29   C     C_R   0.593967 0.041337 0.228398 -0.106187
C30   C     C_R   0.423972 0.458331 0.803496 -0.130842
C31   C     C_R   0.905939 0.829909 0.233163 -0.196312
C32   C     C_R   0.103753 0.346772 0.779391 -0.101683
H7    H     H_    0.683975 0.680717 0.355396 0.114000
H8    H     H_    0.308526 0.265453 0.618035 0.105886
H9    H     H_    0.778762 0.560553 0.358731 0.143219
H10   H     H_    0.203605 0.293709 0.565714 0.136952
H11   H     H_    0.892189 0.450111 0.382617 0.143935
H12   H     H_    0.097527 0.153055 0.548218 0.148931
H13   H     H_    0.869507 0.189899 0.197702 0.149685
H14   H     H_    0.172372 0.557745 0.933632 0.151938
C33   C     C_3   0.245659 0.751786 0.148083 0.027002
C34   C     C_3   0.757787 0.342608 0.865852 0.033139
H15   H     H_    0.235207 0.762294 0.064818 0.116469
H16   H     H_    0.761925 0.451075 0.922474 0.139593
C35   C     C_3   0.318465 0.808369 0.199049 0.026194
C36   C     C_3   0.684026 0.356944 0.797403 0.033555
H17   H     H_    0.329003 0.926801 0.152440 0.150875
H18   H     H_    0.662167 0.494152 0.808526 0.137562
H19   H     H_    0.177373 0.626163 0.289559 0.147719
H20   H     H_    0.827621 0.078757 0.770269 0.179541
H21   H     H_    0.283354 0.628143 0.386129 0.178697
H22   H     H_    0.710860 0.057353 0.702765 0.213119
C37   C     C_3   0.191032 0.771106 0.299936 -0.162709
C38   C     C_3   0.808143 0.204114 0.726415 -0.159454
C39   C     C_3   0.215913 0.063862 0.206698 0.105198
C40   C     C_3   0.794127 0.550036 0.733951 0.028010
C41   C     C_3   0.188961 0.859775 0.192925 -0.133235
C42   C     C_3   0.814334 0.367098 0.802320 -0.116120
C43   C     C_3   0.316946 0.870041 0.308047 -0.010754
C44   C     C_3   0.687439 0.348673 0.684294 -0.027260
C45   C     C_3   0.265894 0.771816 0.363564 -0.334416
C46   C     C_3   0.731614 0.178870 0.671143 -0.351861
C47   C     C_3   0.288354 0.067125 0.284933 -0.425842
C48   C     C_3   0.725103 0.520583 0.656038 -0.414777
H23   H     H_    0.325076 0.149283 0.253762 0.205424
H24   H     H_    0.692584 0.646906 0.649332 0.185303
H25   H     H_    0.287384 0.132695 0.357771 0.192185
H26   H     H_    0.732606 0.499101 0.578389 0.186369
H27   H     H_    0.268061 0.841710 0.436382 0.161240
H28   H     H_    0.724952 0.151056 0.589455 0.178495
O11   O     O_R   0.912980 0.203550 0.915410 -0.526731
O12   O     O_R   0.087020 0.703550 0.084590 -0.511463
O13   O     O_R   0.047270 0.535570 0.887960 -0.523814
O14   O     O_R   0.952730 0.035570 0.112040 -0.541753
C49   C     C_R   0.063618 0.366540 0.860286 0.737542
C50   C     C_R   0.938775 0.864428 0.143086 0.765776
O15   O     O_R   0.911030 0.532970 0.903270 -0.514159
O16   O     O_R   0.088970 0.032970 0.096730 -0.512119
O17   O     O_R   0.949820 0.708150 0.099970 -0.520402
O18   O     O_R   0.050180 0.208150 0.900030 -0.514625
C51   C     C_R   0.885312 0.367680 0.877629 0.739285
C52   C     C_R   0.116143 0.862756 0.119593 0.733851
O19   O     O_3   0.012900 0.375230 0.064480 -0.346802
O20   O     O_3   0.987100 0.875230 0.935520 -0.338113
V3    V     V_3+5 0.997610 0.648190 0.988040 1.683860
V4    V     V_3+5 0.002390 0.148190 0.011960 1.642546
I1    I     I_    0.411471 0.679842 0.168620 -0.411282
I2    I     I_    0.609119 0.176267 0.839377 -0.360030
C53   C     C_2   0.169336 0.194495 0.249581 0.842607
O21   O     O_2   0.131717 0.304038 0.193473 -0.521672
O22   O     O_R   0.174084 0.201838 0.354164 -0.688775
H29   H     H_    0.141502 0.293945 0.373582 0.285642
C54   C     C_2   0.847594 0.626407 0.679995 0.831580
O23   O     O_2   0.902849 0.674204 0.728582 -0.504820
O24   O     O_R   0.833071 0.650439 0.574593 -0.673961
H30   H     H_    0.872144 0.705633 0.549215 0.330274
I3    I     I_    0.218628 0.136430 0.042350 -0.409249
I4    I     I_    0.775376 0.765499 0.826236 -0.420569
C55   C     C_2   0.139543 0.839768 0.357930 0.796368
O25   O     O_2   0.147762 0.800469 0.448119 -0.540452
O26   O     O_R   0.080301 0.935296 0.308287 -0.672338
H31   H     H_    0.050338 0.971534 0.355827 0.288235
C56   C     C_2   0.853620 0.226336 0.651985 0.794004
O27   O     O_2   0.911906 0.275046 0.683009 -0.579906
O28   O     O_R   0.829763 0.195447 0.548707 -0.657921
H32   H     H_    0.864746 0.222038 0.507499 0.301447
C57   C     C_2   0.995270 0.589367 0.322501 0.740808
O29   O     O_2   0.018245 0.528258 0.408504 -0.554232
O30   O     O_R   0.034340 0.578205 0.250994 -0.634850
H33   H     H_    0.078941 0.514393 0.280443 0.298344
C58   C     C_2   0.030896 0.081230 0.689093 0.912009
O31   O     O_2   0.033456 0.976553 0.761236 -0.497735
O32   O     O_R   0.985864 0.042218 0.597710 -0.629893
H34   H     H_    0.984554 0.139115 0.542513 0.260772
I5    I     I_    0.263399 0.484475 0.184068 -0.439774
I6    I     I_    0.776638 0.128704 0.977346 -0.382183

loop_
_geom_bond_atom_site_label_1
_geom_bond_atom_site_label_2
_ccdc_geom_bond_type
C37   C41   S    
C35   H17   S    
C7    C27   A    
C38   C56   S    
C9    C11   A    
C23   C25   A    
C54   O23   D    
O1    C3    A    
C38   C42   S    
O2    C4    A    
C2    O7    A    
C37   C45   S    
O3    V1    S    
O28   H32   S    
C21   C23   A    
C42   C51   S    
O5    C3    A    
C5    H5    S    
C40   C42   S    
O11   C51   A    
C6    H6    S    
C58   O31   D    
C55   O26   S    
O15   C51   A    
C39   C53   S    
C27   H7    S    
C28   H8    S    
C34   H16   S    
C10   C58   S    
C5    C21   A    
C14   H10   S    
O12   C52   A    
C6    C22   A    
C10   C32   A    
C26   H14   S    
C17   C31   A    
C34   I6    S    
C53   O21   D    
C13   C15   A    
C31   C50   S    
C35   I1    S    
C17   C25   A    
C7    C29   A    
H19   C37   S    
C8    C30   A    
C22   C24   A    
O6    V2    S    
C46   H28   S    
C11   C13   A    
C53   O22   S    
C50   O17   A    
C24   C26   A    
C40   C48   S    
C45   H27   S    
C47   H23   S    
O15   V3    S    
C43   C45   S    
C33   H15   S    
C20   C28   A    
C37   C55   S    
H22   C46   S    
C12   C14   A    
O4    C2    A    
C40   C54   S    
O14   V4    S    
C2    C43   S    
C11   H11   S    
C3    C8    S    
C48   H26   S    
C12   H12   S    
C33   I5    S    
C15   C19   A    
H20   C38   S    
C36   H18   S    
O4    V2    S    
O13   C49   A    
C44   C48   S    
C43   C47   S    
O6    C4    A    
C40   I4    S    
O14   C50   A    
C44   C46   S    
H1    C29   S    
C54   O24   S    
O1    V2    S    
O17   V3    S    
C13   H9    S    
O20   V4    S    
O2    V1    S    
C56   O27   D    
H2    C30   S    
C39   C47   S    
H3    C23   S    
O19   V4    S    
C48   H24   S    
O16   V4    S    
O11   V4    S    
C57   O29   D    
H21   C45   S    
C39   C41   S    
C19   C27   A    
O30   H33   S    
C33   C41   S    
C18   C32   A    
O24   H30   S    
C35   C43   S    
C16   C20   A    
C36   C44   S    
C5    C29   A    
O13   V3    S    
O3    C1    A    
C6    C30   A    
O26   H31   S    
C32   C49   S    
C36   I2    S    
C33   C35   S    
C39   I3    S    
O19   V3    S    
C4    C7    S    
C34   C36   S    
C10   C12   A    
O7    V1    S    
C1    O8    A    
C19   C21   A    
O8    V2    S    
C55   O25   D    
C20   C22   A    
C9    C57   S    
H4    C24   S    
O18   V4    S    
O16   C52   A    
O5    V1    S    
C41   C52   S    
C15   C17   A    
C34   C42   S    
C16   C18   A    
O20   V3    S    
O12   V3    S    
C56   O28   S    
C18   C26   A    
C25   H13   S    
C9    C31   A    
C38   C46   S    
O9    V2    S    
C57   O30   S    
O10   V1    S    
C1    C44   S    
O22   H29   S    
C8    C28   A    
C49   O18   A    
C47   H25   S    
O32   H34   S    
C14   C16   A    
C58   O32   S    
