data_mof_unit_57860.cif
_audit_creation_date              2012-12-11T14:42:17-0500
_audit_creation_method            fapswitch 2.2
_symmetry_space_group_name_H-M    P1
_symmetry_Int_Tables_number       1
_space_group_crystal_system       triclinic
_cell_length_a                    19.141164
_cell_length_b                    10.893578
_cell_length_c                    18.709107
_cell_angle_alpha                 89.698894
_cell_angle_beta                  90.880356
_cell_angle_gamma                 89.774182
_cell_volume                      3900.59780483

loop_
_atom_site_label
_atom_site_type_symbol
_atom_type_description
_atom_site_fract_x
_atom_site_fract_y
_atom_site_fract_z
_atom_type_partial_charge
C1    C     C_R   0.729785 0.950544 0.851608 0.537117
C2    C     C_R   0.237746 0.436288 0.929900 0.046697
C3    C     C_3   0.919962 0.417788 0.790225 -0.304116
C4    C     C_3   0.597140 0.452876 0.127031 0.008552
C5    C     C_3   0.532207 0.529141 0.140903 -0.363334
C6    C     C_3   0.399191 0.539311 0.917537 -0.003757
C7    C     C_3   0.437151 0.558462 0.847392 -0.342905
C8    C     C_3   0.131929 0.814799 0.138480 -0.005340
C9    C     C_3   0.085725 0.913929 0.102120 -0.393697
C10   C     C_3   0.926547 0.981576 0.924872 -0.009965
C11   C     C_3   0.973192 0.064788 0.881027 -0.356421
C12   C     C_3   0.506987 0.466769 0.561947 0.030094
C13   C     C_R   0.255460 0.936908 0.071877 0.041443
C14   C     C_3   0.520771 0.570990 0.614077 -0.365408
C15   C     C_3   0.582364 0.410353 0.357076 0.013307
C16   C     C_3   0.578957 0.543298 0.331682 -0.339696
C17   C     C_3   0.007140 0.963962 0.555911 0.027166
C18   C     C_3   0.019939 0.075696 0.602683 -0.368576
C19   C     C_3   0.089623 0.883919 0.346326 0.019003
C20   C     C_3   0.081829 0.005184 0.306088 -0.327534
C21   C     C_R   0.760348 0.891352 0.916688 0.030845
C22   C     C_R   0.789593 0.308111 0.049456 -0.138807
C23   C     C_R   0.179301 0.438748 0.974314 -0.181255
C24   C     C_R   0.282641 0.021717 0.022776 -0.112342
C25   C     C_R   0.731158 0.784326 0.944116 -0.180751
C26   C     C_R   0.781644 0.282805 0.977733 -0.139467
C27   C     C_R   0.187621 0.427864 0.047207 -0.128641
C28   C     C_R   0.276909 0.000529 0.949951 -0.159742
C29   C     C_R   0.272630 0.957122 0.146224 0.562955
C30   C     C_R   0.737549 0.757917 0.016983 -0.158913
C31   C     C_R   0.727326 0.335427 0.937465 -0.018224
C32   C     C_R   0.254454 0.413845 0.076302 0.005111
C33   C     C_R   0.241829 0.896514 0.926585 -0.017726
C34   C     C_R   0.775974 0.834775 0.062153 -0.033208
C35   C     C_R   0.555385 0.287675 0.520252 0.270590
C36   C     C_R   0.541951 0.284209 0.447148 0.261142
C37   C     C_R   0.057010 0.784489 0.518432 0.269230
C38   C     C_R   0.046973 0.778605 0.444630 0.262774
C39   C     C_R   0.518745 0.172099 0.416408 -0.026363
C40   C     C_R   0.225517 0.459183 0.854951 0.585365
C41   C     C_R   0.555818 0.177450 0.560329 -0.023038
C42   C     C_R   0.019639 0.668537 0.415545 -0.032085
C43   C     C_R   0.054457 0.675941 0.559962 -0.021984
C44   C     C_R   0.525795 0.062019 0.454487 -0.199130
C45   C     C_R   0.544982 0.064686 0.526136 -0.193847
C46   C     C_R   0.022682 0.559436 0.455105 -0.200578
C47   C     C_R   0.041333 0.562939 0.526855 -0.195937
C48   C     C_R   0.764855 0.269424 0.518880 -0.150796
C49   C     C_R   0.190906 0.366656 0.461247 -0.143072
C50   C     C_R   0.267562 0.771530 0.519661 -0.148989
C51   C     C_R   0.771510 0.452287 0.147667 0.548495
C52   C     C_R   0.692090 0.861398 0.462355 -0.144423
C53   C     C_R   0.775243 0.300911 0.448259 -0.145161
C54   C     C_R   0.187049 0.369841 0.534193 -0.137854
C55   C     C_R   0.277816 0.802912 0.449076 -0.145098
C56   C     C_R   0.688625 0.864251 0.535330 -0.139426
C57   C     C_R   0.528535 0.176726 0.850152 0.575181
C58   C     C_R   0.464892 0.176710 0.146306 0.558247
C59   C     C_R   0.028637 0.677175 0.849787 0.578792
C60   C     C_R   0.936247 0.682975 0.142362 0.570570
C61   C     C_R   0.755545 0.417642 0.424184 0.010836
C62   C     C_R   0.684171 0.432942 0.045070 0.219903
C63   C     C_R   0.242651 0.416753 0.575255 0.034174
C64   C     C_R   0.255623 0.917885 0.424284 0.012748
C65   C     C_R   0.743568 0.914315 0.575979 0.033509
C66   C     C_R   0.724993 0.502322 0.470663 -0.120801
C67   C     C_R   0.305014 0.449854 0.542364 -0.158019
C68   C     C_R   0.222400 0.000706 0.469909 -0.107772
C69   C     C_R   0.805505 0.949063 0.542766 -0.158888
C70   C     C_R   0.715026 0.470589 0.541450 -0.063654
C71   C     C_R   0.310294 0.440870 0.468448 -0.146582
C72   C     C_R   0.213044 0.969449 0.540851 -0.059178
C73   C     C_R   0.305514 0.432331 0.958934 0.232222
C74   C     C_R   0.810528 0.940176 0.468795 -0.148206
C75   C     C_R   0.734919 0.353592 0.565391 0.049181
C76   C     C_R   0.252816 0.399591 0.427611 0.027152
C77   C     C_R   0.235265 0.854101 0.565473 0.048999
C78   C     C_R   0.753257 0.897289 0.428252 0.026922
C79   C     C_R   0.724462 0.312672 0.860144 0.576383
C80   C     C_R   0.262050 0.364708 0.147586 0.552763
C81   C     C_R   0.238199 0.864600 0.852321 0.554686
C82   C     C_R   0.776086 0.812520 0.140013 0.557347
C83   C     C_R   0.727543 0.954055 0.647843 0.531770
C84   C     C_R   0.213909 0.838340 0.048014 0.231886
C85   C     C_R   0.273846 0.957736 0.353485 0.530809
C86   C     C_R   0.227320 0.454622 0.647589 0.539087
C87   C     C_R   0.773588 0.457095 0.353244 0.531844
C88   C     C_R   0.565288 0.181607 0.637747 0.575420
C89   C     C_R   0.473863 0.176592 0.352996 0.548527
C90   C     C_R   0.064651 0.681378 0.637447 0.576541
C91   C     C_R   0.973581 0.676002 0.353143 0.552059
C92   C     C_R   0.726753 0.316746 0.638797 0.546850
C93   C     C_R   0.261427 0.360784 0.354313 0.548123
C94   C     C_R   0.226865 0.817097 0.638787 0.546566
C95   C     C_R   0.813892 0.948193 0.957228 0.246827
C96   C     C_R   0.761551 0.860213 0.354554 0.555682
C97   C     C_2   0.490417 0.164189 0.917683 -0.098905
C98   C     C_2   0.489572 0.158453 0.073414 -0.118493
C99   C     C_2   0.004987 0.667115 0.923023 -0.126100
C100  C     C_2   0.945621 0.680304 0.064626 -0.095728
C101  C     C_2   0.469903 0.059148 0.033691 0.220795
C102  C     C_2   0.491283 0.058514 0.956594 0.209313
C103  C     C_2   0.942656 0.578372 0.023793 0.263097
C104  C     C_2   0.955326 0.589308 0.945269 0.219319
C105  C     C_R   0.676402 0.405526 0.972235 -0.116328
C106  C     C_R   0.745406 0.392955 0.082115 0.028237
C107  C     C_R   0.313709 0.419956 0.032660 -0.134399
C108  C     C_R   0.209492 0.817089 0.974979 -0.097229
C109  C     C_R   0.818641 0.924512 0.031088 -0.134050
C110  C     C_3   0.437938 0.848384 0.040927 0.019960
C111  C     C_3   0.397369 0.751329 0.081676 -0.359316
C112  C     C_3   0.569741 0.898043 0.956864 0.012032
C113  C     C_3   0.568666 0.760184 0.941549 -0.372315
C114  C     C_3   0.976173 0.375853 0.041893 -0.000013
C115  C     C_3   0.998265 0.315659 0.112340 -0.353298
C116  C     C_3   0.933773 0.424938 0.870656 0.015193
Cr1   Cr    Cr6+3 0.769270 0.163730 0.750710 0.997253
Cr2   Cr    Cr6+3 0.385840 0.322500 0.252290 0.998743
Cr3   Cr    Cr6+3 0.114160 0.822500 0.747710 1.005000
Cr4   Cr    Cr6+3 0.885840 0.822500 0.252290 0.989989
Cr5   Cr    Cr6+3 0.230730 0.163730 0.249290 0.972452
Cr6   Cr    Cr6+3 0.269270 0.663730 0.750710 0.998539
Cr7   Cr    Cr6+3 0.730730 0.663730 0.249290 0.982226
Cr8   Cr    Cr6+3 0.612620 0.009790 0.748780 1.021530
Cr9   Cr    Cr6+3 0.387380 0.009790 0.251220 1.028746
Cr10  Cr    Cr6+3 0.112620 0.509790 0.748780 0.972718
Cr11  Cr    Cr6+3 0.887380 0.509790 0.251220 1.007842
Cr12  Cr    Cr6+3 0.614160 0.322500 0.747710 0.995005
H1    H     H_    0.781009 0.180338 0.537934 0.127458
H2    H     H_    0.575354 0.914887 0.015114 0.095064
H3    H     H_    0.616650 0.942618 0.936992 0.176854
H4    H     H_    0.515693 0.722103 0.947373 0.124986
H5    H     H_    0.584551 0.742591 0.885745 0.159519
H6    H     H_    0.602178 0.709289 0.980176 0.137832
H7    H     H_    0.024172 0.410561 0.015817 0.088110
H8    H     H_    0.953100 0.303740 0.007389 0.121972
H9    H     H_    0.952115 0.277325 0.139746 0.155192
H10   H     H_    0.035788 0.239945 0.102088 0.082221
H11   H     H_    0.024086 0.383951 0.147636 0.164907
H12   H     H_    0.146022 0.332449 0.431592 0.130140
H13   H     H_    0.904297 0.350180 0.896418 0.161358
H14   H     H_    0.990424 0.407371 0.881500 0.108054
H15   H     H_    0.865163 0.444115 0.777279 0.207612
H16   H     H_    0.954333 0.481261 0.760852 0.173254
H17   H     H_    0.929737 0.322862 0.771332 0.085715
H18   H     H_    0.799588 0.235471 0.412915 0.127459
H19   H     H_    0.138406 0.341267 0.557759 0.126244
H20   H     H_    0.304068 0.738824 0.414332 0.128099
H21   H     H_    0.640531 0.833581 0.559202 0.125651
H22   H     H_    0.711052 0.593996 0.452792 0.132999
H23   H     H_    0.285823 0.683925 0.539250 0.127597
H24   H     H_    0.348037 0.487421 0.573277 0.106342
H25   H     H_    0.206172 0.090939 0.451408 0.136498
H26   H     H_    0.848164 0.988569 0.573381 0.108633
H27   H     H_    0.692859 0.537411 0.577394 0.146146
H28   H     H_    0.359355 0.463774 0.443653 0.143224
H29   H     H_    0.189163 0.035194 0.576299 0.147809
H30   H     H_    0.859106 0.965055 0.443673 0.135824
H31   H     H_    0.520391 0.230345 0.049641 0.017913
H32   H     H_    0.469538 0.248033 0.940331 0.095647
H33   H     H_    0.953033 0.768999 0.039285 0.023477
H34   H     H_    0.647451 0.825454 0.433041 0.126429
H35   H     H_    0.036542 0.717127 0.961711 0.040899
H36   H     H_    0.632119 0.443217 0.942651 0.140556
H37   H     H_    0.365843 0.406158 0.054742 0.134891
H38   H     H_    0.180933 0.737677 0.955779 0.130774
H39   H     H_    0.854516 0.977726 0.063646 0.127963
H40   H     H_    0.626834 0.442020 0.177902 0.135985
H41   H     H_    0.581009 0.360205 0.109838 0.123786
H42   H     H_    0.496017 0.521316 0.094376 0.138065
H43   H     H_    0.505667 0.495766 0.189479 0.124961
H44   H     H_    0.546383 0.626954 0.148971 0.149154
H45   H     H_    0.491817 0.821995 0.055069 0.138424
H46   H     H_    0.438408 0.535485 0.961891 0.113341
H47   H     H_    0.364118 0.620288 0.925267 0.148134
H48   H     H_    0.400866 0.544451 0.801318 0.183038
H49   H     H_    0.457755 0.653301 0.844177 0.095107
H50   H     H_    0.481297 0.492805 0.843632 0.163260
H51   H     H_    0.158627 0.851221 0.186666 0.127711
H52   H     H_    0.096590 0.742278 0.158542 0.173930
H53   H     H_    0.061277 0.877357 0.052593 0.141833
H54   H     H_    0.044342 0.943879 0.139045 0.131431
H55   H     H_    0.116484 0.996737 0.088654 0.138799
H56   H     H_    0.423004 0.837943 0.983755 0.182991
H57   H     H_    0.926731 0.888863 0.900005 0.160410
H58   H     H_    0.949038 0.975704 0.979980 0.110456
H59   H     H_    0.975867 0.157161 0.905570 0.110984
H60   H     H_    0.026808 0.025683 0.879438 0.127857
H61   H     H_    0.952180 0.073399 0.825544 0.153918
H62   H     H_    0.834562 0.269558 0.077384 0.155860
H63   H     H_    0.126928 0.449789 0.952475 0.125925
H64   H     H_    0.311033 0.101798 0.041175 0.151678
H65   H     H_    0.700758 0.725147 0.909754 0.139179
H66   H     H_    0.820808 0.227769 0.952902 0.195309
H67   H     H_    0.340969 0.757990 0.071198 0.173879
H68   H     H_    0.141922 0.424436 0.080567 0.134303
H69   H     H_    0.300750 0.063065 0.912376 0.137246
H70   H     H_    0.711088 0.679858 0.038659 0.196238
H71   H     H_    0.464713 0.408197 0.583867 0.136054
H72   H     H_    0.488223 0.508493 0.510916 0.170211
H73   H     H_    0.561371 0.633110 0.592615 0.139070
H74   H     H_    0.471972 0.624416 0.621943 0.088663
H75   H     H_    0.538976 0.533795 0.666535 0.173521
H76   H     H_    0.570434 0.350244 0.310847 0.129252
H77   H     H_    0.635513 0.387349 0.375576 0.131662
H78   H     H_    0.412663 0.659473 0.062387 0.049733
H79   H     H_    0.597907 0.605106 0.374760 0.155160
H80   H     H_    0.611301 0.556491 0.283733 0.124440
H81   H     H_    0.524185 0.568504 0.317474 0.133186
H82   H     H_    0.965513 0.907567 0.580791 0.135329
H83   H     H_    0.988024 0.997108 0.502867 0.168272
H84   H     H_    0.059880 0.135696 0.578150 0.139520
H85   H     H_    0.970636 0.128716 0.608098 0.087186
H86   H     H_    0.038599 0.046387 0.656651 0.168735
H87   H     H_    0.076348 0.808750 0.308869 0.120586
H88   H     H_    0.144145 0.868508 0.362479 0.129174
H89   H     H_    0.409932 0.754535 0.139749 0.174090
H90   H     H_    0.096495 0.082605 0.341620 0.163677
H91   H     H_    0.115725 0.006589 0.258680 0.110796
H92   H     H_    0.026765 0.017701 0.287818 0.137964
H93   H     H_    0.510405 0.975405 0.430939 0.145264
H94   H     H_    0.545933 0.979233 0.555869 0.150864
H95   H     H_    0.004525 0.473639 0.432606 0.147363
H96   H     H_    0.039737 0.478457 0.557455 0.148929
O1    O     O_R   0.784320 0.290430 0.830510 -0.513182
O2    O     O_R   0.456080 0.282180 0.333210 -0.480027
O3    O     O_R   0.043920 0.782180 0.666790 -0.488584
O4    O     O_R   0.956080 0.782180 0.333210 -0.478885
O5    O     O_R   0.679040 0.374160 0.674430 -0.491234
O6    O     O_R   0.320960 0.374160 0.325570 -0.498125
O7    O     O_R   0.179040 0.874160 0.674430 -0.495592
O8    O     O_R   0.820960 0.874160 0.325570 -0.494998
O9    O     O_3   0.665350 0.165340 0.749070 -0.314721
O10   O     O_3   0.334650 0.165340 0.250930 -0.244814
O11   O     O_3   0.165350 0.665340 0.749070 -0.290217
O12   O     O_R   0.215680 0.290430 0.169490 -0.521385
O13   O     O_3   0.834650 0.665340 0.250930 -0.281452
O14   O     O_R   0.762640 0.040960 0.825200 -0.457914
O15   O     O_R   0.237360 0.040960 0.174800 -0.528879
O16   O     O_R   0.262640 0.540960 0.825200 -0.480880
O17   O     O_R   0.737360 0.540960 0.174800 -0.500382
O18   O     O_R   0.667400 0.923970 0.829950 -0.536787
O19   O     O_R   0.332600 0.923970 0.170050 -0.482168
O20   O     O_R   0.167400 0.423970 0.829950 -0.535869
O21   O     O_R   0.832600 0.423970 0.170050 -0.500841
O22   O     O_R   0.553960 0.081340 0.821780 -0.433092
O23   O     O_R   0.284320 0.790430 0.830510 -0.510815
O24   O     O_R   0.446040 0.081340 0.178220 -0.443985
O25   O     O_R   0.053960 0.581340 0.821780 -0.508224
O26   O     O_R   0.946040 0.581340 0.178220 -0.464680
O27   O     O_R   0.543180 0.283240 0.826740 -0.546049
O28   O     O_R   0.456820 0.283240 0.173260 -0.558957
O29   O     O_R   0.043180 0.783240 0.826740 -0.528604
O30   O     O_R   0.956820 0.783240 0.173260 -0.567457
O31   O     O_R   0.678360 0.375140 0.822710 -0.506354
O32   O     O_R   0.321640 0.375140 0.177290 -0.510453
O33   O     O_R   0.178360 0.875140 0.822710 -0.501263
O34   O     O_R   0.715680 0.790430 0.169490 -0.495338
O35   O     O_R   0.821640 0.875140 0.177290 -0.521817
O36   O     O_R   0.785050 0.289380 0.670560 -0.525640
O37   O     O_R   0.214950 0.289380 0.329440 -0.533836
O38   O     O_R   0.285050 0.789380 0.670560 -0.512246
O39   O     O_R   0.714950 0.789380 0.329440 -0.530861
O40   O     O_R   0.763320 0.039990 0.676930 -0.522567
O41   O     O_R   0.236680 0.039990 0.323070 -0.524045
O42   O     O_R   0.263320 0.539990 0.676930 -0.524011
O43   O     O_R   0.736680 0.539990 0.323070 -0.528665
O44   O     O_R   0.668130 0.922920 0.670000 -0.535770
O45   O     O_R   0.554640 0.080370 0.673500 -0.503017
O46   O     O_R   0.331870 0.922920 0.330000 -0.518890
O47   O     O_R   0.168130 0.422920 0.670000 -0.533627
O48   O     O_R   0.831870 0.422920 0.330000 -0.516381
O49   O     O_3   0.425100 0.970162 0.063742 -0.524478
O50   O     O_3   0.510117 0.950467 0.923457 -0.549223
O51   O     O_3   0.924690 0.466752 0.054478 -0.519729
O52   O     O_3   0.908526 0.538177 0.896589 -0.541411
O53   O     O_3   0.636938 0.513534 0.074824 -0.582909
O54   O     O_3   0.362559 0.427037 0.914486 -0.566855
O55   O     O_3   0.180705 0.756488 0.093160 -0.584448
O56   O     O_R   0.445360 0.080370 0.326500 -0.509168
O57   O     O_3   0.858322 0.031221 0.925479 -0.574901
O58   O     O_3   0.569689 0.399588 0.552394 -0.536249
O59   O     O_3   0.534153 0.396618 0.412647 -0.549472
O60   O     O_3   0.070305 0.897001 0.549936 -0.536146
O61   O     O_3   0.046841 0.889034 0.407102 -0.546956
O62   O     O_R   0.054640 0.580370 0.673500 -0.523154
O63   O     O_R   0.945360 0.580370 0.326500 -0.506070
O64   O     O_R   0.543920 0.282180 0.666790 -0.491071

loop_
_geom_bond_atom_site_label_1
_geom_bond_atom_site_label_2
_ccdc_geom_bond_type
C93   O6    A    
C47   H96   S    
C107  H37   S    
C1    C21   S    
Cr12  O5    S    
C113  H4    S    
C91   O4    A    
C82   O34   A    
C59   C99   S    
C80   O12   A    
C15   O59   S    
C35   C36   A    
C58   C98   S    
C89   O2    A    
C16   H79   S    
Cr12  O31   S    
C23   H63   S    
C114  C115  S    
Cr3   O3    S    
C62   C105  A    
C18   H86   S    
Cr2   O2    S    
C13   C84   A    
Cr1   O1    S    
C101  C102  S    
Cr10  O25   S    
C11   H59   S    
C45   H94   S    
C64   C68   A    
C10   O57   S    
C13   C29   S    
C83   O44   A    
C51   O21   A    
C112  O50   S    
C86   O47   A    
C66   H22   S    
C3    C116  S    
C88   O64   A    
C71   C76   A    
C76   C93   S    
C73   C107  A    
C59   O29   A    
C54   C63   A    
C56   C65   A    
C19   O61   S    
C14   H73   S    
C77   C94   S    
C25   C30   A    
C10   H57   S    
C7    H49   S    
C44   H93   S    
C19   H88   S    
C42   C46   A    
C116  O52   S    
C81   O23   A    
C110  C111  S    
C21   C25   A    
C9    H54   S    
C61   C87   S    
C72   C77   A    
Cr5   O37   S    
C17   O60   S    
C53   C61   A    
C61   C66   A    
C12   H71   S    
Cr9   O24   S    
Cr6   O16   S    
C115  H9    S    
C78   C96   S    
C8    C9    S    
C95   O57   S    
C32   C107  A    
C90   O62   A    
C114  H7    S    
C6    H47   S    
C14   H75   S    
Cr9   O19   S    
C100  H33   S    
Cr11  O21   S    
C62   O53   S    
C23   C27   A    
C22   H62   S    
C109  H39   S    
C49   C54   A    
Cr4   O4    S    
C89   O56   A    
C19   H87   S    
C97   C102  D    
Cr3   O7    S    
Cr4   O13   S    
C15   C16   S    
C43   C47   A    
C99   C104  D    
C82   O35   A    
C110  H56   S    
C26   C31   A    
C113  H5    S    
C55   C64   A    
C60   O26   A    
C4    O53   S    
C31   C105  A    
C48   C75   A    
C101  O49   S    
C83   O40   A    
C51   O17   A    
C33   C108  A    
C52   C78   A    
Cr3   O29   S    
C112  C113  S    
C92   O36   A    
C114  O51   S    
C15   H76   S    
C6    C7    S    
C93   O37   A    
Cr7   O34   S    
C12   H72   S    
C48   C53   A    
C63   C67   A    
Cr8   O45   S    
C105  H36   S    
C43   C90   S    
C4    H41   S    
C74   H30   S    
C5    H42   S    
C11   H60   S    
Cr12  O27   S    
C97   H32   S    
C85   O41   A    
C90   O3    A    
C3    H15   S    
Cr12  O64   S    
C68   H25   S    
C95   C109  A    
Cr5   O41   S    
C114  H8    S    
Cr1   O36   S    
C30   C34   A    
Cr6   O38   S    
C6    H46   S    
C17   H83   S    
C58   O28   A    
C22   C106  A    
Cr8   O44   S    
C100  C103  D    
C60   C100  S    
C46   H95   S    
C70   H27   S    
C13   C24   A    
C79   O1    A    
C68   C72   A    
C11   H61   S    
C65   C83   S    
C85   O46   A    
C37   C43   A    
C84   O55   S    
C18   H84   S    
C59   O25   A    
C37   C38   A    
C9    H55   S    
Cr11  O63   S    
C87   O48   A    
C32   C80   S    
C110  O49   S    
C8    H52   S    
C17   H82   S    
C111  H78   S    
C115  H10   S    
Cr1   O9    S    
C104  O52   S    
C20   H92   S    
Cr5   O12   S    
C57   C97   S    
C7    H48   S    
C2    C23   A    
C60   O30   A    
C17   C18   S    
C5    H43   S    
C49   C76   A    
Cr7   O39   S    
C69   C74   A    
C24   H64   S    
Cr4   O8    S    
C40   O20   A    
C102  O50   S    
C31   C79   S    
Cr10  O11   S    
C15   H77   S    
C37   O60   S    
C50   H23   S    
C2    C73   A    
Cr2   O32   S    
C75   C92   S    
C116  H14   S    
Cr8   O9    S    
C7    H50   S    
Cr3   O11   S    
C30   H70   S    
C115  H11   S    
Cr1   O14   S    
C3    H17   S    
C96   O39   A    
Cr2   O6    S    
Cr11  O48   S    
Cr10  O62   S    
C63   C86   S    
Cr10  O20   S    
C73   O54   S    
C20   H91   S    
C99   H35   S    
C48   H1    S    
C18   H85   S    
C57   O27   A    
C86   O42   A    
Cr8   O18   S    
C26   H66   S    
C50   C77   A    
C64   C85   S    
Cr7   O17   S    
C8    O55   S    
C25   H65   S    
C44   C45   A    
Cr6   O42   S    
Cr2   O10   S    
C110  H45   S    
Cr12  O9    S    
C41   C88   S    
C108  H38   S    
C46   C47   A    
C16   H81   S    
C79   O31   A    
C80   O32   A    
Cr3   O33   S    
C67   H24   S    
C4    H40   S    
C20   H90   S    
C36   C39   A    
C3    H16   S    
C24   C28   A    
C36   O59   S    
C12   C14   S    
C57   O22   A    
C16   H80   S    
C91   O63   A    
C28   C33   A    
Cr11  O13   S    
C39   C44   A    
C62   C106  A    
Cr9   O56   S    
C1    O14   A    
C98   C101  D    
C21   C95   A    
Cr9   O10   S    
C81   O33   A    
C50   C55   A    
C35   O58   S    
Cr9   O46   S    
C113  H6    S    
Cr11  O26   S    
C10   C11   S    
Cr1   O40   S    
C19   C20   S    
C58   O24   A    
C94   O7    A    
C103  O51   S    
C40   O16   A    
Cr7   O43   S    
Cr5   O15   S    
C28   H69   S    
C111  H89   S    
C8    H51   S    
C12   O58   S    
C55   H20   S    
C66   C70   A    
C111  H67   S    
C52   C56   A    
C92   O5    A    
C94   O38   A    
C51   C106  S    
C65   C69   A    
C71   H28   S    
C14   H74   S    
C53   H18   S    
C10   H58   S    
C5    H44   S    
C39   C89   S    
Cr6   O11   S    
C67   C71   A    
C29   O19   A    
C96   O8    A    
C112  H3    S    
Cr8   O22   S    
C72   H29   S    
C35   C41   A    
Cr4   O30   S    
C9    H53   S    
C1    O18   A    
C27   C32   A    
C38   C42   A    
C22   C26   A    
C116  H13   S    
Cr4   O35   S    
C2    C40   S    
C88   O45   A    
C4    C5    S    
C98   H31   S    
C70   C75   A    
Cr5   O10   S    
C74   C78   A    
C49   H12   S    
C52   H34   S    
C103  C104  S    
C34   C109  A    
C41   C45   A    
C54   H19   S    
C69   H26   S    
Cr2   O28   S    
C27   H68   S    
C34   C82   S    
C112  H2    S    
C56   H21   S    
C84   C108  A    
C33   C81   S    
C29   O15   A    
C42   C91   S    
C38   O61   S    
C87   O43   A    
Cr6   O23   S    
Cr7   O13   S    
Cr10  O47   S    
C6    O54   S    
