data_mof_unit_65646.cif
_audit_creation_date              2012-12-11T17:25:54-0500
_audit_creation_method            fapswitch 2.2
_symmetry_space_group_name_H-M    P1
_symmetry_Int_Tables_number       1
_space_group_crystal_system       triclinic
_cell_length_a                    22.592407
_cell_length_b                    22.592407
_cell_length_c                    23.554794
_cell_angle_alpha                 89.999983
_cell_angle_beta                  89.999983
_cell_angle_gamma                 90.000022
_cell_volume                      12022.7638514

loop_
_atom_site_label
_atom_site_type_symbol
_atom_type_description
_atom_site_fract_x
_atom_site_fract_y
_atom_site_fract_z
_atom_type_partial_charge
C1    C     C_R   0.851329 0.079166 0.420720 -0.112927
C2    C     C_R   0.866984 0.937036 0.397342 -0.081915
C3    C     C_R   0.237170 0.686739 0.336931 0.624025
C4    C     C_R   0.771441 0.847532 0.800346 0.620007
C5    C     C_R   0.228559 0.152468 0.199654 0.620008
C6    C     C_R   0.237170 0.686739 0.663069 0.624025
C7    C     C_R   0.762829 0.313261 0.336932 0.624024
C8    C     C_R   0.686739 0.237170 0.336931 0.624025
C9    C     C_R   0.313261 0.762829 0.663068 0.624024
C10   C     C_R   0.152468 0.228559 0.199654 0.620008
C11   C     C_R   0.847532 0.771441 0.800346 0.620007
C12   C     C_R   0.313261 0.762829 0.336932 0.624024
C13   C     C_R   0.079166 0.851329 0.579280 -0.112928
C14   C     C_R   0.686739 0.237170 0.663069 0.624024
C15   C     C_R   0.847532 0.771441 0.199655 0.620008
C16   C     C_R   0.152468 0.228559 0.800345 0.620007
C17   C     C_R   0.174696 0.174696 0.780087 -0.562001
C18   C     C_R   0.825304 0.825304 0.219913 -0.562001
C19   C     C_R   0.743018 0.256981 0.646982 -0.564581
C20   C     C_R   0.256981 0.743018 0.353018 -0.564581
C21   C     C_R   0.825304 0.825304 0.780087 -0.562001
C22   C     C_R   0.174696 0.174696 0.219913 -0.562001
C23   C     C_R   0.256981 0.743018 0.646982 -0.564581
C24   C     C_R   0.920834 0.148671 0.420720 -0.112928
C25   C     C_R   0.743018 0.256981 0.353018 -0.564581
C26   C     C_R   0.756982 0.756982 0.146982 -0.564580
C27   C     C_R   0.243018 0.243018 0.853018 -0.564580
C28   C     C_R   0.325303 0.674696 0.280087 -0.562001
C29   C     C_R   0.674696 0.325304 0.719913 -0.562001
C30   C     C_R   0.243018 0.243018 0.146982 -0.564581
C31   C     C_R   0.756982 0.756982 0.853018 -0.564581
C32   C     C_R   0.674696 0.325304 0.280087 -0.562001
C33   C     C_R   0.325304 0.674696 0.719913 -0.562001
C34   C     C_R   0.866984 0.937036 0.602658 -0.081915
C35   C     C_R   0.133016 0.062964 0.397342 -0.081915
C36   C     C_R   0.920834 0.148671 0.579280 -0.112928
C37   C     C_R   0.079166 0.851329 0.420720 -0.112927
C38   C     C_R   0.366984 0.562964 0.897342 -0.081915
C39   C     C_R   0.633016 0.437036 0.102658 -0.081915
C40   C     C_R   0.420834 0.351329 0.920720 -0.112928
C41   C     C_R   0.148671 0.920834 0.579280 -0.112928
C42   C     C_R   0.579166 0.648671 0.079280 -0.112928
C43   C     C_R   0.633016 0.437036 0.897342 -0.081916
C44   C     C_R   0.366984 0.562964 0.102658 -0.081915
C45   C     C_R   0.579166 0.648671 0.920720 -0.112928
C46   C     C_R   0.420834 0.351329 0.079280 -0.112928
C47   C     C_R   0.648671 0.579166 0.079280 -0.112928
C48   C     C_R   0.351329 0.420834 0.920720 -0.112928
C49   C     C_R   0.562964 0.366984 0.102658 -0.081915
C50   C     C_R   0.437036 0.633016 0.897342 -0.081916
C51   C     C_R   0.351329 0.420834 0.079280 -0.112928
C52   C     C_R   0.937036 0.866984 0.397342 -0.081915
C53   C     C_R   0.648671 0.579166 0.920720 -0.112928
C54   C     C_R   0.437036 0.633016 0.102658 -0.081915
C55   C     C_R   0.562964 0.366984 0.897342 -0.081915
C56   C     C_1   0.148998 0.148998 0.730645 0.370499
C57   C     C_1   0.851002 0.851002 0.269355 0.370499
C58   C     C_1   0.784411 0.215589 0.624471 0.373458
C59   C     C_1   0.215589 0.784411 0.375530 0.373458
C60   C     C_1   0.851002 0.851002 0.730645 0.370499
C61   C     C_1   0.148998 0.148998 0.269355 0.370499
C62   C     C_1   0.215589 0.784411 0.624471 0.373458
C63   C     C_R   0.062964 0.133016 0.602658 -0.081915
C64   C     C_1   0.784411 0.215589 0.375530 0.373458
C65   C     C_1   0.715589 0.715589 0.124470 0.373458
C66   C     C_1   0.284411 0.284411 0.875530 0.373458
C67   C     C_1   0.351001 0.648998 0.230645 0.370499
C68   C     C_1   0.648998 0.351002 0.769355 0.370499
C69   C     C_1   0.284411 0.284411 0.124470 0.373457
C70   C     C_1   0.715589 0.715589 0.875530 0.373458
C71   C     C_1   0.648998 0.351001 0.230645 0.370499
C72   C     C_1   0.351002 0.648998 0.769355 0.370499
C73   C     C_1   0.869594 0.869594 0.313430 -0.013878
C74   C     C_R   0.148671 0.920834 0.420720 -0.112928
C75   C     C_1   0.130406 0.130406 0.686570 -0.013878
C76   C     C_1   0.179736 0.820264 0.390134 -0.021691
C77   C     C_1   0.820264 0.179736 0.609866 -0.021691
C78   C     C_1   0.130406 0.130406 0.313430 -0.013878
C79   C     C_1   0.869594 0.869595 0.686570 -0.013877
C80   C     C_1   0.820264 0.179736 0.390134 -0.021691
C81   C     C_1   0.179736 0.820264 0.609866 -0.021691
C82   C     C_1   0.320264 0.320264 0.890134 -0.021692
C83   C     C_1   0.679736 0.679736 0.109865 -0.021691
C84   C     C_1   0.630405 0.369594 0.813430 -0.013878
C85   C     C_R   0.851329 0.079166 0.579280 -0.112928
C86   C     C_1   0.369594 0.630406 0.186570 -0.013878
C87   C     C_1   0.679736 0.679736 0.890135 -0.021692
C88   C     C_1   0.320263 0.320263 0.109865 -0.021692
C89   C     C_1   0.369594 0.630405 0.813430 -0.013878
C90   C     C_1   0.630406 0.369594 0.186570 -0.013878
C91   C     C_R   0.863323 0.136677 0.405161 0.077727
C92   C     C_R   0.136677 0.863323 0.594839 0.077727
C93   C     C_R   0.889846 0.889845 0.367115 0.052499
C94   C     C_R   0.110154 0.110154 0.632885 0.052499
C95   C     C_R   0.136677 0.863323 0.405161 0.077727
C96   C     C_R   0.062964 0.133016 0.397342 -0.081915
C97   C     C_R   0.863323 0.136677 0.594839 0.077727
C98   C     C_R   0.110154 0.110154 0.367115 0.052499
C99   C     C_R   0.889846 0.889846 0.632885 0.052499
C100  C     C_R   0.389846 0.610154 0.867115 0.052499
C101  C     C_R   0.610154 0.389845 0.132885 0.052499
C102  C     C_R   0.363323 0.363323 0.905161 0.077727
C103  C     C_R   0.636677 0.636677 0.094839 0.077727
C104  C     C_R   0.610154 0.389846 0.867115 0.052499
C105  C     C_R   0.389845 0.610154 0.132885 0.052499
C106  C     C_R   0.636677 0.636677 0.905161 0.077728
C107  C     C_R   0.937036 0.866984 0.602658 -0.081915
C108  C     C_R   0.363323 0.363323 0.094839 0.077727
C109  C     C_R   0.813261 0.737171 0.163068 0.624023
C110  C     C_R   0.186739 0.262829 0.836932 0.624025
C111  C     C_R   0.347531 0.728559 0.300346 0.620007
C112  C     C_R   0.652469 0.271440 0.699655 0.620007
C113  C     C_R   0.186739 0.262829 0.163068 0.624025
C114  C     C_R   0.813261 0.737171 0.836932 0.624025
C115  C     C_R   0.652468 0.271440 0.300345 0.620007
C116  C     C_R   0.347532 0.728559 0.699654 0.620008
C117  C     C_R   0.271440 0.652469 0.699655 0.620007
C118  C     C_R   0.133016 0.062964 0.602658 -0.081915
C119  C     C_R   0.728559 0.347531 0.300346 0.620007
C120  C     C_R   0.737171 0.813261 0.836932 0.624025
C121  C     C_R   0.262829 0.186739 0.163068 0.624025
C122  C     C_R   0.728559 0.347532 0.699654 0.620008
C123  C     C_R   0.271440 0.652469 0.300345 0.620006
C124  C     C_R   0.262829 0.186739 0.836932 0.624025
C125  C     C_R   0.737171 0.813261 0.163068 0.624023
C126  C     C_R   0.228559 0.152468 0.800345 0.620007
C127  C     C_R   0.771440 0.847532 0.199655 0.620008
C128  C     C_R   0.762829 0.313261 0.663068 0.624024
F1    F     F_    0.899625 0.749668 0.219465 -0.594163
F2    F     F_    0.817504 0.332450 0.352301 -0.591232
F3    F     F_    0.749668 0.899626 0.780536 -0.594163
F4    F     F_    0.250332 0.100375 0.219465 -0.594164
F5    F     F_    0.817504 0.332450 0.647699 -0.591233
F6    F     F_    0.182494 0.667551 0.352299 -0.591233
F7    F     F_    0.250332 0.100375 0.780535 -0.594164
F8    F     F_    0.749668 0.899625 0.219465 -0.594163
F9    F     F_    0.317505 0.167550 0.852300 -0.591233
F10   F     F_    0.682495 0.832450 0.147700 -0.591233
F11   F     F_    0.750331 0.399626 0.719464 -0.594163
F12   F     F_    0.100375 0.250332 0.780535 -0.594164
F13   F     F_    0.249667 0.600375 0.280534 -0.594164
F14   F     F_    0.682495 0.832450 0.852300 -0.591233
F15   F     F_    0.317505 0.167550 0.147700 -0.591233
F16   F     F_    0.249667 0.600375 0.719466 -0.594163
F17   F     F_    0.750331 0.399626 0.280536 -0.594163
F18   F     F_    0.600375 0.249667 0.280534 -0.594164
F19   F     F_    0.399626 0.750331 0.719464 -0.594163
F20   F     F_    0.167550 0.317505 0.147700 -0.591233
F21   F     F_    0.832450 0.682495 0.852300 -0.591233
F22   F     F_    0.399626 0.750331 0.280536 -0.594163
F23   F     F_    0.332450 0.817504 0.352301 -0.591232
F24   F     F_    0.600375 0.249667 0.719466 -0.594163
F25   F     F_    0.832450 0.682495 0.147700 -0.591233
F26   F     F_    0.167550 0.317505 0.852300 -0.591233
F27   F     F_    0.667551 0.182494 0.647701 -0.591233
F28   F     F_    0.100375 0.250332 0.219465 -0.594164
F29   F     F_    0.899626 0.749668 0.780536 -0.594163
F30   F     F_    0.667551 0.182494 0.352299 -0.591233
F31   F     F_    0.332450 0.817504 0.647699 -0.591233
F32   F     F_    0.182494 0.667551 0.647701 -0.591233
H1    H     H_    0.807905 0.059216 0.423592 0.132382
H2    H     H_    0.830089 0.964768 0.385428 0.132143
H3    H     H_    0.059216 0.807905 0.576408 0.132382
H4    H     H_    0.940784 0.192095 0.423592 0.132382
H5    H     H_    0.830089 0.964768 0.614572 0.132143
H6    H     H_    0.169910 0.035232 0.385428 0.132143
H7    H     H_    0.940784 0.192095 0.576408 0.132382
H8    H     H_    0.059216 0.807905 0.423592 0.132382
H9    H     H_    0.330089 0.535232 0.885428 0.132143
H10   H     H_    0.669911 0.464768 0.114572 0.132143
H11   H     H_    0.440784 0.307905 0.923592 0.132383
H12   H     H_    0.192095 0.940784 0.576408 0.132382
H13   H     H_    0.559216 0.692095 0.076408 0.132382
H14   H     H_    0.669911 0.464768 0.885428 0.132143
H15   H     H_    0.330089 0.535232 0.114572 0.132143
H16   H     H_    0.559216 0.692095 0.923592 0.132382
H17   H     H_    0.440784 0.307905 0.076408 0.132382
H18   H     H_    0.692095 0.559216 0.076408 0.132382
H19   H     H_    0.307905 0.440784 0.923592 0.132383
H20   H     H_    0.535232 0.330089 0.114572 0.132143
H21   H     H_    0.464768 0.669910 0.885428 0.132143
H22   H     H_    0.307905 0.440784 0.076408 0.132382
H23   H     H_    0.964768 0.830089 0.385428 0.132143
H24   H     H_    0.692095 0.559216 0.923592 0.132382
H25   H     H_    0.464768 0.669911 0.114572 0.132143
H26   H     H_    0.535232 0.330089 0.885428 0.132143
H27   H     H_    0.035232 0.169911 0.614572 0.132143
H28   H     H_    0.192095 0.940784 0.423592 0.132382
H29   H     H_    0.807905 0.059216 0.576408 0.132382
H30   H     H_    0.035232 0.169910 0.385428 0.132143
H31   H     H_    0.964768 0.830089 0.614572 0.132143
H32   H     H_    0.169911 0.035232 0.614572 0.132143
N1    N     N_R   0.900580 0.056480 0.443850 -0.050804
N2    N     N_R   0.900580 0.943520 0.443850 -0.050979
N3    N     N_R   0.056480 0.900580 0.556150 -0.050804
N4    N     N_R   0.943520 0.099420 0.443850 -0.050804
N5    N     N_R   0.900580 0.943520 0.556150 -0.050979
N6    N     N_R   0.099420 0.056480 0.443850 -0.050979
N7    N     N_R   0.943520 0.099420 0.556150 -0.050804
N8    N     N_R   0.056480 0.900580 0.443850 -0.050804
N9    N     N_R   0.400580 0.556480 0.943850 -0.050979
N10   N     N_R   0.599420 0.443520 0.056150 -0.050979
N11   N     N_R   0.443520 0.400580 0.943850 -0.050804
N12   N     N_R   0.099420 0.943520 0.556150 -0.050804
N13   N     N_R   0.556480 0.599420 0.056150 -0.050804
N14   N     N_R   0.599420 0.443520 0.943850 -0.050979
N15   N     N_R   0.400580 0.556480 0.056150 -0.050979
N16   N     N_R   0.556480 0.599420 0.943850 -0.050804
N17   N     N_R   0.443520 0.400580 0.056150 -0.050804
N18   N     N_R   0.599420 0.556480 0.056150 -0.050804
N19   N     N_R   0.400580 0.443520 0.943850 -0.050804
N20   N     N_R   0.556480 0.400580 0.056150 -0.050979
N21   N     N_R   0.443520 0.599420 0.943850 -0.050979
N22   N     N_R   0.400580 0.443520 0.056150 -0.050804
N23   N     N_R   0.943520 0.900580 0.443850 -0.050979
N24   N     N_R   0.599420 0.556480 0.943850 -0.050804
N25   N     N_R   0.443520 0.599420 0.056150 -0.050979
N26   N     N_R   0.556480 0.400580 0.943850 -0.050979
N27   N     N_R   0.056480 0.099420 0.556150 -0.050979
N28   N     N_R   0.099420 0.943520 0.443850 -0.050804
N29   N     N_R   0.900580 0.056480 0.556150 -0.050804
N30   N     N_R   0.056480 0.099420 0.443850 -0.050979
N31   N     N_R   0.943520 0.900580 0.556150 -0.050979
N32   N     N_R   0.099420 0.056480 0.556150 -0.050979
Ni1   Ni    Ni4+2 0.901480 0.000000 0.500000 0.234898
Ni2   Ni    Ni4+2 0.098520 0.000000 0.500000 0.234898
Ni3   Ni    Ni4+2 0.000000 0.901480 0.500000 0.234898
Ni4   Ni    Ni4+2 0.000000 0.098520 0.500000 0.234898
Ni5   Ni    Ni4+2 0.401480 0.500000 0.000000 0.234898
Ni6   Ni    Ni4+2 0.598520 0.500000 0.000000 0.234898
Ni7   Ni    Ni4+2 0.500000 0.401480 0.000000 0.234898
Ni8   Ni    Ni4+2 0.500000 0.598520 0.000000 0.234898

loop_
_geom_bond_atom_site_label_1
_geom_bond_atom_site_label_2
_ccdc_geom_bond_type
C15   C18   A    
N4    Ni4   S    
C60   C79   T    
C33   C117  A    
C72   C89   T    
N29   Ni1   S    
C14   F27   S    
N14   Ni6   S    
C121  F15   S    
C29   C112  A    
C46   H17   S    
C44   H15   S    
C73   C93   S    
C51   H22   S    
C8    F30   S    
C42   C103  A    
C2    H2    S    
C28   C123  A    
C16   C110  A    
C37   N8    A    
C24   H4    S    
C44   C105  A    
N14   N26   A    
C14   C112  A    
C71   C90   T    
C63   C94   A    
C83   C103  S    
C12   C20   A    
C38   H9    S    
C113  F20   S    
C79   C99   S    
N6    N30   A    
C122  F11   S    
C39   H10   S    
N25   Ni8   S    
C49   C101  A    
C88   C108  S    
C43   H14   S    
N31   Ni3   S    
C17   C126  A    
C65   C83   T    
C16   C17   A    
C9    F31   S    
C96   H30   S    
C5    C121  A    
C19   C128  A    
C35   H6    S    
C37   C95   A    
C42   N13   A    
N17   Ni7   S    
C55   H26   S    
C63   N27   A    
C11   C114  A    
C15   C109  A    
C43   C104  A    
C7    F2    S    
C8    C115  A    
N27   N32   A    
C26   C125  A    
C81   C92   S    
C118  H32   S    
C53   C106  A    
C23   C62   S    
C5    C22   A    
C27   C110  A    
C51   C108  A    
C33   C116  A    
C54   H25   S    
C96   C98   A    
C78   C98   S    
N24   Ni6   S    
C36   N7    A    
C6    C117  A    
C77   C97   S    
C36   C97   A    
N7    N29   A    
N27   Ni4   S    
C4    F3    S    
C34   H5    S    
C109  F25   S    
N7    Ni4   S    
N16   N24   A    
C31   C114  A    
C107  N31   A    
C33   C72   S    
N10   Ni6   S    
C49   H20   S    
N9    Ni5   S    
C1    H1    S    
C19   C58   S    
C56   C75   T    
C43   N14   A    
C8    C25   A    
C64   C80   T    
C12   F23   S    
N11   N19   A    
C16   F12   S    
C70   C87   T    
C14   C19   A    
C3    C123  A    
C13   H3    S    
C32   C71   S    
C74   H28   S    
C5    F4    S    
C28   C111  A    
N18   Ni6   S    
C37   H8    S    
N26   Ni7   S    
C41   H12   S    
N15   N25   A    
C47   C103  A    
C89   C100  S    
C118  N32   A    
C68   C84   T    
C7    C119  A    
C124  F9    S    
C52   C93   A    
C28   C67   S    
C120  F14   S    
C127  F8    S    
C21   C60   S    
C38   C100  A    
C45   H16   S    
C10   F28   S    
N2    N23   A    
N20   Ni7   S    
N15   Ni5   S    
N3    N12   A    
C50   N21   A    
C48   H19   S    
C55   C104  A    
C38   N9    A    
C52   N23   A    
C10   C22   A    
C46   C108  A    
C2    N2    A    
N8    Ni3   S    
C1    N1    A    
C90   C101  S    
C110  F26   S    
C18   C127  A    
C66   C82   T    
C29   C68   S    
C18   C57   S    
C52   H23   S    
C15   F1    S    
C48   N19   A    
N30   Ni4   S    
C61   C78   T    
N1    N4    A    
C48   C102  A    
C29   C122  A    
C123  F13   S    
C112  F24   S    
C34   C99   A    
C82   C102  S    
N28   Ni2   S    
C3    C20   A    
C53   N24   A    
C20   C59   S    
N21   Ni8   S    
C17   C56   S    
N9    N21   A    
C74   N28   A    
C44   N15   A    
C69   C88   T    
C85   H29   S    
C39   N10   A    
N16   Ni8   S    
C51   N22   A    
C115  F18   S    
C58   C77   T    
C62   C81   T    
C126  F7    S    
C45   N16   A    
C63   H27   S    
C13   C92   A    
C13   N3    A    
C84   C104  S    
C53   H24   S    
C50   H21   S    
C119  F17   S    
C32   C119  A    
N12   Ni2   S    
C35   C98   A    
C111  F22   S    
C12   C111  A    
C30   C69   S    
C45   C106  A    
C11   F29   S    
C54   N25   A    
C124  C126  A    
N2    Ni1   S    
C67   C86   T    
C10   C113  A    
N19   Ni5   S    
C54   C105  A    
C26   C65   S    
C57   C73   T    
C74   C95   A    
C2    C93   A    
C9    C23   A    
N10   N20   A    
N5    N31   A    
C42   H13   S    
N32   Ni2   S    
C41   N12   A    
C6    F32   S    
C27   C124  A    
C125  F10   S    
C47   H18   S    
C46   N17   A    
C99   C107  A    
C40   N11   A    
C96   N30   A    
N17   N22   A    
C7    C25   A    
C39   C101  A    
N3    Ni3   S    
C3    F6    S    
C31   C70   S    
C80   C91   S    
N1    Ni1   S    
C76   C95   S    
C27   C66   S    
C128  F5    S    
C22   C61   S    
N11   Ni7   S    
C4    C21   A    
C94   C118  A    
C34   N5    A    
C50   C100  A    
C87   C106  S    
N13   N18   A    
N8    N28   A    
C6    C23   A    
C49   N20   A    
N23   Ni3   S    
C11   C21   A    
C26   C109  A    
C36   H7    S    
C32   C115  A    
C122  C128  A    
C55   N26   A    
C31   C120  A    
C85   C97   A    
C40   C102  A    
C24   C91   A    
C86   C105  S    
C30   C121  A    
C41   C92   A    
C35   N6    A    
C117  F16   S    
C1    C91   A    
C47   N18   A    
C107  H31   S    
C9    C116  A    
C125  C127  A    
C24   N4    A    
C116  F19   S    
C4    C120  A    
N13   Ni8   S    
C114  F21   S    
N22   Ni5   S    
C85   N29   A    
C59   C76   T    
C25   C64   S    
C40   H11   S    
N6    Ni2   S    
C75   C94   S    
C30   C113  A    
N5    Ni1   S    
