data_mof_unit_52291.cif
_audit_creation_date              2012-12-11T16:19:14-0500
_audit_creation_method            fapswitch 2.2
_symmetry_space_group_name_H-M    P1
_symmetry_Int_Tables_number       1
_space_group_crystal_system       monoclinic
_cell_length_a                    6.957286
_cell_length_b                    31.339295
_cell_length_c                    35.072022
_cell_angle_alpha                 90.0
_cell_angle_beta                  90.000164
_cell_angle_gamma                 90.0
_cell_volume                      7646.9787627

loop_
_atom_site_label
_atom_site_type_symbol
_atom_type_description
_atom_site_fract_x
_atom_site_fract_y
_atom_site_fract_z
_atom_type_partial_charge
O1    O     O_R   0.417270 0.211480 0.210950 -0.534415
O2    O     O_R   0.582730 0.788520 0.789050 -0.518794
O3    O     O_R   0.582730 0.788520 0.710950 -0.534415
O4    O     O_R   0.417270 0.211480 0.289050 -0.518794
O5    O     O_R   0.917270 0.288520 0.289050 -0.534414
O6    O     O_R   0.082730 0.711480 0.710950 -0.518794
O7    O     O_R   0.082730 0.711480 0.789050 -0.534415
O8    O     O_R   0.917270 0.288520 0.210950 -0.518794
O9    O     O_R   0.746940 0.206370 0.288750 -0.528093
O10   O     O_R   0.253060 0.793630 0.711250 -0.519336
O11   O     O_R   0.253060 0.793630 0.788750 -0.528093
O12   O     O_R   0.746940 0.206370 0.211250 -0.519336
O13   O     O_R   0.246940 0.293630 0.211250 -0.528093
O14   O     O_R   0.753060 0.706370 0.788750 -0.519335
O15   O     O_R   0.753060 0.706370 0.711250 -0.528093
O16   O     O_R   0.246940 0.293630 0.288750 -0.519336
C1    C     C_R   0.578115 0.196138 0.301982 0.885700
C2    C     C_R   0.421834 0.803936 0.698148 0.898969
C3    C     C_R   0.421885 0.803862 0.801982 0.885700
C4    C     C_R   0.578166 0.196064 0.198148 0.898970
C5    C     C_R   0.078115 0.303862 0.198018 0.885700
C6    C     C_R   0.921835 0.696064 0.801852 0.898970
C7    C     C_R   0.921884 0.696138 0.698018 0.885700
C8    C     C_R   0.078166 0.303936 0.301852 0.898970
O17   O     O_3   0.583760 0.276950 0.250000 -0.370268
O18   O     O_3   0.416240 0.723050 0.750000 -0.370268
O19   O     O_3   0.083760 0.223050 0.250000 -0.370268
O20   O     O_3   0.916240 0.776950 0.750000 -0.370268
V1    V     V_3+5 0.858600 0.245000 0.250000 1.760920
V2    V     V_3+5 0.141400 0.755000 0.750000 1.760920
V3    V     V_3+5 0.358600 0.255000 0.250000 1.760920
V4    V     V_3+5 0.641400 0.745000 0.750000 1.760920
C9    C     C_R   0.960649 0.588599 0.537196 0.721847
C10   C     C_R   0.014586 0.412038 0.461540 0.723594
C11   C     C_R   0.039350 0.411401 0.037196 0.721846
C12   C     C_R   0.985415 0.587962 0.961540 0.723595
C13   C     C_R   0.460654 0.911401 0.962804 0.721845
C14   C     C_R   0.514582 0.087962 0.038460 0.723590
C15   C     C_R   0.539350 0.088599 0.462804 0.721847
C16   C     C_R   0.485415 0.912038 0.538460 0.723593
N1    N     N_R   0.969560 0.574644 0.574313 -0.521124
N2    N     N_R   0.037677 0.426303 0.424757 -0.521064
N3    N     N_R   0.030439 0.425356 0.074313 -0.521124
N4    N     N_R   0.962324 0.573697 0.924757 -0.521066
N5    N     N_R   0.469561 0.925356 0.925687 -0.521126
N6    N     N_R   0.537676 0.073697 0.075243 -0.521064
N7    N     N_R   0.530440 0.074644 0.425687 -0.521125
N8    N     N_R   0.462323 0.926303 0.575243 -0.521064
C17   C     C_R   0.991959 0.532035 0.582240 0.668417
C18   C     C_R   0.048811 0.469208 0.417194 0.675464
C19   C     C_R   0.008040 0.467965 0.082240 0.668418
C20   C     C_R   0.951190 0.530792 0.917194 0.675463
C21   C     C_R   0.491957 0.967964 0.917760 0.668420
C22   C     C_R   0.548813 0.030792 0.082806 0.675465
C23   C     C_R   0.508041 0.032036 0.417760 0.668417
C24   C     C_R   0.451188 0.969208 0.582806 0.675465
C25   C     C_R   0.996113 0.501686 0.552649 -0.105046
C26   C     C_R   0.025730 0.499385 0.446586 -0.103820
C27   C     C_R   0.003887 0.498314 0.052649 -0.105045
C28   C     C_R   0.974271 0.500615 0.946586 -0.103821
C29   C     C_R   0.496110 0.998314 0.947351 -0.105048
C30   C     C_R   0.525733 0.000615 0.053414 -0.103820
C31   C     C_R   0.503887 0.001686 0.447351 -0.105046
C32   C     C_R   0.474269 0.999385 0.553414 -0.103820
C33   C     C_R   0.995592 0.515584 0.514531 -0.074397
C34   C     C_R   0.009614 0.485331 0.484525 -0.073886
C35   C     C_R   0.004408 0.484416 0.014531 -0.074396
C36   C     C_R   0.990387 0.514669 0.984525 -0.073888
C37   C     C_R   0.495592 0.984416 0.985469 -0.074397
C38   C     C_R   0.509613 0.014669 0.015475 -0.073886
C39   C     C_R   0.504408 0.015584 0.485469 -0.074397
C40   C     C_R   0.490386 0.985331 0.515475 -0.073887
C41   C     C_R   0.982342 0.559648 0.506425 -0.153864
C42   C     C_R   0.008746 0.441134 0.492480 -0.152944
C43   C     C_R   0.017657 0.440352 0.006425 -0.153866
C44   C     C_R   0.991255 0.558866 0.992480 -0.152942
C45   C     C_R   0.482347 0.940352 0.993575 -0.153865
C46   C     C_R   0.508740 0.058866 0.007520 -0.152945
C47   C     C_R   0.517656 0.059648 0.493575 -0.153864
C48   C     C_R   0.491255 0.941134 0.507520 -0.152943
C49   C     C_R   0.001359 0.457799 0.560488 -0.205199
C50   C     C_R   0.018591 0.543255 0.438728 -0.208972
C51   C     C_R   0.998641 0.542202 0.060488 -0.205202
C52   C     C_R   0.981410 0.456745 0.938728 -0.208969
C53   C     C_R   0.501350 0.042201 0.939512 -0.205195
C54   C     C_R   0.518598 0.956745 0.061272 -0.208971
C55   C     C_R   0.498643 0.957799 0.439512 -0.205200
C56   C     C_R   0.481406 0.043255 0.561272 -0.208972
C57   C     C_R   0.999532 0.427514 0.530979 0.459669
C58   C     C_R   0.989119 0.573246 0.467899 0.462063
C59   C     C_R   0.000468 0.572486 0.030979 0.459671
C60   C     C_R   0.010881 0.426754 0.967899 0.462062
C61   C     C_R   0.499521 0.072486 0.969021 0.459667
C62   C     C_R   0.489127 0.926754 0.032101 0.462062
C63   C     C_R   0.500471 0.927514 0.469021 0.459670
C64   C     C_R   0.510878 0.073246 0.532101 0.462063
O21   O     O_2   0.928743 0.630299 0.530140 -0.437032
O22   O     O_2   0.994767 0.369861 0.468052 -0.435697
O23   O     O_2   0.071254 0.369701 0.030141 -0.437033
O24   O     O_2   0.005236 0.630139 0.968052 -0.435696
O25   O     O_2   0.428751 0.869700 0.969860 -0.437032
O26   O     O_2   0.494760 0.130139 0.031948 -0.435699
O27   O     O_2   0.571255 0.130299 0.469860 -0.437031
O28   O     O_2   0.505235 0.869861 0.531948 -0.435696
O29   O     O_2   0.011488 0.518950 0.618687 -0.482084
O30   O     O_2   0.082908 0.482769 0.381312 -0.484535
O31   O     O_2   0.988512 0.481050 0.118687 -0.482084
O32   O     O_2   0.917093 0.517231 0.881312 -0.484534
O33   O     O_2   0.511484 0.981050 0.881313 -0.482083
O34   O     O_2   0.582912 0.017231 0.118688 -0.484536
O35   O     O_2   0.488513 0.018950 0.381313 -0.482084
O36   O     O_2   0.417090 0.982770 0.618688 -0.484535
H1    H     H_    0.003561 0.446564 0.589694 0.188031
H2    H     H_    0.032445 0.554638 0.409694 0.187176
H3    H     H_    0.996438 0.553435 0.089694 0.188030
H4    H     H_    0.967557 0.445362 0.909694 0.187177
H5    H     H_    0.503546 0.053436 0.910306 0.188033
H6    H     H_    0.532455 0.945362 0.090306 0.187176
H7    H     H_    0.496442 0.946564 0.410306 0.188031
H8    H     H_    0.467552 0.054639 0.590306 0.187176
C65   C     C_R   0.914758 0.397364 0.363135 0.354225
C66   C     C_R   0.809967 0.601438 0.633364 0.353745
C67   C     C_R   0.085243 0.602636 0.863135 0.354224
C68   C     C_R   0.190032 0.398562 0.133364 0.353744
C69   C     C_R   0.414757 0.102636 0.136865 0.354224
C70   C     C_R   0.309968 0.898561 0.866636 0.353744
C71   C     C_R   0.585242 0.897364 0.636865 0.354224
C72   C     C_R   0.690033 0.101438 0.366636 0.353744
C73   C     C_R   0.926281 0.367625 0.333167 0.482165
C74   C     C_R   0.800204 0.630876 0.663666 0.484911
C75   C     C_R   0.073720 0.632374 0.833167 0.482167
C76   C     C_R   0.199795 0.369124 0.163666 0.484911
C77   C     C_R   0.426280 0.132375 0.166833 0.482166
C78   C     C_R   0.300205 0.869124 0.836334 0.484914
C79   C     C_R   0.573719 0.867626 0.666833 0.482166
C80   C     C_R   0.699795 0.130876 0.336334 0.484912
C81   C     C_R   0.068405 0.335697 0.333178 -0.444046
C82   C     C_R   0.932296 0.664805 0.666227 -0.444557
C83   C     C_R   0.931595 0.664303 0.833178 -0.444047
C84   C     C_R   0.067703 0.335195 0.166227 -0.444557
C85   C     C_R   0.568405 0.164302 0.166822 -0.444046
C86   C     C_R   0.432297 0.835195 0.833773 -0.444558
C87   C     C_R   0.431594 0.835698 0.666822 -0.444046
C88   C     C_R   0.567704 0.164805 0.333773 -0.444558
C89   C     C_R   0.199859 0.334056 0.363593 0.483549
C90   C     C_R   0.075034 0.668700 0.637988 0.499928
C91   C     C_R   0.800143 0.665945 0.863593 0.483549
C92   C     C_R   0.924964 0.331300 0.137988 0.499928
C93   C     C_R   0.699857 0.165945 0.136407 0.483549
C94   C     C_R   0.575036 0.831300 0.862012 0.499928
C95   C     C_R   0.300141 0.834056 0.636407 0.483549
C96   C     C_R   0.424965 0.168700 0.362012 0.499928
C97   C     C_R   0.188464 0.363463 0.393595 0.516714
C98   C     C_R   0.085302 0.639513 0.607854 0.520928
C99   C     C_R   0.811538 0.636538 0.893595 0.516715
C100  C     C_R   0.914696 0.360488 0.107854 0.520926
C101  C     C_R   0.688462 0.136538 0.106405 0.516714
C102  C     C_R   0.585304 0.860487 0.892146 0.520927
C103  C     C_R   0.311536 0.863463 0.606405 0.516713
C104  C     C_R   0.414697 0.139513 0.392145 0.520927
C105  C     C_R   0.047626 0.395734 0.393622 -0.031350
C106  C     C_R   0.955155 0.605238 0.605361 -0.031772
C107  C     C_R   0.952376 0.604266 0.893622 -0.031351
C108  C     C_R   0.044844 0.394762 0.105361 -0.031771
C109  C     C_R   0.547624 0.104266 0.106377 -0.031349
C110  C     C_R   0.455156 0.894762 0.894639 -0.031773
C111  C     C_R   0.452374 0.895734 0.606378 -0.031348
C112  C     C_R   0.544845 0.105238 0.394639 -0.031771
O37   O     O_3   0.005221 0.384617 0.540180 -0.520708
C113  C     C_3   0.820599 0.371824 0.552272 -0.059650
H9    H     H_    0.821741 0.336791 0.556773 0.186946
H10   H     H_    0.709520 0.378877 0.530268 0.145576
H11   H     H_    0.781295 0.386975 0.579868 0.109468
O38   O     O_3   0.983579 0.616143 0.458702 -0.518843
C114  C     C_3   0.802482 0.625515 0.442655 -0.066064
H12   H     H_    0.792845 0.660468 0.438060 0.186412
H13   H     H_    0.683085 0.616310 0.462169 0.138223
H14   H     H_    0.784359 0.609824 0.414440 0.110373
O39   O     O_3   0.994779 0.615383 0.040180 -0.520708
C115  C     C_3   0.179398 0.628176 0.052274 -0.059653
H15   H     H_    0.178256 0.663209 0.056774 0.186946
H16   H     H_    0.290482 0.621123 0.030271 0.145574
H17   H     H_    0.218694 0.613026 0.079871 0.109468
O40   O     O_3   0.016422 0.383857 0.958702 -0.518844
C116  C     C_3   0.197522 0.374485 0.942657 -0.066061
H18   H     H_    0.207159 0.339532 0.938061 0.186412
H19   H     H_    0.316915 0.383689 0.962172 0.138224
H20   H     H_    0.215652 0.390177 0.914442 0.110372
O41   O     O_3   0.505200 0.115383 0.959820 -0.520709
C117  C     C_3   0.320570 0.128174 0.947731 -0.059648
H21   H     H_    0.321707 0.163207 0.943229 0.186946
H22   H     H_    0.209504 0.121122 0.969737 0.145580
H23   H     H_    0.281253 0.113022 0.920136 0.109466
O42   O     O_3   0.483591 0.883856 0.041298 -0.518843
C118  C     C_3   0.302495 0.874484 0.057344 -0.066064
H24   H     H_    0.292862 0.839531 0.061940 0.186411
H25   H     H_    0.183097 0.883688 0.037830 0.138226
H26   H     H_    0.284367 0.890176 0.085559 0.110371
O43   O     O_3   0.494784 0.884617 0.459820 -0.520708
C119  C     C_3   0.679406 0.871825 0.447728 -0.059650
H27   H     H_    0.678267 0.836792 0.443228 0.186946
H28   H     H_    0.790486 0.878878 0.469731 0.145574
H29   H     H_    0.718706 0.886975 0.420131 0.109468
O44   O     O_3   0.516417 0.116144 0.541298 -0.518842
C120  C     C_3   0.697512 0.125515 0.557345 -0.066064
H30   H     H_    0.707149 0.160468 0.561940 0.186412
H31   H     H_    0.816911 0.116311 0.537831 0.138223
H32   H     H_    0.715634 0.109825 0.585560 0.110373
O45   O     O_3   0.779661 0.429601 0.361339 -0.501021
C121  C     C_3   0.610542 0.415235 0.379160 -0.011772
H33   H     H_    0.635876 0.407854 0.409801 0.145914
H34   H     H_    0.550827 0.386976 0.364080 0.172368
H35   H     H_    0.501387 0.440994 0.377773 0.161216
O46   O     O_3   0.684846 0.567211 0.632536 -0.502173
C122  C     C_3   0.514231 0.580153 0.614380 -0.006090
H36   H     H_    0.542378 0.591864 0.584915 0.140103
H37   H     H_    0.439028 0.604873 0.631518 0.181218
H38   H     H_    0.417032 0.552216 0.612105 0.157348
O47   O     O_3   0.220340 0.570399 0.861339 -0.501021
C123  C     C_3   0.389459 0.584764 0.879160 -0.011769
H39   H     H_    0.364124 0.592145 0.909802 0.145913
H40   H     H_    0.449174 0.613024 0.864081 0.172368
H41   H     H_    0.498614 0.559006 0.877774 0.161216
O48   O     O_3   0.315153 0.432789 0.132537 -0.502174
C124  C     C_3   0.485769 0.419846 0.114380 -0.006092
H42   H     H_    0.457622 0.408136 0.084916 0.140104
H43   H     H_    0.560971 0.395127 0.131518 0.181218
H44   H     H_    0.582968 0.447783 0.112106 0.157349
O49   O     O_3   0.279661 0.070399 0.138661 -0.501022
C125  C     C_3   0.110541 0.084764 0.120840 -0.011771
H45   H     H_    0.135874 0.092145 0.090198 0.145913
H46   H     H_    0.050826 0.113024 0.135920 0.172368
H47   H     H_    0.001386 0.059006 0.122227 0.161216
O50   O     O_3   0.184846 0.932789 0.867464 -0.502173
C126  C     C_3   0.014232 0.919846 0.885620 -0.006089
H48   H     H_    0.042381 0.908136 0.915085 0.140102
H49   H     H_    0.939029 0.895126 0.868483 0.181218
H50   H     H_    0.917031 0.947783 0.887895 0.157348
O51   O     O_3   0.720338 0.929601 0.638661 -0.501021
C127  C     C_3   0.889459 0.915235 0.620841 -0.011772
H51   H     H_    0.864126 0.907854 0.590199 0.145916
H52   H     H_    0.949174 0.886976 0.635921 0.172368
H53   H     H_    0.998613 0.940994 0.622227 0.161216
O52   O     O_3   0.815154 0.067211 0.367464 -0.502174
C128  C     C_3   0.985769 0.080153 0.385620 -0.006090
H54   H     H_    0.957623 0.091864 0.415084 0.140104
H55   H     H_    0.060973 0.104873 0.368482 0.181219
H56   H     H_    0.082967 0.052216 0.387895 0.157348
F1    F     F_    0.800571 0.370651 0.303651 -0.612203
F2    F     F_    0.664584 0.625437 0.691101 -0.610406
F3    F     F_    0.199429 0.629349 0.803652 -0.612203
F4    F     F_    0.335415 0.374563 0.191101 -0.610407
F5    F     F_    0.300571 0.129349 0.196348 -0.612204
F6    F     F_    0.164584 0.874563 0.808899 -0.610406
F7    F     F_    0.699428 0.870651 0.696348 -0.612205
F8    F     F_    0.835416 0.125437 0.308899 -0.610406
F9    F     F_    0.337516 0.303359 0.364694 -0.576276
F10   F     F_    0.203281 0.701348 0.639090 -0.574947
F11   F     F_    0.662486 0.696642 0.864694 -0.576276
F12   F     F_    0.796718 0.298652 0.139090 -0.574946
F13   F     F_    0.837514 0.196642 0.135306 -0.576276
F14   F     F_    0.703283 0.798651 0.860910 -0.574946
F15   F     F_    0.162484 0.803359 0.635306 -0.576276
F16   F     F_    0.296719 0.201349 0.360910 -0.574946
F17   F     F_    0.317110 0.360777 0.422589 -0.610847
F18   F     F_    0.224632 0.644467 0.581131 -0.609883
F19   F     F_    0.682892 0.639223 0.922589 -0.610847
F20   F     F_    0.775366 0.355534 0.081131 -0.609883
F21   F     F_    0.817107 0.139223 0.077411 -0.610848
F22   F     F_    0.724635 0.855533 0.918869 -0.609883
F23   F     F_    0.182890 0.860777 0.577411 -0.610847
F24   F     F_    0.275367 0.144467 0.418869 -0.609883

loop_
_geom_bond_atom_site_label_1
_geom_bond_atom_site_label_2
_ccdc_geom_bond_type
O17   V3    S    
C16   O28   S    
C56   C64   A    
C71   O51   S    
C117  H21   S    
C118  H25   S    
N6    C109  S    
O12   V1    S    
O19   V1    S    
C70   C110  A    
O37   C113  S    
C7    C82   S    
C37   C45   A    
O51   C127  S    
C10   N2    A    
N8    C24   A    
N8    C111  S    
C10   O22   S    
C68   C108  A    
O48   C124  S    
C84   C92   A    
C96   C104  A    
C116  H18   S    
N2    C105  S    
C85   C93   A    
O15   V4    S    
C114  H13   S    
O14   V4    S    
C120  H30   S    
O40   C116  S    
O16   V3    S    
O18   V4    S    
C30   C54   A    
C83   C91   A    
C52   H4    S    
O3    C2    A    
C1    C88   S    
O8    V1    S    
C42   C57   A    
N7    C23   A    
C2    C87   S    
C71   C79   A    
C41   C58   A    
C69   O49   S    
C72   C80   A    
C121  H33   S    
C116  H19   S    
C38   C46   A    
C113  H9    S    
C46   C61   A    
C29   C37   A    
C100  F20   S    
C34   C42   A    
C11   N3    A    
C45   C62   A    
O1    V3    S    
C124  H44   S    
C17   C25   A    
O52   C128  S    
C30   C38   A    
C125  H47   S    
O2    V4    S    
C102  F22   S    
N1    C17   A    
C90   F10   S    
O13   V3    S    
O38   C114  S    
C54   C62   A    
C117  H23   S    
C27   C35   A    
C21   C29   A    
C26   C34   A    
C76   C84   A    
C68   O48   S    
O11   V2    S    
C115  H16   S    
C119  H27   S    
C101  F21   S    
C23   C31   A    
C126  H48   S    
C16   C48   A    
N4    C107  S    
C65   O45   S    
C56   H8    S    
C20   C28   A    
N5    C110  S    
C115  H17   S    
C95   F15   S    
O4    V3    S    
C14   O26   S    
C118  H26   S    
C67   C75   A    
N3    C108  S    
C96   F16   S    
O15   C7    A    
O42   C118  S    
N5    C21   A    
O43   C119  S    
O16   C8    A    
O7    V2    S    
N1    C106  S    
C93   C101  A    
C103  F23   S    
C126  H49   S    
O12   C4    A    
O3    V4    S    
C53   C61   A    
C92   F12   S    
C19   O31   S    
C11   O23   S    
C93   F13   S    
C123  H39   S    
C68   C76   A    
C75   F3    S    
C64   O44   S    
C114  H14   S    
O5    V1    S    
C74   F2    S    
C19   C27   A    
O17   V1    S    
C47   C64   A    
C73   F1    S    
C104  F24   S    
C89   F9    S    
C35   C36   A    
C18   C26   A    
C51   H3    S    
O20   V4    S    
C50   H2    S    
C26   C50   A    
C54   H6    S    
C60   O40   S    
C33   C41   A    
C101  C109  A    
O47   C123  S    
C94   F14   S    
O46   C122  S    
C116  H20   S    
C17   O29   S    
C118  H24   S    
C14   C46   A    
C99   C107  A    
O19   V3    S    
C6    C83   S    
C127  H53   S    
C39   C47   A    
C66   O46   S    
C59   O39   S    
C22   O34   S    
C95   C103  A    
C69   C109  A    
C122  H36   S    
C121  H35   S    
C55   H7    S    
O49   C125  S    
C78   C86   A    
C67   C107  A    
O10   V2    S    
C52   C60   A    
C114  H12   S    
C90   C98   A    
N2    C18   A    
C125  H46   S    
O11   C3    A    
N6    C22   A    
C127  H52   S    
O45   C121  S    
O13   C5    A    
C12   O24   S    
C71   C111  A    
C50   C58   A    
O9    C1    A    
C48   C63   A    
C53   H5    S    
C78   F6    S    
C29   C53   A    
C43   C60   A    
C10   C42   A    
O4    C1    A    
C119  H28   S    
C9    C41   A    
O6    V2    S    
C31   C39   A    
O18   V2    S    
C3    C86   S    
C121  H34   S    
C128  H55   S    
O14   C6    A    
C72   O52   S    
C126  H50   S    
C25   C49   A    
C122  H38   S    
C23   O35   S    
C35   C43   A    
O50   C126  S    
C77   F5    S    
C74   C82   A    
C98   C106  A    
C18   O30   S    
C91   C99   A    
C115  H15   S    
C76   F4    S    
C15   N7    A    
C120  H31   S    
C120  H32   S    
C69   C77   A    
O41   C117  S    
C16   N8    A    
C67   O47   S    
C55   C63   A    
C65   C73   A    
O1    C4    A    
C117  H22   S    
C87   C95   A    
C94   C102  A    
C31   C55   A    
O2    C3    A    
C62   O42   S    
C4    C85   S    
C80   F8    S    
C12   N4    A    
C11   C43   A    
C27   C51   A    
C98   F18   S    
O8    C5    A    
N4    C20   A    
C61   O41   S    
C15   O27   S    
O9    V1    S    
C8    C81   S    
C36   C44   A    
O7    C6    A    
C51   C59   A    
C58   O38   S    
C77   C85   A    
C66   C106  A    
C123  H40   S    
C82   C90   A    
C81   C89   A    
C9    N1    A    
C103  C111  A    
C86   C94   A    
C122  H37   S    
C89   C97   A    
C125  H45   S    
C80   C88   A    
C24   O36   S    
C100  C108  A    
C13   O25   S    
N7    C112  S    
C28   C52   A    
N3    C19   A    
C24   C32   A    
O5    C8    A    
C113  H10   S    
O10   C2    A    
C119  H29   S    
O6    C7    A    
C113  H11   S    
C79   C87   A    
C127  H51   S    
C124  H43   S    
O20   V2    S    
C9    O21   S    
C32   C40   A    
C49   C57   A    
C91   F11   S    
C37   C38   A    
C70   O50   S    
C104  C112  A    
C14   N6    A    
C40   C48   A    
C75   C83   A    
C28   C36   A    
C44   C59   A    
C57   O37   S    
O39   C115  S    
C102  C110  A    
C39   C40   A    
C73   C81   A    
O44   C120  S    
C70   C78   A    
C63   O43   S    
C33   C34   A    
C128  H56   S    
C97   C105  A    
C72   C112  A    
C97   F17   S    
C22   C30   A    
C20   O32   S    
C21   O33   S    
C92   C100  A    
C5    C84   S    
C79   F7    S    
C32   C56   A    
C128  H54   S    
C49   H1    S    
C13   N5    A    
C12   C44   A    
C66   C74   A    
C123  H41   S    
C99   F19   S    
C65   C105  A    
C88   C96   A    
C25   C33   A    
C15   C47   A    
C124  H42   S    
C13   C45   A    
