data_mof_unit_43542.cif
_audit_creation_date              2012-12-10T19:47:24-0500
_audit_creation_method            fapswitch 2.2
_symmetry_space_group_name_H-M    P1
_symmetry_Int_Tables_number       1
_space_group_crystal_system       triclinic
_cell_length_a                    10.813067
_cell_length_b                    10.862502
_cell_length_c                    12.721051
_cell_angle_alpha                 92.935628
_cell_angle_beta                  92.846484
_cell_angle_gamma                 90.108314
_cell_volume                      1490.35934841

loop_
_atom_site_label
_atom_site_type_symbol
_atom_type_description
_atom_site_fract_x
_atom_site_fract_y
_atom_site_fract_z
_atom_type_partial_charge
C1    C     C_R   0.261983 0.497252 0.500741 0.796173
C2    C     C_R   0.738017 0.502748 0.499258 0.796203
C3    C     C_R   0.494015 0.871714 0.497574 -0.051711
C4    C     C_R   0.505971 0.128285 0.502432 -0.051756
C5    C     C_R   0.453818 0.934286 0.407247 0.008478
C6    C     C_R   0.546158 0.065714 0.592764 0.008351
C7    C     C_R   0.226612 0.183073 0.728508 -0.155670
C8    C     C_R   0.773441 0.816803 0.271359 -0.155689
C9    C     C_R   0.168130 0.243465 0.644346 -0.001962
C10   C     C_R   0.831863 0.756460 0.355561 -0.001875
C11   C     C_R   0.130009 0.367845 0.662497 0.027351
C12   C     C_R   0.869996 0.632084 0.337468 0.027363
C13   C     C_R   0.150203 0.426530 0.762867 -0.130662
C14   C     C_R   0.849854 0.573350 0.237121 -0.130685
C15   C     C_R   0.208500 0.364650 0.844709 -0.134241
C16   C     C_R   0.791613 0.635180 0.155239 -0.134310
C17   C     C_R   0.246825 0.243263 0.827543 -0.137721
C18   C     C_R   0.753295 0.756567 0.172342 -0.137822
C19   C     C_R   0.937473 0.443858 0.577989 -0.191703
C20   C     C_R   0.062529 0.556143 0.422008 -0.191734
C21   C     C_R   0.871577 0.503303 0.498265 -0.034078
C22   C     C_R   0.128423 0.496696 0.501731 -0.034125
C23   C     C_R   0.503711 0.261900 0.500919 0.787303
C24   C     C_R   0.496284 0.738099 0.499082 0.787330
C25   C     C_R   0.934380 0.561312 0.419923 0.054628
C26   C     C_R   0.065621 0.438675 0.580069 0.054617
C27   C     C_2   0.479027 0.456522 0.031121 -0.281594
C28   C     C_2   0.520975 0.543487 0.968879 -0.281592
C29   C     C_1   0.520223 0.528175 0.852809 0.218805
C30   C     C_1   0.479779 0.471830 0.147191 0.218839
C31   C     C_R   0.760323 0.250752 0.787174 -0.123404
C32   C     C_R   0.239594 0.749292 0.212861 -0.123425
C33   C     C_R   0.709146 0.196866 0.692426 -0.104639
C34   C     C_R   0.290791 0.803169 0.307604 -0.104753
C35   C     C_R   0.599078 0.127694 0.691770 0.126524
C36   C     C_R   0.400878 0.872303 0.308249 0.126497
C37   C     C_R   0.543417 0.110712 0.787568 -0.142906
C38   C     C_R   0.456541 0.889248 0.212448 -0.142865
C39   C     C_R   0.594091 0.165803 0.881682 -0.149395
C40   C     C_R   0.405847 0.834166 0.118339 -0.149381
C41   C     C_R   0.702227 0.236181 0.881434 -0.100469
C42   C     C_R   0.297689 0.763833 0.118596 -0.100460
C43   C     C_R   0.538590 0.938110 0.588901 -0.191579
C44   C     C_R   0.461393 0.061888 0.411106 -0.191445
Cu1   Cu    Cu3+1 0.492140 0.492110 0.395880 0.993715
Cu2   Cu    Cu3+1 0.507860 0.507890 0.604120 0.993708
H1    H     H_    0.741721 0.278384 0.954455 0.126898
H2    H     H_    0.258179 0.721638 0.045578 0.126897
H3    H     H_    0.120675 0.520849 0.777608 0.137569
H4    H     H_    0.879388 0.479033 0.222424 0.137609
H5    H     H_    0.223365 0.410843 0.921723 0.130970
H6    H     H_    0.776796 0.588951 0.078241 0.131006
H7    H     H_    0.888741 0.398821 0.637478 0.130703
H8    H     H_    0.111261 0.601177 0.362518 0.130719
H9    H     H_    0.556142 0.629980 0.005182 0.157671
H10   H     H_    0.443852 0.370030 0.994816 0.157657
H11   H     H_    0.845602 0.303011 0.788226 0.123273
H12   H     H_    0.154302 0.697064 0.211818 0.123301
H13   H     H_    0.755379 0.208094 0.619912 0.113291
H14   H     H_    0.244560 0.791964 0.380122 0.113342
H15   H     H_    0.461144 0.054226 0.789458 0.115194
H16   H     H_    0.538834 0.945697 0.210553 0.115223
H17   H     H_    0.550049 0.153025 0.954945 0.117809
H18   H     H_    0.449888 0.846918 0.045072 0.117811
H19   H     H_    0.571755 0.890126 0.657443 0.157040
H20   H     H_    0.428228 0.109872 0.342564 0.157009
H21   H     H_    0.291628 0.195243 0.891391 0.123610
H22   H     H_    0.708548 0.804546 0.108459 0.123650
H23   H     H_    0.255780 0.088169 0.718226 0.170137
H24   H     H_    0.744268 0.911703 0.281594 0.170156
N1    N     N_1   0.480320 0.480250 0.239400 -0.151653
N2    N     N_1   0.519680 0.519750 0.760600 -0.151652
O1    O     O_R   0.313000 0.493330 0.412070 -0.577866
O2    O     O_R   0.687000 0.506670 0.587930 -0.577865
O3    O     O_R   0.326280 0.506660 0.587930 -0.573533
O4    O     O_R   0.673720 0.493340 0.412070 -0.573537
O5    O     O_R   0.493370 0.312980 0.412070 -0.583987
O6    O     O_R   0.506630 0.687020 0.587930 -0.583989
O7    O     O_R   0.506650 0.326310 0.587930 -0.568238
O8    O     O_R   0.493350 0.673690 0.412070 -0.568242
C45   C     C_2   0.147202 0.172851 0.541045 0.802246
O9    O     O_2   0.090533 0.218078 0.467086 -0.599705
O10   O     O_R   0.191986 0.052461 0.528562 -0.770167
H25   H     H_    0.171889 0.013713 0.455490 0.337559
C46   C     C_2   0.852706 0.827108 0.458845 0.802146
O11   O     O_2   0.909329 0.781918 0.532860 -0.599688
O12   O     O_R   0.807881 0.947480 0.471254 -0.770182
H26   H     H_    0.827918 0.986250 0.544325 0.337573

loop_
_geom_bond_atom_site_label_1
_geom_bond_atom_site_label_2
_ccdc_geom_bond_type
O12   H26   S    
C10   C46   S    
Cu1   N1    S    
C44   H20   S    
C32   H12   S    
C30   N1    T    
C39   C41   A    
C46   O11   D    
C3    C43   A    
Cu1   O4    S    
C28   C29   S    
C19   C21   A    
Cu2   O7    S    
C20   C25   A    
C18   H22   S    
C5    C36   S    
C6    C35   S    
Cu1   O1    S    
C19   C26   A    
C24   O8    A    
C7    C17   A    
C31   C33   A    
C15   H5    S    
Cu2   N2    S    
C2    O2    A    
C29   N2    T    
C19   H7    S    
C40   C42   A    
C1    C22   S    
C33   H13   S    
C27   C30   S    
C34   H14   S    
C3    C24   S    
Cu2   O3    S    
C45   O10   S    
C28   H9    S    
C45   O9    D    
C46   O12   S    
C17   H21   S    
C1    O3    A    
C20   H8    S    
Cu2   O6    S    
C4    C23   S    
C27   H10   S    
C4    C44   A    
C11   C26   S    
Cu1   Cu2   S    
C8    C18   A    
C32   C34   A    
O10   H25   S    
C43   H19   S    
C2    C21   S    
C41   H1    S    
C16   C18   A    
C42   H2    S    
C23   O5    A    
C9    C11   A    
C10   C12   A    
C13   H3    S    
C4    C6    A    
C5    C44   A    
C12   C14   A    
C6    C43   A    
C13   C15   A    
C14   C16   A    
Cu2   O2    S    
C2    O4    A    
C24   O6    A    
C15   C17   A    
C21   C25   A    
C31   C41   A    
C35   C37   A    
C16   H6    S    
C20   C22   A    
C3    C5    A    
C7    H23   S    
C37   H15   S    
C39   H17   S    
C8    H24   S    
C40   H18   S    
C12   C25   S    
C1    O1    A    
C31   H11   S    
C36   C38   A    
C37   C39   A    
C38   C40   A    
C11   C13   A    
C14   H4    S    
C33   C35   A    
Cu1   O8    S    
C34   C36   A    
C7    C9    A    
C8    C10   A    
C22   C26   A    
C27   C28   D    
C32   C42   A    
Cu1   O5    S    
C23   O7    A    
C9    C45   S    
C38   H16   S    
