data_mof_unit_46281.cif
_audit_creation_date              2012-12-10T20:02:23-0500
_audit_creation_method            fapswitch 2.2
_symmetry_space_group_name_H-M    P1
_symmetry_Int_Tables_number       1
_space_group_crystal_system       triclinic
_cell_length_a                    10.676827
_cell_length_b                    14.975554
_cell_length_c                    14.377287
_cell_angle_alpha                 88.068463
_cell_angle_beta                  89.558522
_cell_angle_gamma                 90.619588
_cell_volume                      2297.28916143

loop_
_atom_site_label
_atom_site_type_symbol
_atom_type_description
_atom_site_fract_x
_atom_site_fract_y
_atom_site_fract_z
_atom_type_partial_charge
C1    C     C_R   0.500844 0.327988 0.500680 0.955725
C2    C     C_R   0.504515 0.671744 0.498389 0.921328
C3    C     C_R   0.872267 0.499477 0.502552 -0.297076
C4    C     C_R   0.128587 0.507221 0.497926 -0.318937
C5    C     C_R   0.940102 0.433703 0.551664 -0.111778
C6    C     C_R   0.060959 0.576634 0.452937 -0.113501
C7    C     C_R   0.452544 0.084943 0.552166 0.667123
C8    C     C_R   0.432823 0.910001 0.450298 0.688764
C9    C     C_R   0.439005 0.176674 0.555116 -0.290225
C10   C     C_R   0.421819 0.817960 0.455909 -0.295725
C11   C     C_R   0.514071 0.232390 0.499068 -0.146055
C12   C     C_R   0.518040 0.767304 0.493448 -0.124927
C13   C     C_R   0.597822 0.196804 0.435222 -0.178923
C14   C     C_R   0.630000 0.807397 0.520199 -0.189187
C15   C     C_R   0.612423 0.104997 0.430430 -0.066402
C16   C     C_R   0.642290 0.900408 0.517259 -0.048004
C17   C     C_R   0.539002 0.048572 0.489927 -0.039169
C18   C     C_R   0.540979 0.951847 0.483629 -0.037869
C19   C     C_R   0.451450 0.428917 0.107001 -0.318820
C20   C     C_R   0.578321 0.554878 0.893713 -0.326064
C21   C     C_R   0.448100 0.429768 0.205234 0.060845
C22   C     C_R   0.576142 0.557223 0.795420 0.069727
C23   C     C_R   0.261162 0.506693 0.499391 0.997441
C24   C     C_R   0.739395 0.497051 0.500497 1.006471
C25   C     C_R   0.546481 0.571960 0.200179 -0.051195
C26   C     C_R   0.419227 0.445141 0.799332 -0.034629
C27   C     C_R   0.533525 0.577618 0.102364 0.492677
C28   C     C_R   0.405592 0.453285 0.896809 0.501434
C29   C     C_R   0.490633 0.504173 0.052999 0.037088
C30   C     C_R   0.490284 0.504874 0.946950 0.040069
C31   C     C_R   0.120474 0.812080 0.357994 -0.358701
C32   C     C_R   0.767498 0.222994 0.629235 -0.329969
C33   C     C_R   0.092060 0.741055 0.420867 0.606630
C34   C     C_R   0.825746 0.288698 0.572140 0.557093
C35   C     C_R   0.118303 0.652533 0.397621 0.046058
C36   C     C_R   0.880218 0.363446 0.611521 0.125066
C37   C     C_R   0.176049 0.637436 0.311472 -0.329363
C38   C     C_R   0.883578 0.369117 0.708741 -0.347808
C39   C     C_R   0.208760 0.708753 0.250656 -0.300128
C40   C     C_R   0.824019 0.303991 0.765618 -0.259006
C41   C     C_R   0.180166 0.796036 0.273565 0.646361
C42   C     C_R   0.764976 0.231211 0.725756 0.578045
C43   C     C_R   0.931390 0.572079 0.457964 0.592370
C44   C     C_R   0.068563 0.435579 0.544282 0.547984
H1    H     H_    0.421294 0.368752 0.073856 0.234236
H2    H     H_    0.649620 0.593727 0.927454 0.232749
H3    H     H_    0.097515 0.879769 0.374601 0.193527
H4    H     H_    0.724884 0.165478 0.598873 0.184974
H5    H     H_    0.190329 0.570621 0.288823 0.197647
H6    H     H_    0.933977 0.423017 0.740554 0.168549
H7    H     H_    0.252961 0.695956 0.184479 0.199208
H8    H     H_    0.825032 0.309453 0.840479 0.185989
H9    H     H_    0.366296 0.204556 0.597127 0.203406
H10   H     H_    0.338382 0.785426 0.432244 0.153373
H11   H     H_    0.650502 0.240853 0.387638 0.220290
H12   H     H_    0.706629 0.766065 0.544149 0.210289
N1    N     N_R   0.500000 0.499980 0.252470 -0.151856
N2    N     N_R   0.500000 0.500020 0.747530 -0.149350
O1    O     O_R   0.500010 0.369070 0.579480 -0.621895
O2    O     O_R   0.499990 0.630930 0.420520 -0.625867
O3    O     O_R   0.500010 0.369060 0.420520 -0.618577
O4    O     O_R   0.499990 0.630940 0.579480 -0.616857
O5    O     O_R   0.316760 0.500010 0.579480 -0.595282
O6    O     O_R   0.683240 0.499990 0.420520 -0.586519
O7    O     O_R   0.316760 0.500000 0.420520 -0.643070
O8    O     O_R   0.683240 0.500000 0.579480 -0.646042
Zn1   Zn    Zn3+2 0.500000 0.500010 0.606140 0.970818
Zn2   Zn    Zn3+2 0.500000 0.499990 0.393860 0.968436
F1    F     F_    0.209410 0.865094 0.213649 -0.644357
F2    F     F_    0.706658 0.168086 0.780842 -0.708124
C45   C     C_R   0.700493 0.071989 0.359925 0.130820
C46   C     C_R   0.829669 0.087881 0.368790 -0.114429
C47   C     C_R   0.912719 0.063537 0.298660 -0.153102
C48   C     C_R   0.867145 0.025465 0.218106 -0.102785
C49   C     C_R   0.738548 0.010837 0.208083 -0.146745
C50   C     C_R   0.655457 0.033552 0.278925 -0.192930
H13   H     H_    0.866119 0.118108 0.430456 0.196971
H14   H     H_    0.012278 0.074588 0.306510 0.156434
H15   H     H_    0.931446 0.006943 0.163668 0.168051
H16   H     H_    0.703282 0.981101 0.145763 0.166711
H17   H     H_    0.556320 0.021336 0.270258 0.156275
C51   C     C_R   0.758381 0.940724 0.553770 0.100859
C52   C     C_R   0.874150 0.924803 0.510814 -0.104744
C53   C     C_R   0.985072 0.958178 0.548409 -0.072896
C54   C     C_R   0.981626 0.004790 0.630703 -0.132318
C55   C     C_R   0.867288 0.018815 0.675136 -0.157899
C56   C     C_R   0.755597 0.988708 0.635917 -0.177225
H18   H     H_    0.878021 0.887279 0.447923 0.168162
H19   H     H_    0.074190 0.947046 0.514901 0.197486
H20   H     H_    0.067674 0.029211 0.660541 0.170185
H21   H     H_    0.865689 0.052752 0.740240 0.204080
H22   H     H_    0.667516 0.000342 0.671110 0.182210
C57   C     C_R   0.383118 0.353432 0.253091 0.193465
C58   C     C_R   0.261819 0.363262 0.289457 -0.077559
C59   C     C_R   0.197629 0.290391 0.331165 -0.137704
C60   C     C_R   0.251491 0.205913 0.332609 -0.085924
C61   C     C_R   0.368387 0.194174 0.290936 -0.094525
C62   C     C_R   0.434464 0.267479 0.251434 -0.186953
H23   H     H_    0.215575 0.426627 0.284005 0.122837
H24   H     H_    0.105289 0.299184 0.360908 0.182711
H25   H     H_    0.202031 0.149327 0.364742 0.165946
H26   H     H_    0.407958 0.128263 0.290117 0.169618
H27   H     H_    0.525444 0.257361 0.219887 0.139160
C63   C     C_R   0.656008 0.626393 0.749461 0.188202
C64   C     C_R   0.622594 0.716171 0.757951 -0.117279
C65   C     C_R   0.710793 0.784247 0.740533 -0.164822
C66   C     C_R   0.831980 0.763670 0.711309 -0.082275
C67   C     C_R   0.865311 0.674679 0.700892 -0.108006
C68   C     C_R   0.778611 0.606454 0.722564 -0.161044
H28   H     H_    0.530445 0.733076 0.783572 0.160500
H29   H     H_    0.685266 0.852630 0.751586 0.164438
H30   H     H_    0.900348 0.816393 0.697795 0.184441
H31   H     H_    0.959595 0.658381 0.679630 0.173769
H32   H     H_    0.808077 0.538228 0.722017 0.147191
C69   C     C_R   0.624351 0.641998 0.240001 0.210498
C70   C     C_R   0.572170 0.724814 0.259665 -0.037816
C71   C     C_R   0.649708 0.797114 0.279647 -0.147228
C72   C     C_R   0.779712 0.789378 0.273341 -0.076005
C73   C     C_R   0.832118 0.708970 0.247232 -0.016909
C74   C     C_R   0.755064 0.634847 0.232718 -0.066665
H33   H     H_    0.471699 0.733287 0.259626 0.144495
H34   H     H_    0.608326 0.859274 0.298577 0.145788
H35   H     H_    0.839867 0.845708 0.287453 0.136525
H36   H     H_    0.932462 0.703496 0.239694 0.138986
H37   H     H_    0.796895 0.573037 0.211639 0.112958
C75   C     C_R   0.366612 0.362081 0.763789 0.165701
C76   C     C_R   0.236483 0.351937 0.755199 0.059739
C77   C     C_R   0.182023 0.266409 0.754509 -0.072706
C78   C     C_R   0.256230 0.190706 0.765905 -0.145960
C79   C     C_R   0.385523 0.200210 0.776270 -0.098730
C80   C     C_R   0.440470 0.285372 0.773845 -0.138536
H38   H     H_    0.176934 0.410052 0.753821 0.130749
H39   H     H_    0.081907 0.258494 0.748083 0.160607
H40   H     H_    0.213579 0.124792 0.767119 0.164018
H41   H     H_    0.443072 0.141669 0.786267 0.209500
H42   H     H_    0.539409 0.292188 0.787418 0.171504
F3    F     F_    0.564132 0.655881 0.056724 -0.685688
F4    F     F_    0.312018 0.406794 0.941856 -0.692376
F5    F     F_    0.035985 0.757900 0.503323 -0.679484
F6    F     F_    0.833672 0.278855 0.479023 -0.720906
F7    F     F_    0.861401 0.640481 0.423755 -0.676134
F8    F     F_    0.135240 0.364757 0.577107 -0.691619
F9    F     F_    0.378712 0.031207 0.607957 -0.680195
F10   F     F_    0.336584 0.958792 0.415066 -0.684006

loop_
_geom_bond_atom_site_label_1
_geom_bond_atom_site_label_2
_ccdc_geom_bond_type
C14   H12   S    
C64   H28   S    
C57   C58   A    
C27   C29   A    
C47   C48   A    
C39   H7    S    
C59   C60   A    
C1    C11   S    
C71   H34   S    
C2    C12   S    
C77   C78   A    
C7    F9    S    
C61   C62   A    
C39   C41   A    
C20   C30   A    
C73   H36   S    
C6    C35   S    
C3    C43   A    
C46   H13   S    
O4    Zn1   S    
O6    Zn2   S    
C35   C37   A    
C55   H21   S    
C1    O1    A    
C54   C55   A    
C45   C50   A    
C33   C35   A    
C2    O2    A    
C25   C69   S    
C65   C66   A    
C62   H27   S    
C5    C36   S    
C42   F2    S    
C22   C63   S    
C67   C68   A    
C15   C17   A    
C26   C75   S    
C34   F6    S    
C76   H38   S    
O1    Zn1   S    
C72   C73   A    
C79   H41   S    
C7    C17   A    
C66   C67   A    
C31   C33   A    
C49   H16   S    
C61   H26   S    
C24   O8    A    
C23   O5    A    
C52   H18   S    
C24   O6    A    
C31   H3    S    
C60   H25   S    
C32   H4    S    
C3    C24   S    
C25   N1    A    
C63   C64   A    
C65   H29   S    
C54   H20   S    
O5    Zn1   S    
C48   C49   A    
C28   F4    S    
C53   C54   A    
C4    C6    A    
C80   H42   S    
C70   H33   S    
C4    C23   S    
C55   C56   A    
C4    C44   A    
C40   H8    S    
C8    C18   A    
C32   C34   A    
C67   H31   S    
C49   C50   A    
C21   N1    A    
C29   C30   S    
C37   H5    S    
C52   C53   A    
C13   C15   A    
C47   H14   S    
O7    Zn2   S    
C60   C61   A    
C16   C51   S    
C17   C18   S    
C8    F10   S    
C66   H30   S    
C27   F3    S    
C26   N2    A    
C10   C12   A    
C68   H32   S    
C8    C10   A    
C5    C44   A    
C12   C14   A    
C51   C52   A    
C6    C43   A    
C9    C11   A    
C14   C16   A    
C43   F7    S    
C9    H9    S    
C53   H19   S    
N1    Zn2   S    
C76   C77   A    
C19   C29   A    
C56   H22   S    
C41   F1    S    
C78   C79   A    
C7    C9    A    
C31   C41   A    
C19   C21   A    
C59   H24   S    
C16   C18   A    
C20   C22   A    
C46   C47   A    
C3    C5    A    
C1    O3    A    
C50   H17   S    
C22   N2    A    
C73   C74   A    
C19   H1    S    
C38   H6    S    
C25   C27   A    
C15   C45   S    
C64   C65   A    
C26   C28   A    
C48   H15   S    
C58   H23   S    
C23   O7    A    
C28   C30   A    
C79   C80   A    
C45   C46   A    
C37   C39   A    
C71   C72   A    
C36   C38   A    
C38   C40   A    
C11   C13   A    
O3    Zn2   S    
C69   C70   A    
C63   C68   A    
C21   C57   S    
C75   C80   A    
C33   F5    S    
C75   C76   A    
C40   C42   A    
C74   H37   S    
C70   C71   A    
O8    Zn1   S    
C34   C36   A    
C72   H35   S    
C58   C59   A    
C10   H10   S    
C78   H40   S    
C2    O4    A    
N2    Zn1   S    
O2    Zn2   S    
C44   F8    S    
C69   C74   A    
C32   C42   A    
C77   H39   S    
C57   C62   A    
C20   H2    S    
C51   C56   A    
C13   H11   S    
