data_mof_unit_57656.cif
_audit_creation_date              2012-12-11T16:27:29-0500
_audit_creation_method            fapswitch 2.2
_symmetry_space_group_name_H-M    P1
_symmetry_Int_Tables_number       1
_space_group_crystal_system       monoclinic
_cell_length_a                    21.7296
_cell_length_b                    6.944833
_cell_length_c                    14.481815
_cell_angle_alpha                 90.0
_cell_angle_beta                  103.22517
_cell_angle_gamma                 90.0
_cell_volume                      2127.46731097

loop_
_atom_site_label
_atom_site_type_symbol
_atom_type_description
_atom_site_fract_x
_atom_site_fract_y
_atom_site_fract_z
_atom_type_partial_charge
O1    O     O_R   0.835850 0.638310 0.002120 -0.522770
O2    O     O_R   0.164150 0.361690 0.997880 -0.522770
O3    O     O_R   0.664150 0.138310 0.997880 -0.522770
O4    O     O_R   0.335850 0.861690 0.002120 -0.522770
O5    O     O_R   0.717530 0.306070 0.861970 -0.531916
O6    O     O_R   0.282470 0.693930 0.138030 -0.531916
O7    O     O_R   0.782470 0.806070 0.138030 -0.531917
O8    O     O_R   0.217530 0.193930 0.861970 -0.531916
C1    C     C_R   0.703769 0.478279 0.824664 0.860439
C2    C     C_R   0.296231 0.521720 0.175336 0.860439
C3    C     C_R   0.796231 0.978279 0.175336 0.860439
C4    C     C_R   0.203769 0.021720 0.824664 0.860439
O9    O     O_R   0.838690 0.308440 0.993250 -0.543556
O10   O     O_R   0.161310 0.691560 0.006750 -0.543555
O11   O     O_R   0.661310 0.808440 0.006750 -0.543555
O12   O     O_R   0.338690 0.191560 0.993250 -0.543556
O13   O     O_R   0.786170 0.140510 0.130090 -0.529706
O14   O     O_R   0.213830 0.859490 0.869910 -0.529706
O15   O     O_R   0.713830 0.640510 0.869910 -0.529706
O16   O     O_R   0.286170 0.359490 0.130090 -0.529706
C5    C     C_R   0.864502 0.476811 0.992971 0.680444
C6    C     C_R   0.135497 0.523188 0.007029 0.680444
C7    C     C_R   0.635497 0.976812 0.007029 0.680443
C8    C     C_R   0.364502 0.023188 0.992971 0.680444
O17   O     O_3   0.732630 0.472520 0.044740 -0.368218
O18   O     O_3   0.267370 0.527480 0.955260 -0.368218
O19   O     O_3   0.767370 0.972520 0.955260 -0.368217
O20   O     O_3   0.232630 0.027480 0.044740 -0.368217
V1    V     V_3+5 0.753220 0.196740 0.991700 1.600612
V2    V     V_3+5 0.246780 0.803260 0.008300 1.600612
V3    V     V_3+5 0.746780 0.696740 0.008300 1.600612
V4    V     V_3+5 0.253220 0.303260 0.991700 1.600612
C9    C     C_R   0.543095 0.980316 0.830096 -0.163988
C10   C     C_R   0.456905 0.019683 0.169904 -0.163988
C11   C     C_R   0.956905 0.480317 0.169904 -0.163988
C12   C     C_R   0.043095 0.519683 0.830096 -0.163988
C13   C     C_R   0.501470 0.005956 0.742432 0.374782
C14   C     C_R   0.498530 0.994044 0.257568 0.374782
C15   C     C_R   0.998530 0.505957 0.257568 0.374782
C16   C     C_R   0.001469 0.494043 0.742432 0.374782
C17   C     C_R   0.437891 0.045386 0.738145 0.424437
C18   C     C_R   0.562109 0.954614 0.261855 0.424437
C19   C     C_R   0.062109 0.545387 0.261855 0.424437
C20   C     C_R   0.937890 0.454613 0.738145 0.424437
C21   C     C_R   0.415542 0.050217 0.821619 -0.212672
C22   C     C_R   0.584458 0.949782 0.178380 -0.212672
C23   C     C_R   0.084458 0.550218 0.178380 -0.212671
C24   C     C_R   0.915542 0.449782 0.821620 -0.212671
C25   C     C_R   0.456632 0.019437 0.911159 -0.011163
C26   C     C_R   0.543368 0.980563 0.088841 -0.011163
C27   C     C_R   0.043368 0.519437 0.088841 -0.011163
C28   C     C_R   0.956632 0.480563 0.911159 -0.011163
C29   C     C_R   0.522340 0.994010 0.915547 0.035992
C30   C     C_R   0.477660 0.005989 0.084452 0.035991
C31   C     C_R   0.977660 0.494011 0.084452 0.035991
C32   C     C_R   0.022340 0.505989 0.915547 0.035991
C33   C     C_R   0.433796 0.017804 0.995738 -0.070358
C34   C     C_R   0.566204 0.982196 0.004261 -0.070358
C35   C     C_R   0.066204 0.517804 0.004261 -0.070358
C36   C     C_R   0.933796 0.482196 0.995738 -0.070358
H1    H     H_    0.592219 0.954192 0.830234 0.165546
H2    H     H_    0.407780 0.045808 0.169766 0.165546
H3    H     H_    0.907780 0.454193 0.169766 0.165546
H4    H     H_    0.092219 0.545807 0.830234 0.165546
H5    H     H_    0.366260 0.083442 0.816272 0.174105
H6    H     H_    0.633740 0.916557 0.183728 0.174105
H7    H     H_    0.133740 0.583443 0.183728 0.174105
H8    H     H_    0.866259 0.416557 0.816272 0.174105
C37   C     C_R   0.173606 0.004770 0.722667 -0.254119
C38   C     C_R   0.826394 0.995229 0.277333 -0.254119
C39   C     C_R   0.326394 0.504771 0.277333 -0.254119
C40   C     C_R   0.673606 0.495229 0.722667 -0.254119
C41   C     C_R   0.185076 0.964098 0.561689 0.493106
C42   C     C_R   0.814923 0.035902 0.438311 0.493106
C43   C     C_R   0.314924 0.464097 0.438311 0.493106
C44   C     C_R   0.685076 0.535902 0.561689 0.493106
C45   C     C_R   0.209843 0.947041 0.659181 0.298753
C46   C     C_R   0.790157 0.052959 0.340819 0.298753
C47   C     C_R   0.290157 0.447040 0.340819 0.298753
C48   C     C_R   0.709843 0.552960 0.659181 0.298753
C49   C     C_R   0.107379 0.020902 0.690466 0.309579
C50   C     C_R   0.892621 0.979097 0.309534 0.309579
C51   C     C_R   0.392621 0.520903 0.309534 0.309579
C52   C     C_R   0.607379 0.479097 0.690466 0.309579
C53   C     C_R   0.078798 0.002401 0.591002 0.016013
C54   C     C_R   0.921202 0.997598 0.408998 0.016013
C55   C     C_R   0.421202 0.502402 0.408998 0.016013
C56   C     C_R   0.578798 0.497598 0.591002 0.016013
C57   C     C_R   0.120224 0.003950 0.527848 -0.071422
C58   C     C_R   0.879776 0.996050 0.472152 -0.071422
C59   C     C_R   0.379776 0.503950 0.472152 -0.071421
C60   C     C_R   0.620224 0.496050 0.527847 -0.071421
C61   C     C_R   0.011910 0.988156 0.550155 0.165522
C62   C     C_R   0.988090 0.011844 0.449845 0.165522
C63   C     C_R   0.488090 0.488156 0.449845 0.165523
C64   C     C_R   0.511910 0.511844 0.550155 0.165523
C65   C     C_R   0.031715 0.060679 0.395560 -0.049412
C66   C     C_R   0.968285 0.939321 0.604440 -0.049412
C67   C     C_R   0.468285 0.560678 0.604440 -0.049412
C68   C     C_R   0.531715 0.439322 0.395560 -0.049412
C69   C     C_R   0.096122 0.045555 0.432076 0.027629
C70   C     C_R   0.903878 0.954445 0.567924 0.027629
C71   C     C_R   0.403877 0.545554 0.567924 0.027629
C72   C     C_R   0.596122 0.454446 0.432076 0.027629
H9    H     H_    0.127057 0.071235 0.384479 0.217792
H10   H     H_    0.872943 0.928765 0.615521 0.217792
H11   H     H_    0.372943 0.571233 0.615521 0.217791
H12   H     H_    0.627057 0.428766 0.384479 0.217791
H13   H     H_    0.017628 0.116615 0.324872 0.180617
H14   H     H_    0.982372 0.883385 0.675128 0.180617
H15   H     H_    0.482372 0.616613 0.675128 0.180616
H16   H     H_    0.517628 0.383386 0.324872 0.180616
Cl1   Cl    Cl    0.613824 0.906928 0.371679 -0.477136
Cl2   Cl    Cl    0.386176 0.093072 0.628321 -0.477136
Cl3   Cl    Cl    0.886175 0.406927 0.628321 -0.477136
Cl4   Cl    Cl    0.113825 0.593073 0.371679 -0.477136
Cl5   Cl    Cl    0.531630 0.002136 0.639294 -0.538425
Cl6   Cl    Cl    0.468370 0.997864 0.360706 -0.538425
Cl7   Cl    Cl    0.968370 0.502137 0.360706 -0.538425
Cl8   Cl    Cl    0.031630 0.497863 0.639294 -0.538425
Cl9   Cl    Cl    0.934720 0.924026 0.221621 -0.699560
Cl10  Cl    Cl    0.065280 0.075974 0.778379 -0.699560
Cl11  Cl    Cl    0.565280 0.424025 0.778379 -0.699560
Cl12  Cl    Cl    0.434719 0.575975 0.221621 -0.699560
Cl13  Cl    Cl    0.716611 0.166180 0.298309 -0.571820
Cl14  Cl    Cl    0.283389 0.833820 0.701691 -0.571820
Cl15  Cl    Cl    0.783389 0.666180 0.701691 -0.571820
Cl16  Cl    Cl    0.216611 0.333820 0.298309 -0.571820
Cl17  Cl    Cl    0.235224 0.923961 0.482869 -0.409126
Cl18  Cl    Cl    0.764776 0.076038 0.517131 -0.409126
Cl19  Cl    Cl    0.264776 0.423961 0.517131 -0.409126
Cl20  Cl    Cl    0.735224 0.576039 0.482869 -0.409126

loop_
_geom_bond_atom_site_label_1
_geom_bond_atom_site_label_2
_ccdc_geom_bond_type
O17   V3    S    
C7    C34   S    
C51   C55   A    
C47   Cl16  S    
C56   C64   A    
O1    C5    A    
C61   C62   A    
C66   H14   S    
C55   C59   A    
O19   V1    S    
O13   V1    S    
C37   C45   A    
O3    C7    A    
C63   C64   A    
C1    C40   S    
O1    V3    S    
C17   Cl2   S    
C4    C37   S    
O15   V3    S    
C39   C47   A    
C3    C38   S    
O4    V2    S    
C52   Cl11  S    
O18   V4    S    
C26   C30   A    
O9    V1    S    
C22   H6    S    
C11   C15   A    
O4    C8    A    
C25   C29   A    
C38   C46   A    
C64   C67   A    
C10   H2    S    
C25   C33   A    
O2    V4    S    
C18   C22   A    
O3    V1    S    
C58   C70   A    
C28   C36   A    
C53   C61   A    
C1    O15   A    
C68   C72   A    
C56   C60   A    
C20   Cl3   S    
C2    O16   A    
C8    C33   S    
C55   C63   A    
O2    C6    A    
O14   V2    S    
C21   C25   A    
C51   Cl12  S    
C54   C62   A    
C50   Cl9   S    
C39   C51   A    
C43   C59   A    
C2    C39   S    
O11   C7    A    
O12   C8    A    
C31   C36   A    
O17   V1    S    
O10   V2    S    
C23   H7    S    
C43   Cl19  S    
O5    V1    S    
C9    C29   A    
C41   Cl17  S    
C69   H9    S    
O7    V3    S    
O19   V3    S    
C26   C34   A    
C44   C48   A    
O20   V4    S    
C5    C36   S    
C67   C71   A    
C54   C58   A    
C6    C35   S    
C53   C57   A    
C63   C68   A    
C23   C27   A    
C62   C65   A    
C50   C54   A    
C11   C31   A    
O6    V2    S    
C9    C13   A    
O8    V4    S    
O7    C3    A    
O5    C1    A    
C12   C32   A    
C19   Cl4   S    
C65   H13   S    
C18   Cl1   S    
C12   C16   A    
O8    C4    A    
C67   H15   S    
O9    C5    A    
C24   H8    S    
O11   V3    S    
C40   C52   A    
C44   C60   A    
O18   V2    S    
C16   Cl8   S    
C16   C20   A    
C68   H16   S    
C42   Cl18  S    
C21   H5    S    
C27   C35   A    
C72   H12   S    
C71   H11   S    
O16   V4    S    
C3    O13   A    
C17   C21   A    
C57   C69   A    
C10   C14   A    
C52   C56   A    
C59   C71   A    
O6    C2    A    
C15   C19   A    
C29   C34   A    
C10   C30   A    
C48   Cl15  S    
O12   V4    S    
C22   C26   A    
C32   C35   A    
C49   Cl10  S    
C42   C58   A    
O20   V2    S    
C41   C57   A    
C40   C48   A    
C66   C70   A    
C44   Cl20  S    
O10   C6    A    
C19   C23   A    
C15   Cl7   S    
C70   H10   S    
C27   C31   A    
C13   C17   A    
C38   C50   A    
C65   C69   A    
C37   C49   A    
C60   C72   A    
C14   Cl6   S    
C14   C18   A    
C28   C32   A    
C24   C28   A    
C13   Cl5   S    
C9    H1    S    
C42   C46   A    
C4    O14   A    
C41   C45   A    
C11   H3    S    
C12   H4    S    
C46   Cl13  S    
C43   C47   A    
C61   C66   A    
C49   C53   A    
C45   Cl14  S    
C20   C24   A    
C30   C33   A    
