data_mof_unit_40218.cif
_audit_creation_date              2013-03-05T16:15:40-0500
_audit_creation_method            fapswitch 2.2
_symmetry_space_group_name_H-M    P1
_symmetry_Int_Tables_number       1
_space_group_crystal_system       triclinic
_cell_length_a                    24.92176
_cell_length_b                    28.789907
_cell_length_c                    8.529554
_cell_angle_alpha                 89.999778
_cell_angle_beta                  95.664736
_cell_angle_gamma                 90.211918
_cell_volume                      6089.98505567

loop_
_atom_site_label
_atom_site_type_symbol
_atom_site_description
_atom_site_fract_x
_atom_site_fract_y
_atom_site_fract_z
_atom_type_partial_charge
P1    P     P_3+3 0.888690 0.449140 0.046940 0.453784
P2    P     P_3+3 0.888690 0.550860 0.546940 0.515424
P3    P     P_3+3 0.388690 0.949140 0.046940 0.455334
P4    P     P_3+3 0.388690 0.050860 0.546940 0.514538
O1    O     O_2   0.893910 0.433590 0.874460 -0.390508
O2    O     O_2   0.893910 0.566410 0.374460 -0.348775
O3    O     O_2   0.393910 0.933590 0.874460 -0.389522
O4    O     O_2   0.393910 0.066410 0.374460 -0.352849
O5    O     O_3   0.938210 0.476710 0.126870 -0.421781
O6    O     O_3   0.938210 0.523290 0.626870 -0.371480
O7    O     O_3   0.438210 0.976710 0.126870 -0.420703
O8    O     O_3   0.438210 0.023290 0.626870 -0.369694
O9    O     O_3   0.981570 0.392580 0.636990 -0.394498
O10   O     O_3   0.981570 0.607420 0.136990 -0.395665
O11   O     O_3   0.481570 0.892580 0.636990 -0.394169
O12   O     O_3   0.481570 0.107420 0.136990 -0.398688
O13   O     O_2   0.891620 0.356096 0.728753 -0.368921
O14   O     O_2   0.894601 0.644428 0.242771 -0.350259
O15   O     O_2   0.391523 0.856033 0.727916 -0.369176
O16   O     O_2   0.399063 0.149784 0.244577 -0.358586
O17   O     O_3   0.837371 0.490932 0.022731 -0.565258
O18   O     O_3   0.829849 0.517080 0.534662 -0.586360
O19   O     O_3   0.337248 0.990812 0.022897 -0.565176
O20   O     O_3   0.329958 0.016917 0.534632 -0.585225
O21   O     O_3   0.962980 0.296139 0.653827 -0.513515
O22   O     O_3   0.955145 0.705670 0.133280 -0.561670
O23   O     O_3   0.463321 0.796167 0.654431 -0.512720
O24   O     O_3   0.466379 0.205646 0.125822 -0.556385
H1    H     H_    0.036998 0.326632 0.723597 0.132738
H2    H     H_    0.030965 0.681291 0.216835 0.160023
H3    H     H_    0.537409 0.826738 0.722739 0.131447
H4    H     H_    0.537117 0.172923 0.215793 0.143474
C1    C     C_3   0.047474 0.254599 0.678154 -0.438747
C2    C     C_3   0.032130 0.754623 0.165882 -0.378480
C3    C     C_3   0.547869 0.754706 0.677148 -0.434055
C4    C     C_3   0.553526 0.243355 0.162814 -0.428058
H5    H     H_    0.091714 0.260730 0.690451 0.170044
H6    H     H_    0.024226 0.763840 0.287719 0.212625
H7    H     H_    0.592087 0.760907 0.689124 0.170518
H8    H     H_    0.597177 0.235262 0.185133 0.189688
H9    H     H_    0.036092 0.241067 0.791737 0.230196
H10   H     H_    0.010229 0.779932 0.085147 0.245328
H11   H     H_    0.536653 0.741111 0.790779 0.229146
H12   H     H_    0.540500 0.258851 0.271328 0.225112
P5    P     P_3+3 0.111080 0.448680 0.642780 0.482533
P6    P     P_3+3 0.111080 0.551320 0.142780 0.478927
P7    P     P_3+3 0.611080 0.948680 0.642780 0.482662
P8    P     P_3+3 0.611080 0.051320 0.142780 0.476324
P9    P     P_3+3 0.068542 0.349755 0.086737 0.396586
P10   P     P_3+3 0.069203 0.649614 0.585742 0.453731
P11   P     P_3+3 0.568882 0.849949 0.086713 0.397781
P12   P     P_3+3 0.568667 0.150137 0.587042 0.447922
O25   O     O_2   0.105800 0.433150 0.815270 -0.333628
O26   O     O_2   0.105800 0.566850 0.315270 -0.339927
O27   O     O_2   0.605800 0.933150 0.815270 -0.331569
O28   O     O_2   0.605800 0.066850 0.315270 -0.341109
O29   O     O_3   0.018000 0.392500 0.052760 -0.408522
O30   O     O_3   0.018000 0.607500 0.552760 -0.339745
O31   O     O_3   0.518000 0.892500 0.052760 -0.408560
O32   O     O_3   0.518000 0.107500 0.552760 -0.343203
O33   O     O_2   0.107838 0.359224 0.962382 -0.385659
O34   O     O_2   0.111555 0.640027 0.469339 -0.356623
O35   O     O_2   0.608533 0.859669 0.963457 -0.382455
O36   O     O_2   0.613008 0.138204 0.479461 -0.356203
O37   O     O_3   0.167426 0.485368 0.664999 -0.554339
O38   O     O_3   0.169771 0.517863 0.156284 -0.576709
O39   O     O_3   0.667277 0.985551 0.665788 -0.554790
O40   O     O_3   0.669940 0.018082 0.155746 -0.576897
O41   O     O_3   0.041293 0.295695 0.025428 -0.582257
O42   O     O_3   0.042666 0.703316 0.522131 -0.570706
O43   O     O_3   0.542137 0.795825 0.024324 -0.582445
O44   O     O_3   0.544704 0.203656 0.511652 -0.581283
C5    C     C_3   0.000785 0.281545 0.119862 0.492998
C6    C     C_3   0.006025 0.719629 0.625327 0.484754
C7    C     C_3   0.502136 0.780966 0.119407 0.491343
C8    C     C_3   0.506635 0.222637 0.605329 0.469984
H13   H     H_    0.008462 0.294346 0.243168 0.037540
H14   H     H_    0.005995 0.699145 0.736039 0.050635
H15   H     H_    0.509940 0.793538 0.242942 0.036232
H16   H     H_    0.512392 0.210656 0.729961 0.046881
C9    C     C_3   0.000034 0.228260 0.124751 0.146158
C10   C     C_3   0.021409 0.769800 0.670722 0.175619
C11   C     C_3   0.502277 0.727663 0.122954 0.146911
C12   C     C_3   0.512858 0.275718 0.605267 0.154030
H17   H     H_    0.990842 0.215047 0.001886 0.078790
H18   H     H_    0.020565 0.791386 0.561572 0.067118
H19   H     H_    0.492498 0.714593 0.000307 0.084836
H20   H     H_    0.504114 0.288723 0.482459 0.084980
H21   H     H_    0.040831 0.215515 0.168283 0.071714
H22   H     H_    0.063797 0.770143 0.725180 0.077528
H23   H     H_    0.543412 0.715440 0.165797 0.065710
H24   H     H_    0.555356 0.284664 0.647261 0.065448
C13   C     C_3   0.160034 0.474339 0.218333 0.393252
C14   C     C_3   0.152944 0.529289 0.716419 0.417926
C15   C     C_3   0.660428 0.974589 0.218477 0.395666
C16   C     C_3   0.652303 0.029521 0.715697 0.418610
H25   H     H_    0.146814 0.478706 0.337753 0.070969
H26   H     H_    0.135269 0.526080 0.830034 0.062905
H27   H     H_    0.647244 0.979011 0.337944 0.070151
H28   H     H_    0.633915 0.026431 0.828227 0.063139
H29   H     H_    0.129372 0.455394 0.138756 0.113762
H30   H     H_    0.123498 0.546207 0.628214 0.119768
H31   H     H_    0.629805 0.955487 0.139246 0.113488
H32   H     H_    0.623263 0.046210 0.625861 0.123631
C17   C     C_3   0.212514 0.446544 0.233515 -0.472339
C18   C     C_3   0.203849 0.559330 0.741290 -0.500145
C19   C     C_3   0.712998 0.946933 0.233856 -0.473999
C20   C     C_3   0.702904 0.059878 0.742607 -0.490728
H33   H     H_    0.242875 0.464441 0.316985 0.208218
H34   H     H_    0.233804 0.542028 0.826948 0.205698
H35   H     H_    0.743474 0.965191 0.315965 0.208306
H36   H     H_    0.732075 0.043328 0.832353 0.203402
H37   H     H_    0.205018 0.411621 0.282075 0.186606
H38   H     H_    0.193977 0.593377 0.791138 0.171619
H39   H     H_    0.705726 0.912189 0.284162 0.186373
H40   H     H_    0.692192 0.094291 0.788201 0.173615
Ba1   Ba    Ba6+2 0.999910 0.466800 0.844920 1.539985
Ba2   Ba    Ba6+2 0.999910 0.533200 0.344920 1.560868
Ba3   Ba    Ba6+2 0.499910 0.966800 0.844920 1.540195
Ba4   Ba    Ba6+2 0.499910 0.033200 0.344920 1.558385
C21   C     C_3   0.790500 0.472429 0.938608 0.383779
C22   C     C_3   0.839599 0.473241 0.475233 0.481195
C23   C     C_3   0.290243 0.972007 0.940424 0.382070
C24   C     C_3   0.339971 0.973022 0.476034 0.481334
H41   H     H_    0.796548 0.439525 0.874825 0.080872
H42   H     H_    0.851035 0.476767 0.353485 0.141570
H43   H     H_    0.296361 0.939206 0.876130 0.081155
H44   H     H_    0.351131 0.976432 0.353965 0.140551
H45   H     H_    0.775612 0.498231 0.847925 0.099671
H46   H     H_    0.871062 0.455120 0.553689 0.149323
H47   H     H_    0.274702 0.997753 0.850346 0.099713
H48   H     H_    0.371725 0.955208 0.554354 0.150989
C25   C     C_3   0.746933 0.465028 0.048996 -1.046893
C26   C     C_3   0.787884 0.444854 0.470211 -1.135268
C27   C     C_3   0.247304 0.964180 0.052551 -1.043480
C28   C     C_3   0.288561 0.944264 0.472491 -1.131984
H49   H     H_    0.758891 0.436737 0.133171 0.264478
H50   H     H_    0.754034 0.464221 0.406339 0.289716
H51   H     H_    0.259877 0.935874 0.136034 0.263513
H52   H     H_    0.254381 0.963311 0.408996 0.289343
H53   H     H_    0.708528 0.455027 0.979915 0.231055
H54   H     H_    0.792877 0.411468 0.408980 0.220083
H55   H     H_    0.208728 0.953989 0.984764 0.232754
H56   H     H_    0.293756 0.910835 0.411666 0.219146
H57   H     H_    0.740564 0.497470 0.115027 0.276892
H58   H     H_    0.777762 0.437578 0.591537 0.251109
H59   H     H_    0.240954 0.996502 0.119248 0.276449
H60   H     H_    0.278813 0.937037 0.594189 0.251727
O45   O     O_3   0.061740 0.523180 0.062830 -0.448017
O46   O     O_3   0.061740 0.476820 0.562830 -0.438184
O47   O     O_3   0.561740 0.023180 0.062830 -0.445718
O48   O     O_3   0.561740 0.976820 0.562830 -0.438715
P13   P     P_3+3 0.929194 0.649497 0.103016 0.504881
P14   P     P_3+3 0.931657 0.349331 0.603261 0.520895
P15   P     P_3+3 0.432809 0.151944 0.101765 0.497870
P16   P     P_3+3 0.431824 0.849230 0.603150 0.521514
C29   C     C_3   0.018608 0.300551 0.638486 0.462080
C30   C     C_3   0.011177 0.705515 0.127673 0.409138
C31   C     C_3   0.518874 0.800623 0.637968 0.461515
C32   C     C_3   0.522163 0.198366 0.123884 0.434874
H61   H     H_    0.025871 0.311445 0.517221 -0.013326
H62   H     H_    0.021090 0.695367 0.008315 0.044699
H63   H     H_    0.525858 0.811508 0.516479 -0.013744
H64   H     H_    0.530899 0.185545 0.006508 0.039079
N1    N     N_R   0.235478 0.717860 0.186505 -0.035866
N2    N     N_R   0.267101 0.292296 0.556754 -0.071241
N3    N     N_R   0.731425 0.220311 0.192609 -0.037980
N4    N     N_R   0.766802 0.790448 0.542293 -0.077242
N5    N     N_R   0.766476 0.253430 0.243730 -0.036559
N6    N     N_R   0.803091 0.758008 0.590176 -0.097168
N7    N     N_R   0.269741 0.751430 0.238718 -0.033977
N8    N     N_R   0.303452 0.259991 0.605213 -0.083715
C33   C     C_2   0.899440 0.391246 0.309413 0.144633
C34   C     C_2   0.905528 0.614525 0.795892 0.150728
C35   C     C_2   0.399648 0.891203 0.309420 0.145246
C36   C     C_2   0.406810 0.115246 0.795351 0.153378
C37   C     C_3   0.897023 0.348199 0.393708 -0.009116
C38   C     C_3   0.882004 0.641629 0.913018 -0.010960
C39   C     C_3   0.397688 0.848019 0.393133 -0.010886
C40   C     C_3   0.385347 0.144385 0.911266 -0.008998
C41   C     C_2   0.845642 0.325046 0.365736 0.467117
C42   C     C_2   0.852203 0.681338 0.848129 0.454491
C43   C     C_2   0.346810 0.824190 0.363610 0.465844
C44   C     C_2   0.356064 0.183974 0.843365 0.439198
C45   C     C_2   0.818717 0.326524 0.209149 -0.130254
C46   C     C_2   0.827701 0.678685 0.689079 -0.139294
C47   C     C_2   0.320393 0.825463 0.206426 -0.132926
C48   C     C_2   0.328727 0.179361 0.688228 -0.129546
C49   C     C_2   0.834336 0.362597 0.107158 -0.447808
C50   C     C_2   0.840962 0.640641 0.593046 -0.401431
C51   C     C_2   0.335530 0.861970 0.105457 -0.446431
C52   C     C_2   0.339769 0.139798 0.595922 -0.397889
C53   C     C_1   0.872400 0.396375 0.160333 0.201003
C54   C     C_1   0.877559 0.606661 0.650340 0.239908
C55   C     C_1   0.372886 0.896163 0.159865 0.200621
C56   C     C_1   0.377532 0.106551 0.651828 0.226485
N9    N     N_R   0.751785 0.291285 0.002251 -0.095790
N10   N     N_R   0.733813 0.703885 0.605211 -0.073241
N11   N     N_R   0.255139 0.789272 0.997188 -0.094110
N12   N     N_R   0.235879 0.203372 0.585936 -0.077997
N13   N     N_R   0.221033 0.755401 0.944334 -0.096786
N14   N     N_R   0.199425 0.235709 0.538226 -0.087112
N15   N     N_R   0.716891 0.257863 0.950482 -0.096332
N16   N     N_R   0.697494 0.736297 0.557245 -0.088289
C57   C     C_R   0.210492 0.718626 0.037610 0.174782
C58   C     C_R   0.214038 0.281074 0.525633 0.154660
C59   C     C_R   0.705993 0.221304 0.044268 0.172537
C60   C     C_R   0.713103 0.780509 0.527218 0.154743
C61   C     C_R   0.777567 0.289923 0.150677 0.203317
C62   C     C_R   0.787380 0.714189 0.624924 0.243533
C63   C     C_R   0.280363 0.788200 0.146327 0.209987
C64   C     C_R   0.288577 0.214951 0.623363 0.245069
C65   C     C_R   0.163088 0.637794 0.078947 0.492389
C66   C     C_R   0.162949 0.359076 0.589272 0.479557
C67   C     C_R   0.660654 0.139349 0.082426 0.481335
C68   C     C_R   0.662576 0.858910 0.590124 0.478670
C69   C     C_R   0.120337 0.606399 0.033102 0.191128
C70   C     C_R   0.125942 0.394140 0.531061 0.203833
C71   C     C_R   0.619444 0.106744 0.033861 0.176252
C72   C     C_R   0.625953 0.894153 0.531192 0.203813
C73   C     C_R   0.102818 0.650517 0.788703 0.218745
C74   C     C_R   0.108247 0.350157 0.284142 0.273477
C75   C     C_R   0.600509 0.151799 0.791811 0.227177
C76   C     C_R   0.608361 0.850213 0.284341 0.273888
C77   C     C_R   0.142350 0.683775 0.837826 -0.353933
C78   C     C_R   0.143537 0.314597 0.339048 -0.345813
C79   C     C_R   0.638360 0.186142 0.843812 -0.350429
C80   C     C_R   0.643370 0.814497 0.339660 -0.344600
C81   C     C_R   0.171395 0.680525 0.980341 -0.124381
C82   C     C_R   0.172620 0.317727 0.482008 -0.120864
C83   C     C_R   0.667345 0.182942 0.986418 -0.126065
C84   C     C_R   0.672146 0.817462 0.483079 -0.122157
C85   C     C_R   0.089949 0.613138 0.896844 -0.560216
C86   C     C_R   0.104300 0.391272 0.382356 -0.645500
C87   C     C_R   0.589321 0.113131 0.896953 -0.563127
C88   C     C_R   0.604569 0.891393 0.382255 -0.645742
H65   H     H_    0.816657 0.363868 0.985860 0.201196
H66   H     H_    0.822065 0.637888 0.473163 0.214520
H67   H     H_    0.318144 0.863189 0.983860 0.202503
H68   H     H_    0.319079 0.135793 0.478564 0.209500
H69   H     H_    0.148995 0.712339 0.759386 0.173306
H70   H     H_    0.148819 0.285228 0.262675 0.165617
H71   H     H_    0.644070 0.215290 0.766895 0.173065
H72   H     H_    0.648567 0.785059 0.263503 0.164954
H73   H     H_    0.058607 0.588501 0.857629 0.220162
H74   H     H_    0.085617 0.421170 0.327651 0.123369
H75   H     H_    0.559103 0.087725 0.855746 0.221704
H76   H     H_    0.585980 0.921334 0.327470 0.123445
C89   C     C_3   0.235252 0.440782 0.074831 -0.746012
H77   H     H_    0.270510 0.417150 0.088135 0.224640
H78   H     H_    0.204247 0.425778 0.986941 0.296077
H79   H     H_    0.248534 0.474862 0.031155 0.250155
C90   C     C_3   0.229029 0.567622 0.587545 -0.730169
H80   H     H_    0.199923 0.585322 0.500939 0.304141
H81   H     H_    0.265284 0.590054 0.610493 0.225753
H82   H     H_    0.241343 0.534245 0.536788 0.249143
C91   C     C_3   0.735337 0.940586 0.074859 -0.745782
H83   H     H_    0.704254 0.924996 0.988510 0.296891
H84   H     H_    0.748153 0.974537 0.028970 0.251667
H85   H     H_    0.770828 0.917218 0.088617 0.222817
C92   C     C_3   0.729832 0.067048 0.591124 -0.736938
H86   H     H_    0.765391 0.090241 0.614951 0.225927
H87   H     H_    0.743586 0.033384 0.546009 0.248610
H88   H     H_    0.701297 0.083391 0.499662 0.304521
C93   C     C_3   0.034330 0.217977 0.551795 -0.785919
H89   H     H_    0.990160 0.211746 0.534040 0.306050
H90   H     H_    0.049523 0.229613 0.440520 0.246918
H91   H     H_    0.054623 0.184903 0.588478 0.234179
C94   C     C_3   0.092297 0.758959 0.151525 -0.950659
H92   H     H_    0.106612 0.793999 0.191129 0.264793
H93   H     H_    0.114920 0.732497 0.225998 0.284307
H94   H     H_    0.100081 0.754575 0.026629 0.267377
C95   C     C_3   0.534667 0.718115 0.550729 -0.795236
H95   H     H_    0.490478 0.712008 0.532706 0.305760
H96   H     H_    0.549978 0.729702 0.439567 0.248385
H97   H     H_    0.554820 0.684984 0.587465 0.234231
C96   C     C_3   0.545780 0.278871 0.030827 -0.847716
H98   H     H_    0.502497 0.287902 0.007452 0.294275
H99   H     H_    0.568816 0.310929 0.065769 0.242094
H100  H     H_    0.561206 0.264755 0.923153 0.251906
O49   O     O_3   0.962626 0.213082 0.228651 -0.601938
C97   C     C_3   0.937701 0.171066 0.173601 -0.187751
H101  H     H_    0.910916 0.177176 0.062659 0.139286
H102  H     H_    0.912023 0.158060 0.263429 0.164796
H103  H     H_    0.968236 0.143730 0.155672 0.121780
O50   O     O_3   0.988330 0.786294 0.784323 -0.626601
C98   C     C_3   0.961898 0.827512 0.732215 -0.276233
H104  H     H_    0.933948 0.821025 0.624310 0.153153
H105  H     H_    0.991469 0.855321 0.710650 0.149780
H106  H     H_    0.937473 0.839890 0.825725 0.162332
O51   O     O_3   0.464892 0.711597 0.225174 -0.598827
C99   C     C_3   0.452085 0.664483 0.192335 -0.198606
H107  H     H_    0.427374 0.661138 0.076406 0.138678
H108  H     H_    0.427498 0.651196 0.284323 0.166081
H109  H     H_    0.489044 0.642560 0.194943 0.121746
O52   O     O_3   0.477559 0.295707 0.705874 -0.623338
C100  C     C_3   0.476665 0.344461 0.685430 -0.243629
H110  H     H_    0.456314 0.353849 0.567018 0.147329
H111  H     H_    0.518093 0.359921 0.702365 0.134471
H112  H     H_    0.452880 0.359792 0.775708 0.163870
O53   O     O_3   0.829844 0.294466 0.478024 -0.572714
C101  C     C_3   0.785100 0.313507 0.544407 -0.141621
H113  H     H_    0.750204 0.319051 0.454698 0.105485
H114  H     H_    0.795713 0.346752 0.606100 0.141420
H115  H     H_    0.772108 0.288772 0.633070 0.170629
O54   O     O_3   0.833596 0.713221 0.951559 -0.595859
C102  C     C_3   0.862625 0.755280 0.945015 -0.127589
H116  H     H_    0.902917 0.751656 0.900256 0.164099
H117  H     H_    0.869396 0.769751 0.065914 0.171867
H118  H     H_    0.838369 0.780966 0.872335 0.114418
O55   O     O_3   0.331241 0.793224 0.475047 -0.572542
C103  C     C_3   0.285902 0.811535 0.540343 -0.138696
H119  H     H_    0.251177 0.816747 0.449777 0.105873
H120  H     H_    0.295752 0.844806 0.602779 0.140997
H121  H     H_    0.273040 0.786469 0.628172 0.171141
O56   O     O_3   0.341042 0.218670 0.942523 -0.606159
C104  C     C_3   0.376092 0.257176 0.936296 -0.095764
H122  H     H_    0.415105 0.249371 0.888338 0.155912
H123  H     H_    0.385700 0.270714 0.057631 0.168067
H124  H     H_    0.355438 0.285395 0.865924 0.130126
O57   O     O_3   0.197214 0.628500 0.212812 -0.584067
C105  C     C_3   0.245560 0.609741 0.166942 -0.212106
H125  H     H_    0.267938 0.635242 0.100124 0.126384
H126  H     H_    0.238138 0.577717 0.095423 0.143610
H127  H     H_    0.271919 0.600260 0.274482 0.166988
O58   O     O_3   0.194973 0.368495 0.728856 -0.614664
C106  C     C_3   0.202490 0.329268 0.828182 -0.093476
H128  H     H_    0.242595 0.313792 0.819428 0.132192
H129  H     H_    0.169947 0.302699 0.808574 0.111189
H130  H     H_    0.203732 0.340928 0.952268 0.170742
O59   O     O_3   0.694849 0.130488 0.216473 -0.580082
C107  C     C_3   0.743573 0.112471 0.170703 -0.210987
H131  H     H_    0.765212 0.138193 0.102632 0.123143
H132  H     H_    0.736824 0.080141 0.100419 0.144939
H133  H     H_    0.770310 0.103746 0.278294 0.165436
O60   O     O_3   0.694196 0.868312 0.730451 -0.614065
C108  C     C_3   0.703138 0.828758 0.827355 -0.097711
H134  H     H_    0.742887 0.813373 0.812338 0.125230
H135  H     H_    0.670339 0.802351 0.810374 0.116123
H136  H     H_    0.705899 0.839939 0.952228 0.169022
O61   O     O_3   0.933884 0.425727 0.369328 -0.642531
C109  C     C_3   0.986185 0.413829 0.337487 0.224497
H137  H     H_    0.002451 0.437779 0.255290 0.152035
H138  H     H_    0.993049 0.376379 0.313277 -0.030722
H139  H     H_    0.012977 0.422455 0.437509 0.149369
O62   O     O_3   0.949110 0.587282 0.840637 -0.651232
C110  C     C_3   0.931138 0.550908 0.932450 0.191778
H140  H     H_    0.906835 0.524989 0.862726 0.119958
H141  H     H_    0.905661 0.561164 0.026278 0.101566
H142  H     H_    0.967895 0.536019 0.990891 0.216281
O63   O     O_3   0.434119 0.925697 0.369202 -0.642439
C111  C     C_3   0.486431 0.913824 0.337320 0.225114
H143  H     H_    0.502691 0.937898 0.255421 0.152286
H144  H     H_    0.493258 0.876397 0.312602 -0.030770
H145  H     H_    0.513242 0.922238 0.437538 0.148530
O64   O     O_3   0.449648 0.087294 0.840715 -0.649463
C112  C     C_3   0.430613 0.051503 0.932847 0.192347
H146  H     H_    0.406055 0.025728 0.863038 0.118557
H147  H     H_    0.405176 0.062663 0.025896 0.099355
H148  H     H_    0.467028 0.036129 0.991783 0.217463
C113  C     C_3   0.945556 0.298445 0.047824 -0.776520
H149  H     H_    0.914019 0.287918 0.123724 0.214209
H150  H     H_    0.944786 0.336618 0.036432 0.256388
H151  H     H_    0.935282 0.283017 0.929573 0.267392
C114  C     C_3   0.949159 0.717423 0.540642 -0.833996
H152  H     H_    0.939375 0.681000 0.506593 0.274727
H153  H     H_    0.919312 0.729698 0.619275 0.208193
H154  H     H_    0.946016 0.739243 0.432852 0.244947
C115  C     C_3   0.446555 0.797489 0.049048 -0.768991
H155  H     H_    0.415398 0.786456 0.125489 0.215925
H156  H     H_    0.445344 0.835687 0.038773 0.253158
H157  H     H_    0.436159 0.782310 0.930490 0.267636
C116  C     C_3   0.449912 0.209462 0.535018 -0.772387
H158  H     H_    0.419527 0.223944 0.607633 0.203494
H159  H     H_    0.441954 0.223348 0.413676 0.265296
H160  H     H_    0.445517 0.171247 0.531202 0.257371

loop_
_geom_bond_atom_site_label_1
_geom_bond_atom_site_label_2
_geom_bond_distance
_ccdc_geom_bond_type
C105  H126  1.110342 S    
C25   H49   1.107811 S    
C112  H146  1.097489 S    
P5    C70   1.893339 S    
P9    C74   1.866917 S    
C5    C113  1.531924 S    
O51   C99   1.413968 S    
C2    H10   1.109853 S    
C28   H52   1.109951 S    
C49   H65   1.084446 S    
C108  H134  1.105558 S    
P8    Ba4   3.442846 S    
O27   Ba3   2.849088 S    
O53   C101  1.412012 S    
C27   H51   1.107778 S    
C97   H101  1.117213 S    
C15   H27   1.108581 S    
C105  H127  1.108955 S    
C37   C41   1.440235 A    
C73   C77   1.405168 A    
C95   H97   1.110254 S    
C87   H75   1.081374 S    
C35   O63   1.375281 S    
N16   C60   1.361278 A    
O42   C6    1.411039 S    
C98   H105  1.113680 S    
O58   C106  1.413665 S    
P4    O8    1.568130 S    
C8    C116  1.526629 S    
C115  H157  1.108222 S    
C16   C20   1.530219 S    
P6    C69   1.866219 S    
P9    O41   1.754723 S    
Ba3   O47   2.807116 S    
C18   C90   1.527045 S    
P11   O43   1.754372 S    
C68   O60   1.392526 S    
C76   C80   1.402337 A    
C5    C9    1.534752 S    
O18   C22   1.391210 S    
C50   C54   1.395102 A    
C26   H58   1.108862 S    
C113  H151  1.108307 S    
O40   C15   1.390418 S    
C89   H78   1.108521 S    
O3    Ba3   2.840592 S    
C9    O49   1.416188 S    
C116  H160  1.105387 S    
C13   H29   1.112054 S    
C11   O51   1.414012 S    
C109  H137  1.088727 S    
P3    C55   1.865362 S    
C42   O54   1.385576 S    
O56   C104  1.413079 S    
C46   C50   1.426888 A    
C104  H124  1.107863 S    
P1    C53   1.865715 S    
P12   O44   1.753622 S    
C33   O61   1.374978 S    
C80   H72   1.083715 S    
C111  H143  1.089200 S    
C92   H88   1.108447 S    
O54   C102  1.412154 S    
C38   C42   1.445703 A    
C60   C84   1.499191 S    
C12   O52   1.412177 S    
O52   C100  1.414411 S    
C47   C63   1.516580 S    
C34   C54   1.380726 A    
C112  H148  1.088628 S    
C94   H93   1.110975 S    
N10   N16   1.338114 A    
C36   O64   1.364501 S    
C45   C61   1.517200 S    
C4    H12   1.105218 S    
C25   H57   1.110628 S    
C32   H64   1.108874 S    
C108  H136  1.108239 S    
C65   C81   1.515310 S    
P15   C40   1.924932 S    
C92   H87   1.110584 S    
O23   P16   1.755670 S    
P4    C56   1.871045 S    
C74   C86   1.459345 S    
C65   C69   1.419732 A    
O21   P14   1.755838 S    
C12   H20   1.113758 S    
O60   C108  1.412488 S    
C109  H139  1.059093 S    
C11   H23   1.112228 S    
C99   H108  1.109314 S    
P10   O42   1.748958 S    
C114  H152  1.107925 S    
C48   C64   1.501830 S    
C85   H73   1.081397 S    
O22   C30   1.401989 S    
O9    P14   1.760214 S    
P3    O7    1.563507 S    
P7    O48   1.573282 S    
C14   H30   1.111489 S    
N12   N14   1.338284 A    
O57   C105  1.412209 S    
C3    C95   1.519264 S    
P8    O47   1.568594 S    
C5    H13   1.112809 S    
Ba1   O45   2.807116 S    
C102  H117  1.109320 S    
N1    C57   1.358360 A    
C40   C44   1.445616 A    
P8    C71   1.867726 S    
N1    N7    1.334328 A    
C30   H62   1.110426 S    
C79   C83   1.355313 D    
N2    N8    1.337474 A    
C88   H76   1.065930 S    
C57   C81   1.513089 S    
O63   C111  1.401329 S    
N3    N5    1.334546 A    
C21   H41   1.110558 S    
C89   H77   1.110227 S    
C17   H37   1.109604 S    
O12   Ba4   2.787008 S    
C90   H80   1.108355 S    
C75   C79   1.405217 A    
C78   H70   1.083674 S    
O23   C31   1.410677 S    
C111  H145  1.059199 S    
O24   C32   1.408418 S    
P9    O29   1.767592 S    
C103  H119  1.112294 S    
C24   H48   1.110942 S    
C104  H123  1.109379 S    
C91   H83   1.108517 S    
C22   C26   1.520572 S    
P12   O32   1.761364 S    
C3    H11   1.106068 S    
C27   H55   1.110315 S    
P5    O25   1.555510 D    
C96   H98   1.109301 S    
O5    Ba2   2.808109 S    
C100  H111  1.118950 S    
O7    Ba4   2.808109 S    
C15   H31   1.112056 S    
C101  H114  1.110655 S    
C71   C87   1.337545 D    
C107  H131  1.111400 S    
C66   C70   1.425720 A    
C114  H154  1.110053 S    
C106  H129  1.113332 S    
O19   C23   1.411690 S    
C78   C82   1.358454 D    
C23   C27   1.520164 S    
P2    O18   1.751084 S    
O8    Ba3   2.814684 S    
C23   H43   1.110559 S    
N6    C62   1.360862 A    
C6    C114  1.526933 S    
N4    C60   1.361108 A    
P1    Ba1   3.441373 S    
C93   H90   1.107441 S    
C28   H60   1.108698 S    
P3    Ba3   3.441373 S    
O38   C13   1.390035 S    
C27   H59   1.110620 S    
P5    O37   1.749276 S    
P14   C37   1.906849 S    
C13   H25   1.108356 S    
P5    Ba1   3.445948 S    
Ba3   O48   2.995928 S    
C17   H33   1.111600 S    
Ba4   O47   2.997031 S    
C73   C85   1.472273 S    
C19   H35   1.111618 S    
C8    H16   1.113507 S    
C90   H82   1.110588 S    
C45   C49   1.432021 A    
P7    C72   1.892519 S    
C97   H102  1.109873 S    
C103  H121  1.109249 S    
C19   C91   1.527196 S    
C91   H85   1.110229 S    
C96   H99   1.110206 S    
O6    Ba1   2.814684 S    
Ba1   Ba2   4.673615 S    
C110  H142  1.088166 S    
C7    H15   1.112711 S    
C102  H118  1.107226 S    
C16   H28   1.107117 S    
C95   H96   1.107410 S    
O11   Ba3   2.784425 S    
N10   C62   1.360590 A    
C51   C55   1.399680 A    
C49   C53   1.399836 A    
C36   C40   1.440536 A    
P6    O45   1.568594 S    
C97   H103  1.117711 S    
C96   H100  1.107832 S    
N13   C57   1.364587 A    
O22   P13   1.749173 S    
C12   H24   1.113300 S    
C9    H17   1.116868 S    
C115  H156  1.103491 S    
C11   H19   1.115512 S    
C34   O62   1.365630 S    
O16   P15   1.548182 D    
C50   H66   1.085516 S    
C107  H133  1.108960 S    
C8    C12   1.535478 S    
P2    Ba2   3.444401 S    
C113  H150  1.103366 S    
P1    O1    1.555612 D    
C52   C56   1.395471 A    
P6    O38   1.748620 S    
P3    O3    1.555612 D    
C116  H159  1.109238 S    
P4    O20   1.751409 S    
C109  H138  1.114791 S    
C14   H26   1.107091 S    
C77   H69   1.082692 S    
P6    Ba2   3.442846 S    
H2    C30   1.111959 S    
P5    O46   1.573282 S    
C42   C46   1.433621 A    
C35   C55   1.387507 A    
Ba2   O46   2.813692 S    
P13   C38   1.918998 S    
C89   H79   1.110401 S    
C111  H144  1.114846 S    
O24   P15   1.757533 S    
O41   C5    1.411163 S    
C34   C38   1.438641 A    
O44   C8    1.410908 S    
C24   H44   1.108168 S    
C9    H21   1.111071 S    
N4    N6    1.338021 A    
C105  H125  1.111113 S    
C112  H147  1.111680 S    
C94   H92   1.110218 S    
O15   P16   1.546645 D    
C65   O57   1.381528 S    
C6    C10   1.532914 S    
O13   P14   1.546450 D    
C67   O59   1.381253 S    
C108  H135  1.113159 S    
C1    C29   1.530086 S    
P9    O33   1.536721 D    
C24   C28   1.520684 S    
C102  H116  1.114179 S    
P10   O30   1.759339 S    
C68   C72   1.425282 A    
P1    O5    1.563507 S    
P12   O36   1.544089 D    
C110  H140  1.096771 S    
H1    C29   1.110250 S    
C10   H18   1.117869 S    
C77   C81   1.355418 D    
C20   H36   1.110963 S    
C1    C93   1.519317 S    
P2    C54   1.867419 S    
C3    H7    1.110424 S    
O59   C107  1.412170 S    
C43   C47   1.434646 A    
C26   H54   1.107178 S    
C98   H104  1.113404 S    
P11   C76   1.866042 S    
P6    O26   1.555795 D    
C98   H106  1.109571 S    
P11   O35   1.537242 D    
C20   C92   1.527279 S    
P8    O40   1.748737 S    
C15   C19   1.530163 S    
C18   H38   1.106572 S    
C46   C62   1.500998 S    
C33   C53   1.387237 A    
C69   C85   1.337634 D    
C66   C82   1.535572 S    
C29   H61   1.112439 S    
C80   C84   1.358089 D    
O29   Ba1   2.787656 S    
O31   Ba3   2.787658 S    
C23   H47   1.110455 S    
C44   O56   1.385116 S    
C21   H45   1.110460 S    
O9    Ba1   2.784425 S    
Ba3   Ba4   4.673615 S    
C7    C115  1.531640 S    
C25   H53   1.110321 S    
C10   H22   1.111238 S    
C48   C52   1.427608 A    
C1    H9    1.106475 S    
C20   H40   1.107489 S    
C76   C88   1.458918 S    
C17   C89   1.527327 S    
C106  H128  1.105027 S    
C28   H56   1.107412 S    
C86   H74   1.065593 S    
C7    C11   1.534885 S    
C92   H86   1.110213 S    
C103  H120  1.110789 S    
O32   Ba4   2.785109 S    
C10   O50   1.415843 S    
C1    H5    1.110617 S    
C52   H68   1.085751 S    
P12   C75   1.846266 S    
C6    H14   1.113400 S    
C94   H94   1.108791 S    
N11   N13   1.339713 A    
C43   O55   1.385294 S    
N2    C58   1.360588 A    
O55   C103  1.411879 S    
P10   C73   1.847421 S    
P1    O17   1.756496 S    
C58   C82   1.499874 S    
C100  H110  1.118155 S    
P3    O19   1.756260 S    
O30   Ba2   2.785109 S    
P4    O4    1.555331 D    
O61   C109  1.401132 S    
C101  H115  1.109273 S    
N12   C64   1.360837 A    
C66   O58   1.392410 S    
C67   C83   1.516215 S    
C99   H107  1.116086 S    
C107  H132  1.110381 S    
C67   C71   1.420014 A    
C114  H153  1.108375 S    
C79   H71   1.082793 S    
O50   C98   1.409827 S    
P16   C39   1.905996 S    
O25   Ba1   2.849088 S    
C74   C78   1.402252 A    
O20   C24   1.391433 S    
C13   C17   1.530359 S    
O10   Ba2   2.787008 S    
C2    C94   1.521119 S    
Ba1   O46   2.995928 S    
C93   H89   1.110175 S    
C47   C51   1.431748 A    
P7    Ba3   3.445948 S    
O28   Ba4   2.842441 S    
P2    O2    1.555331 D    
O12   P15   1.774695 S    
P7    O39   1.749729 S    
C39   C43   1.439545 A    
C51   H67   1.084476 S    
Ba4   O48   2.813692 S    
C4    H8    1.111289 S    
C70   C86   1.330853 D    
C90   H81   1.110209 S    
C41   C45   1.435006 A    
C35   C39   1.436813 A    
C100  H112  1.109584 S    
O49   C97   1.416472 S    
N15   C59   1.364645 A    
C44   C48   1.433234 A    
O1    Ba1   2.840592 S    
C91   H84   1.110386 S    
N3    C59   1.358415 A    
C22   H42   1.108214 S    
C110  H141  1.110193 S    
N7    C63   1.360454 A    
C33   C37   1.436851 A    
N5    C61   1.360623 A    
C95   H95   1.110174 S    
C41   O53   1.385388 S    
C36   C56   1.384208 A    
C19   H39   1.109756 S    
O11   P16   1.759491 S    
O14   P13   1.545156 D    
C75   C87   1.472539 S    
C2    C30   1.529295 S    
O37   C14   1.398615 S    
O26   Ba2   2.842441 S    
O10   P13   1.786681 S    
O21   C29   1.410558 S    
O39   C16   1.399216 S    
P10   O34   1.544354 D    
Ba2   O45   2.997031 S    
C31   H63   1.112433 S    
P11   O31   1.769631 S    
P2    O6    1.568130 S    
O4    Ba4   2.847160 S    
P7    O27   1.555510 D    
C115  H155  1.107730 S    
C18   H34   1.111013 S    
P8    O28   1.555795 D    
C101  H113  1.112177 S    
C14   C18   1.530118 S    
C2    H6    1.109048 S    
C72   C88   1.330485 D    
C99   H109  1.116894 S    
N8    C64   1.360377 A    
C26   H50   1.109986 S    
C106  H130  1.107837 S    
C113  H149  1.107858 S    
C16   H32   1.111251 S    
C116  H158  1.107178 S    
O43   C7    1.411020 S    
C59   C83   1.513048 S    
O62   C110  1.405819 S    
O64   C112  1.405119 S    
C68   C84   1.536109 S    
O2    Ba2   2.847160 S    
N9    N15   1.339812 A    
N11   C63   1.362573 A    
O17   C21   1.411765 S    
C104  H122  1.115021 S    
C93   H91   1.110270 S    
C3    C31   1.529949 S    
C4    C96   1.519448 S    
N9    C61   1.362631 A    
C4    C32   1.529723 S    
N14   C58   1.361677 A    
P4    Ba4   3.444401 S    
C21   C25   1.520179 S    
C22   H46   1.110974 S    
H3    C31   1.110394 S    
H4    C32   1.111017 S    
