data_mof_unit_25755.cif
_audit_creation_date              2012-12-11T15:22:40-0500
_audit_creation_method            fapswitch 2.2
_symmetry_space_group_name_H-M    P1
_symmetry_Int_Tables_number       1
_space_group_crystal_system       triclinic
_cell_length_a                    22.437686
_cell_length_b                    12.996017
_cell_length_c                    26.967741
_cell_angle_alpha                 89.921243
_cell_angle_beta                  90.471314
_cell_angle_gamma                 90.037088
_cell_volume                      7863.53299564

loop_
_atom_site_label
_atom_site_type_symbol
_atom_type_description
_atom_site_fract_x
_atom_site_fract_y
_atom_site_fract_z
_atom_type_partial_charge
C1    C     C_R   0.720826 0.345245 0.178325 0.546326
C2    C     C_R   0.480328 0.256273 0.897175 -0.134600
C3    C     C_R   0.009991 0.586537 0.555246 -0.117782
C4    C     C_R   0.503822 0.082808 0.394993 -0.124526
C5    C     C_R   0.499074 0.084102 0.606311 -0.123985
C6    C     C_R   0.002466 0.583443 0.394499 -0.123205
C7    C     C_R   0.997742 0.583504 0.605788 -0.123723
C8    C     C_R   0.720594 0.025318 0.381026 0.031522
C9    C     C_R   0.265741 0.981122 0.623998 0.042452
C10   C     C_R   0.234109 0.481073 0.376030 0.042681
C11   C     C_R   0.766678 0.484357 0.623210 0.041849
C12   C     C_R   0.701640 0.930055 0.399857 -0.115349
C13   C     C_R   0.022170 0.757958 0.102832 -0.133259
C14   C     C_R   0.279890 0.883807 0.605338 -0.133516
C15   C     C_R   0.220119 0.383653 0.394806 -0.133642
C16   C     C_R   0.781770 0.388293 0.603575 -0.132764
C17   C     C_R   0.702409 0.912475 0.450762 -0.127782
C18   C     C_R   0.281096 0.868903 0.554123 -0.119689
C19   C     C_R   0.218801 0.368796 0.446037 -0.119488
C20   C     C_R   0.783678 0.375740 0.552192 -0.120759
C21   C     C_R   0.721169 0.990322 0.483191 0.063775
C22   C     C_R   0.270199 0.952122 0.522104 0.063110
C23   C     C_R   0.229435 0.452159 0.477934 0.063017
C24   C     C_R   0.982109 0.755664 0.896875 -0.150281
C25   C     C_R   0.772553 0.460012 0.520819 0.061729
C26   C     C_R   0.736631 0.087355 0.464429 -0.062718
C27   C     C_R   0.260181 0.050435 0.541138 -0.073670
C28   C     C_R   0.239243 0.550551 0.458774 -0.073869
C29   C     C_R   0.761749 0.557223 0.540881 -0.073550
C30   C     C_R   0.737139 0.104121 0.413543 -0.133962
C31   C     C_R   0.256928 0.064475 0.591731 -0.110938
C32   C     C_R   0.242596 0.564562 0.408172 -0.110625
C33   C     C_R   0.757737 0.568917 0.591653 -0.111612
C34   C     C_R   0.790414 0.982593 0.555099 0.267963
C35   C     C_R   0.509042 0.258974 0.051980 0.013565
C36   C     C_R   0.206106 0.964249 0.447700 0.268342
C37   C     C_R   0.293629 0.464602 0.552230 0.268614
C38   C     C_R   0.708820 0.473643 0.445958 0.268198
C39   C     C_R   0.721072 0.347884 0.321709 0.535375
C40   C     C_R   0.279163 0.347189 0.678088 0.543704
C41   C     C_R   0.220820 0.847070 0.321932 0.543291
C42   C     C_R   0.779300 0.847223 0.677892 0.542591
C43   C     C_R   0.803449 0.946572 0.602798 -0.119211
C44   C     C_R   0.195703 0.940789 0.397957 -0.122382
C45   C     C_R   0.304137 0.441190 0.601991 -0.122587
C46   C     C_R   0.491364 0.257979 0.948427 0.014608
C47   C     C_R   0.697530 0.447136 0.396707 -0.118231
C48   C     C_R   0.702895 0.880851 0.611518 -0.160477
C49   C     C_R   0.294133 0.864734 0.391355 -0.160222
C50   C     C_R   0.205719 0.364892 0.608804 -0.160062
C51   C     C_R   0.796052 0.371864 0.389825 -0.162562
C52   C     C_R   0.689235 0.916331 0.563921 -0.179091
C53   C     C_R   0.305158 0.887980 0.440937 -0.183007
C54   C     C_R   0.194606 0.388031 0.559206 -0.183197
C55   C     C_R   0.807648 0.397007 0.439190 -0.182107
C56   C     C_R   0.732996 0.965463 0.535386 0.043330
C57   C     C_R   0.010057 0.759065 0.051788 0.013042
C58   C     C_R   0.260850 0.935110 0.469262 0.043411
C59   C     C_R   0.238857 0.435265 0.530777 0.043393
C60   C     C_R   0.763552 0.444627 0.467637 0.041468
C61   C     C_R   0.760391 0.894708 0.630947 -0.020126
C62   C     C_R   0.238772 0.889042 0.369987 -0.018258
C63   C     C_R   0.261128 0.389324 0.630062 -0.018238
C64   C     C_R   0.740023 0.393443 0.368933 -0.021191
C65   C     C_R   0.554511 0.158834 0.321721 0.534237
C66   C     C_R   0.445763 0.158998 0.678436 0.542289
C67   C     C_R   0.054384 0.658871 0.321651 0.542951
C68   C     C_R   0.992742 0.757553 0.948193 0.008719
C69   C     C_R   0.945700 0.658982 0.678393 0.542887
C70   C     C_R   0.719084 0.046788 0.327967 0.561790
C71   C     C_R   0.268847 0.004287 0.676380 0.537332
C72   C     C_R   0.231143 0.504160 0.323622 0.537068
C73   C     C_R   0.769106 0.505190 0.675998 0.537088
C74   C     C_R   0.511266 0.071434 0.103890 -0.130152
C75   C     C_R   0.479434 0.069190 0.898903 -0.134325
C76   C     C_R   0.010021 0.572035 0.104205 -0.132724
C77   C     C_R   0.977804 0.568795 0.899266 -0.129284
C78   C     C_R   0.501215 0.071062 0.053012 0.013371
C79   C     C_R   0.500910 0.164933 0.026713 0.063601
C80   C     C_R   0.487855 0.069718 0.949923 0.010071
C81   C     C_R   0.999726 0.571527 0.053347 0.012851
C82   C     C_R   0.986186 0.569578 0.950277 0.012030
C83   C     C_R   0.488331 0.976923 0.976410 -0.143525
C84   C     C_R   0.494443 0.977644 0.027756 -0.136997
C85   C     C_R   0.985286 0.477110 0.977019 -0.140982
C86   C     C_R   0.991553 0.478146 0.028350 -0.138204
C87   C     C_3   0.869483 0.096592 0.547610 -0.022563
C88   C     C_3   0.899556 0.161508 0.508048 -0.376649
C89   C     C_3   0.131208 0.086215 0.456147 -0.022807
C90   C     C_R   0.493496 0.164317 0.974987 0.064171
C91   C     C_3   0.103788 0.151077 0.496941 -0.377412
C92   C     C_3   0.368502 0.586740 0.543545 -0.022663
C93   C     C_3   0.395596 0.651952 0.502625 -0.377069
C94   C     C_3   0.640247 0.604531 0.455117 -0.022661
C95   C     C_3   0.609497 0.665175 0.495799 -0.377777
C96   C     C_R   0.000633 0.665096 0.026788 0.063130
C97   C     C_R   0.279273 0.344857 0.821798 0.544056
C98   C     C_R   0.993255 0.664187 0.975057 0.064059
C99   C     C_R   0.507578 0.351808 0.025313 -0.138015
C100  C     C_R   0.498205 0.351365 0.973942 -0.137941
C101  C     C_R   0.009955 0.851611 0.024860 -0.139835
C102  C     C_R   0.000827 0.850925 0.973461 -0.146130
C103  C     C_R   0.742171 0.951601 0.131687 0.023636
C104  C     C_R   0.260804 0.957266 0.870129 0.023760
C105  C     C_R   0.239502 0.456780 0.130065 0.023328
C106  C     C_R   0.761173 0.458157 0.870387 0.024532
C107  C     C_R   0.794159 0.975423 0.105606 -0.127526
C108  C     C_R   0.220771 0.845071 0.178262 0.543872
C109  C     C_R   0.205791 0.964664 0.894157 -0.130415
C110  C     C_R   0.294476 0.465079 0.106004 -0.130068
C111  C     C_R   0.706161 0.464916 0.894450 -0.123927
C112  C     C_R   0.799137 0.948899 0.056064 -0.119245
C113  C     C_R   0.202205 0.945848 0.944907 -0.119536
C114  C     C_R   0.298224 0.445724 0.055331 -0.119586
C115  C     C_R   0.702779 0.446791 0.945279 -0.116398
C116  C     C_R   0.752775 0.896040 0.031714 0.037595
C117  C     C_R   0.253748 0.920895 0.972361 0.036832
C118  C     C_R   0.246894 0.419193 0.027965 0.036432
C119  C     C_R   0.780268 0.842841 0.822511 0.538731
C120  C     C_R   0.754518 0.423200 0.972769 0.036847
C121  C     C_R   0.702292 0.866264 0.058547 -0.119232
C122  C     C_R   0.307944 0.907564 0.947691 -0.121471
C123  C     C_R   0.192803 0.404785 0.052708 -0.121456
C124  C     C_R   0.808774 0.410728 0.948104 -0.120060
C125  C     C_R   0.553515 0.157356 0.177654 0.550374
C126  C     C_R   0.445971 0.157072 0.822665 0.547633
C127  C     C_R   0.053526 0.657400 0.177651 0.548805
C128  C     C_R   0.946009 0.657016 0.822660 0.544189
C129  C     C_R   0.696963 0.894016 0.108264 -0.126240
C130  C     C_R   0.472593 0.161854 0.872548 -0.004214
C131  C     C_R   0.311305 0.924463 0.896964 -0.126107
C132  C     C_R   0.189272 0.422369 0.103370 -0.126160
C133  C     C_R   0.811942 0.426895 0.897315 -0.125177
C134  C     C_R   0.707268 0.888213 0.946239 -0.115237
C135  C     C_R   0.284486 0.833922 0.050895 -0.118856
C136  C     C_R   0.216727 0.331239 0.949591 -0.118605
C137  C     C_R   0.785668 0.336646 0.051305 -0.119249
C138  C     C_R   0.713814 0.878595 0.894863 -0.131051
C139  C     C_R   0.278784 0.819193 0.101652 -0.125535
C140  C     C_R   0.222209 0.316903 0.898796 -0.124645
C141  C     C_R   0.524677 0.163598 0.128678 -0.005629
C142  C     C_R   0.779681 0.321257 0.101996 -0.126305
C143  C     C_R   0.819434 0.847417 0.907102 -0.115948
C144  C     C_R   0.208610 0.960772 0.105362 -0.125353
C145  C     C_R   0.291253 0.460238 0.894728 -0.124348
C146  C     C_R   0.708716 0.461658 0.105685 -0.125151
C147  C     C_R   0.812714 0.853521 0.957873 -0.125393
C148  C     C_R   0.215069 0.976577 0.054623 -0.116145
C149  C     C_R   0.284992 0.475652 0.945507 -0.115547
C150  C     C_R   0.715413 0.478069 0.055014 -0.116310
C151  C     C_R   0.757037 0.876762 0.978041 0.030984
C152  C     C_R   0.972620 0.661389 0.872577 -0.005490
C153  C     C_R   0.251326 0.910742 0.026688 0.039037
C154  C     C_R   0.249362 0.408878 0.973633 0.038294
C155  C     C_R   0.752157 0.413034 0.027100 0.038306
C156  C     C_R   0.770417 0.860930 0.875178 0.035535
C157  C     C_R   0.238918 0.879730 0.128910 0.023920
C158  C     C_R   0.261343 0.378675 0.871308 0.024160
C159  C     C_R   0.739228 0.380750 0.129175 0.024272
C160  C     C_R   0.528413 0.168821 0.371231 0.022918
C161  C     C_R   0.472923 0.169407 0.629339 0.023150
C162  C     C_R   0.027820 0.669068 0.370982 0.023884
C163  C     C_R   0.024609 0.663949 0.128719 -0.004648
C164  C     C_R   0.972561 0.669276 0.629165 0.023154
C165  C     C_R   0.537909 0.259759 0.398328 -0.123601
C166  C     C_R   0.463251 0.259879 0.601835 -0.123291
C167  C     C_R   0.037453 0.759838 0.398181 -0.122333
C168  C     C_R   0.963370 0.760177 0.601880 -0.123974
C169  C     C_R   0.527061 0.262300 0.448995 -0.113739
C170  C     C_R   0.475155 0.262324 0.551337 -0.113999
C171  C     C_R   0.026208 0.762409 0.448782 -0.114079
C172  C     C_R   0.974784 0.762699 0.551292 -0.114183
C173  C     C_R   0.731512 0.001355 0.179603 0.553734
C174  C     C_R   0.521169 0.257767 0.103029 -0.134974
C175  C     C_R   0.268773 0.001917 0.820666 0.542951
C176  C     C_R   0.231263 0.501883 0.179367 0.543246
C177  C     C_R   0.768831 0.502066 0.820728 0.543546
C178  C     C_R   0.505593 0.174510 0.473355 0.034209
C179  C     C_R   0.497905 0.174940 0.527599 0.034187
C180  C     C_R   0.004121 0.674859 0.472960 0.033793
C181  C     C_R   0.996561 0.674935 0.527234 0.034797
C182  C     C_R   0.492171 0.085844 0.445633 -0.118107
C183  C     C_R   0.511836 0.087095 0.555852 -0.117754
C184  C     C_R   0.990338 0.586559 0.445066 -0.117637
Cr1   Cr    Cr6+3 0.756570 0.170940 0.251190 1.009397
Cr2   Cr    Cr6+3 0.374010 0.036240 0.749520 1.012395
Cr3   Cr    Cr6+3 0.125990 0.536240 0.250480 1.013628
Cr4   Cr    Cr6+3 0.874010 0.536240 0.749520 1.013333
Cr5   Cr    Cr6+3 0.243430 0.170940 0.748810 1.012367
Cr6   Cr    Cr6+3 0.256570 0.670940 0.251190 1.011691
Cr7   Cr    Cr6+3 0.743430 0.670940 0.748810 1.016352
Cr8   Cr    Cr6+3 0.623740 0.299110 0.249580 1.004469
Cr9   Cr    Cr6+3 0.376260 0.299110 0.750420 1.009976
Cr10  Cr    Cr6+3 0.123740 0.799110 0.249580 1.010556
Cr11  Cr    Cr6+3 0.876260 0.799110 0.750420 1.008332
Cr12  Cr    Cr6+3 0.625990 0.036240 0.250480 1.009414
H1    H     H_    0.473747 0.995773 0.880390 0.126350
H2    H     H_    0.348468 0.889071 0.967881 0.104962
H3    H     H_    0.139076 0.177582 0.523061 0.151458
H4    H     H_    0.081268 0.219280 0.480498 0.089318
H5    H     H_    0.070530 0.104969 0.517673 0.158724
H6    H     H_    0.405286 0.559156 0.568004 0.128460
H7    H     H_    0.337884 0.636599 0.565280 0.113018
H8    H     H_    0.360130 0.678219 0.476603 0.151649
H9    H     H_    0.418051 0.720294 0.518952 0.088957
H10   H     H_    0.428839 0.606174 0.481809 0.159576
H11   H     H_    0.606415 0.586077 0.426126 0.127382
H12   H     H_    0.675617 0.654408 0.438906 0.115460
H13   H     H_    0.152434 0.385015 0.032593 0.105449
H14   H     H_    0.642172 0.686193 0.525268 0.152164
H15   H     H_    0.589947 0.736731 0.480062 0.085659
H16   H     H_    0.573292 0.618313 0.512341 0.160905
H17   H     H_    0.849432 0.393285 0.968322 0.105632
H18   H     H_    0.656329 0.874654 0.127579 0.123281
H19   H     H_    0.354541 0.918954 0.879587 0.128692
H20   H     H_    0.146079 0.416070 0.120777 0.131100
H21   H     H_    0.855189 0.421966 0.879925 0.128957
H22   H     H_    0.557500 0.327031 0.381173 0.131430
H23   H     H_    0.442604 0.326634 0.618462 0.129234
H24   H     H_    0.057527 0.826862 0.381194 0.129567
H25   H     H_    0.513291 0.998490 0.123415 0.128919
H26   H     H_    0.943494 0.827329 0.618779 0.127290
H27   H     H_    0.531142 0.019744 0.538684 0.099221
H28   H     H_    0.473884 0.018059 0.463298 0.101321
H29   H     H_    0.028585 0.518839 0.537852 0.101281
H30   H     H_    0.971525 0.519020 0.462565 0.101199
H31   H     H_    0.507203 0.013647 0.626771 0.123859
H32   H     H_    0.496000 0.011876 0.374920 0.124823
H33   H     H_    0.005477 0.512676 0.626051 0.124852
H34   H     H_    0.994436 0.512715 0.374312 0.124807
H35   H     H_    0.538108 0.331520 0.469417 0.125960
H36   H     H_    0.970912 0.495396 0.881017 0.127537
H37   H     H_    0.463709 0.330924 0.530507 0.126214
H38   H     H_    0.037545 0.831362 0.469308 0.126465
H39   H     H_    0.963771 0.831775 0.530672 0.121632
H40   H     H_    0.687875 0.868496 0.375259 0.123715
H41   H     H_    0.288794 0.819947 0.630157 0.101876
H42   H     H_    0.211443 0.319688 0.370069 0.101706
H43   H     H_    0.790863 0.323486 0.627768 0.101897
H44   H     H_    0.848687 0.952915 0.616571 0.120411
H45   H     H_    0.152067 0.956003 0.382293 0.120521
H46   H     H_    0.347799 0.456498 0.617589 0.120284
H47   H     H_    0.011244 0.499280 0.123935 0.126983
H48   H     H_    0.653526 0.461395 0.381527 0.124394
H49   H     H_    0.483392 0.903888 0.957455 0.096709
H50   H     H_    0.494907 0.905096 0.047626 0.100526
H51   H     H_    0.979241 0.404090 0.958265 0.097809
H52   H     H_    0.991040 0.405830 0.048407 0.100160
H53   H     H_    0.691031 0.836946 0.464714 0.097226
H54   H     H_    0.288419 0.792569 0.539424 0.099162
H55   H     H_    0.211626 0.292403 0.460845 0.099118
H56   H     H_    0.791732 0.300225 0.536869 0.097730
H57   H     H_    0.645100 0.902783 0.548676 0.107926
H58   H     H_    0.863042 0.829078 0.892734 0.135105
H59   H     H_    0.347537 0.867107 0.457618 0.108126
H60   H     H_    0.152220 0.366953 0.542595 0.107915
H61   H     H_    0.850186 0.376594 0.455709 0.107805
H62   H     H_    0.669269 0.840137 0.632424 0.130503
H63   H     H_    0.327708 0.824077 0.370447 0.133134
H64   H     H_    0.172188 0.324138 0.629805 0.133232
H65   H     H_    0.829421 0.330548 0.368989 0.134002
H66   H     H_    0.750477 0.148662 0.489121 0.123375
H67   H     H_    0.252648 0.115482 0.516676 0.121054
H68   H     H_    0.246589 0.615677 0.483151 0.121013
H69   H     H_    0.177808 0.008713 0.125665 0.122639
H70   H     H_    0.754258 0.623274 0.517069 0.123153
H71   H     H_    0.750233 0.178492 0.399484 0.117361
H72   H     H_    0.248766 0.141236 0.605780 0.129422
H73   H     H_    0.250616 0.641380 0.394014 0.129430
H74   H     H_    0.748903 0.644892 0.606404 0.128065
H75   H     H_    0.475039 0.327990 0.877042 0.122283
H76   H     H_    0.531274 0.329223 0.122025 0.124924
H77   H     H_    0.978302 0.827286 0.876444 0.117628
H78   H     H_    0.033218 0.829248 0.121615 0.126142
H79   H     H_    0.496595 0.423938 0.954153 0.101329
H80   H     H_    0.321542 0.509039 0.874263 0.122818
H81   H     H_    0.513802 0.424654 0.044158 0.101068
H82   H     H_    0.000378 0.923283 0.953459 0.103181
H83   H     H_    0.017174 0.924403 0.043513 0.102628
H84   H     H_    0.829632 0.020147 0.122512 0.125384
H85   H     H_    0.166219 0.989526 0.874242 0.122505
H86   H     H_    0.333866 0.491125 0.125805 0.122575
H87   H     H_    0.666402 0.488631 0.874468 0.124502
H88   H     H_    0.663804 0.906717 0.960910 0.110968
H89   H     H_    0.312544 0.781692 0.030313 0.098698
H90   H     H_    0.189200 0.278232 0.970317 0.099485
H91   H     H_    0.677523 0.508919 0.125943 0.122751
H92   H     H_    0.814163 0.285104 0.030743 0.101655
H93   H     H_    0.675327 0.886428 0.870657 0.108506
H94   H     H_    0.302326 0.755404 0.118719 0.132683
H95   H     H_    0.199068 0.252588 0.881851 0.133605
H96   H     H_    0.803466 0.257706 0.119037 0.129591
H97   H     H_    0.838256 0.974471 0.036279 0.101780
H98   H     H_    0.159443 0.953446 0.962872 0.106388
H99   H     H_    0.340923 0.454203 0.037336 0.106449
H100  H     H_    0.659986 0.453711 0.963258 0.106280
H101  H     H_    0.851411 0.840575 0.981344 0.117757
H102  H     H_    0.666442 0.823853 0.040845 0.098475
H103  H     H_    0.190483 0.038542 0.037043 0.099926
H104  H     H_    0.309183 0.538192 0.962950 0.100527
H105  H     H_    0.690567 0.539743 0.037447 0.102971
H106  H     H_    0.905021 0.061083 0.570915 0.127418
H107  H     H_    0.841725 0.148489 0.570854 0.114489
H108  H     H_    0.865497 0.194878 0.482655 0.150683
H109  H     H_    0.925136 0.224963 0.525753 0.090092
H110  H     H_    0.930567 0.113190 0.486199 0.158780
H111  H     H_    0.094591 0.058607 0.431536 0.128424
H112  H     H_    0.161931 0.136337 0.434549 0.113309
O1    O     O_R   0.769900 0.064540 0.196060 -0.520465
O2    O     O_R   0.433710 0.069580 0.694600 -0.516092
O3    O     O_R   0.066290 0.569580 0.305400 -0.516381
O4    O     O_R   0.933710 0.569580 0.694600 -0.515669
O5    O     O_R   0.680760 0.993330 0.302620 -0.506132
O6    O     O_R   0.319240 0.993330 0.697380 -0.498252
O7    O     O_R   0.180760 0.493330 0.302620 -0.498485
O8    O     O_R   0.819240 0.493330 0.697380 -0.497998
O9    O     O_3   0.668770 0.168760 0.250420 -0.259936
O10   O     O_3   0.331230 0.168760 0.749580 -0.239892
O11   O     O_3   0.168770 0.668760 0.250420 -0.239955
O12   O     O_R   0.230100 0.064540 0.803940 -0.521464
O13   O     O_3   0.831230 0.668760 0.749580 -0.242430
O14   O     O_R   0.750800 0.274080 0.199250 -0.504694
O15   O     O_R   0.249200 0.274080 0.800750 -0.505135
O16   O     O_R   0.250800 0.774080 0.199250 -0.505172
O17   O     O_R   0.749200 0.774080 0.800750 -0.496593
O18   O     O_R   0.669990 0.371670 0.194150 -0.517795
O19   O     O_R   0.330010 0.371670 0.805850 -0.518760
O20   O     O_R   0.169990 0.871670 0.194150 -0.519567
O21   O     O_R   0.830010 0.871670 0.805850 -0.521223
O22   O     O_R   0.574600 0.238480 0.197800 -0.498275
O23   O     O_R   0.269900 0.564540 0.196060 -0.521701
O24   O     O_R   0.425400 0.238480 0.802200 -0.499187
O25   O     O_R   0.074600 0.738480 0.197800 -0.500016
O26   O     O_R   0.925400 0.738480 0.802200 -0.505645
O27   O     O_R   0.566130 0.068680 0.194240 -0.522449
O28   O     O_R   0.433870 0.068680 0.805760 -0.527241
O29   O     O_R   0.066130 0.568680 0.194240 -0.525488
O30   O     O_R   0.933870 0.568680 0.805760 -0.525416
O31   O     O_R   0.680610 0.992490 0.199570 -0.498721
O32   O     O_R   0.319390 0.992490 0.800430 -0.506534
O33   O     O_R   0.180610 0.492490 0.199570 -0.506003
O34   O     O_R   0.730100 0.564540 0.803940 -0.515253
O35   O     O_R   0.819390 0.492490 0.800430 -0.507352
O36   O     O_R   0.770060 0.065440 0.307230 -0.504828
O37   O     O_R   0.229940 0.065440 0.692770 -0.518037
O38   O     O_R   0.270060 0.565440 0.307230 -0.517959
O39   O     O_R   0.729940 0.565440 0.692770 -0.518177
O40   O     O_R   0.750960 0.274920 0.302300 -0.520130
O41   O     O_R   0.249040 0.274920 0.697700 -0.505031
O42   O     O_R   0.250960 0.774920 0.302300 -0.505288
O43   O     O_R   0.749040 0.774920 0.697700 -0.505198
O44   O     O_R   0.670160 0.372580 0.305320 -0.526516
O45   O     O_R   0.574760 0.239320 0.300850 -0.507999
O46   O     O_R   0.329840 0.372580 0.694680 -0.528188
O47   O     O_R   0.170160 0.872580 0.305320 -0.528175
O48   O     O_R   0.829840 0.872580 0.694680 -0.525888
O49   O     O_3   0.835056 0.019237 0.524181 -0.558386
O50   O     O_3   0.160953 0.001355 0.477943 -0.559230
O51   O     O_3   0.338702 0.501861 0.521876 -0.558813
O52   O     O_3   0.663875 0.512885 0.475637 -0.559344
O53   O     O_R   0.425240 0.239320 0.699150 -0.506825
O54   O     O_R   0.074760 0.739320 0.300850 -0.506397
O55   O     O_R   0.925240 0.739320 0.699150 -0.506023
O56   O     O_R   0.566290 0.069580 0.305400 -0.524832

loop_
_geom_bond_atom_site_label_1
_geom_bond_atom_site_label_2
_ccdc_geom_bond_type
C21   C26   A    
C34   C56   A    
C108  O16   A    
C72   O38   A    
C107  C112  A    
C144  H69   S    
Cr1   O36   S    
C184  H30   S    
C105  C110  A    
C97   O15   A    
C135  C139  A    
C2    H75   S    
C48   H62   S    
C101  C102  A    
C124  C133  A    
C95   H16   S    
C93   H10   S    
C66   O53   A    
C124  H17   S    
C29   C33   A    
Cr7   O39   S    
C129  H18   S    
C176  O33   A    
C79   C90   A    
Cr12  O56   S    
C146  C150  A    
C106  C133  A    
C16   H43   S    
C105  C176  S    
C127  C163  S    
C67   O54   A    
C135  H89   S    
C25   C60   S    
Cr6   O16   S    
C177  O35   A    
C106  C177  S    
C81   C86   A    
C136  C140  A    
C106  C111  A    
C114  H99   S    
C29   H70   S    
C82   C98   A    
C32   H73   S    
C80   C83   A    
C13   C163  A    
C25   C29   A    
C116  C121  A    
C100  H79   S    
C27   C31   A    
C28   C32   A    
C94   H12   S    
C121  C129  A    
C47   C64   A    
C167  C171  A    
C120  C155  S    
C17   C21   A    
C169  H35   S    
C66   C161  S    
C6    C184  A    
C5    C161  A    
C19   C23   A    
C52   H57   S    
C109  H85   S    
C16   C20   A    
Cr11  O55   S    
C121  H102  S    
C173  O1    A    
C178  C182  A    
C92   H7    S    
C164  C168  A    
Cr12  O5    S    
C22   C27   A    
C117  C153  S    
C36   C44   A    
C148  C153  A    
C112  H97   S    
C69   O4    A    
C37   C45   A    
C149  H104  S    
C43   C61   A    
C36   O50   S    
C175  O12   A    
C49   C62   A    
C92   O51   S    
C95   H14   S    
C54   H60   S    
C128  O30   A    
C51   C64   A    
C22   C58   S    
C14   H41   S    
C53   C58   A    
C41   O47   A    
C72   O7    A    
C82   C85   A    
Cr5   O15   S    
C28   H68   S    
C140  H95   S    
C67   C162  S    
C50   H64   S    
C77   C82   A    
C49   C53   A    
C134  C151  A    
Cr8   O45   S    
C51   C55   A    
C68   C98   A    
C48   C52   A    
C139  C157  A    
C37   O51   S    
Cr10  O25   S    
C103  C107  A    
C30   H71   S    
C70   O5    A    
Cr11  O13   S    
Cr12  O31   S    
C166  H23   S    
C127  O29   A    
C180  C184  A    
C137  C142  A    
Cr1   O9    S    
C123  C132  A    
Cr2   O6    S    
C87   H107  S    
C38   C60   A    
Cr3   O11   S    
C88   H108  S    
C178  C179  S    
C85   C86   A    
C23   C59   S    
C74   H25   S    
C128  O26   A    
Cr11  O48   S    
C138  H93   S    
Cr5   O10   S    
C20   H56   S    
C13   C57   A    
C39   O40   A    
C150  H105  S    
C137  C155  A    
C84   H50   S    
C146  H91   S    
C140  C158  A    
C172  C181  A    
C128  C152  S    
C125  C141  S    
C104  C131  A    
C96   C98   A    
C108  O20   A    
Cr1   O40   S    
C89   C91   S    
C110  C114  A    
Cr1   O14   S    
C50   C63   A    
C65   C160  S    
C107  H84   S    
C77   C152  A    
C54   C59   A    
C142  H96   S    
C170  H37   S    
Cr5   O41   S    
C52   C56   A    
Cr7   O43   S    
C11   C33   A    
C76   H47   S    
C89   H112  S    
C9    C14   A    
C174  H76   S    
C108  C157  S    
C143  H58   S    
C134  H88   S    
C5    H31   S    
C147  C151  A    
C117  C122  A    
C89   O50   S    
C83   C84   A    
C176  O23   A    
C8    C12   A    
C83   H49   S    
Cr12  O27   S    
Cr8   O9    S    
C127  O25   A    
C91   H5    S    
C23   C28   A    
C122  H2    S    
C37   C59   A    
C132  H20   S    
C91   H4    S    
Cr9   O53   S    
C74   C141  A    
C26   C30   A    
C150  C155  A    
C6    H34   S    
C141  C174  A    
C113  C117  A    
C122  C131  A    
C112  C116  A    
C92   H6    S    
Cr8   O44   S    
C38   O52   S    
C126  O24   A    
C18   C22   A    
C111  H87   S    
C34   C43   A    
Cr5   O12   S    
Cr3   O33   S    
C166  C170  A    
Cr6   O11   S    
C110  H86   S    
C57   C101  A    
C8    C70   S    
C76   C81   A    
C170  C179  A    
C95   H15   S    
C97   C158  S    
C94   O52   S    
C99   H81   S    
C19   H55   S    
Cr12  O9    S    
C17   H53   S    
C118  C154  S    
Cr6   O42   S    
Cr7   O34   S    
C42   O43   A    
C73   O39   A    
C183  H27   S    
C85   H51   S    
C76   C163  A    
C144  C157  A    
C177  O34   A    
C116  C151  S    
C10   C72   S    
C87   C88   S    
C119  C156  S    
C33   H74   S    
C167  H24   S    
C71   O37   A    
C69   C164  S    
C142  C159  A    
C66   O2    A    
C88   H110  S    
C39   C64   S    
C51   H65   S    
C50   C54   A    
C40   C63   S    
C68   C102  A    
C3    C7    A    
C20   C25   A    
C126  C130  S    
C46   C100  A    
C24   C152  A    
C147  H101  S    
C57   C96   A    
C12   C17   A    
Cr2   O10   S    
Cr3   O7    S    
C1    O18   A    
C75   C130  A    
C31   H72   S    
C65   O45   A    
Cr9   O19   S    
C55   C60   A    
C165  C169  A    
Cr9   O24   S    
C41   C62   S    
Cr9   O46   S    
C1    O14   A    
C105  C132  A    
C75   H1    S    
C39   O44   A    
C73   O8    A    
Cr9   O10   S    
C136  H90   S    
C11   C73   S    
C81   C96   A    
C137  H92   S    
Cr4   O30   S    
C55   H61   S    
Cr4   O4    S    
C149  C154  A    
C131  H19   S    
Cr11  O21   S    
C136  C154  A    
C11   C16   A    
C1    C159  S    
C40   O41   A    
C27   H67   S    
C145  H80   S    
Cr1   O1    S    
C69   O55   A    
C160  C165  A    
Cr3   O3    S    
C103  C129  A    
C13   H78   S    
Cr4   O35   S    
Cr5   O37   S    
C40   O46   A    
C125  O22   A    
C180  C181  S    
C7    H33   S    
C172  H39   S    
C86   H52   S    
C182  H28   S    
C101  H83   S    
C94   H11   S    
C9    C71   S    
C168  H26   S    
C119  O21   A    
C21   C56   S    
C46   C90   A    
C7    C164  A    
C65   O56   A    
C8    C30   A    
Cr4   O8    S    
C175  O32   A    
C145  C158  A    
C47   H48   S    
C92   C93   S    
C2    C130  A    
C118  C123  A    
C4    H32   S    
C94   C95   S    
Cr10  O20   S    
C43   H44   S    
C24   C68   A    
C71   O6    A    
Cr7   O17   S    
C168  C172  A    
C148  H103  S    
C74   C78   A    
C126  O28   A    
C53   H59   S    
C4    C182  A    
C5    C183  A    
C139  H94   S    
C145  C149  A    
Cr3   O29   S    
C42   O48   A    
C49   H63   S    
C14   C18   A    
C41   O42   A    
C144  C148  A    
C93   H9    S    
Cr10  O11   S    
C48   C61   A    
C2    C46   A    
C143  C147  A    
C15   H42   S    
C10   C32   A    
Cr6   O38   S    
C36   C58   A    
C10   C15   A    
C89   H111  S    
C104  C109  A    
C123  H13   S    
C103  C173  S    
C35   C79   A    
C93   H8    S    
Cr8   O22   S    
C15   C19   A    
C6    C162  A    
Cr7   O13   S    
Cr2   O28   S    
C75   C80   A    
C3    H29   S    
C161  C166  A    
C109  C113  A    
C91   H3    S    
C70   O36   A    
C88   H109  S    
C102  H82   S    
C35   C99   A    
C44   H45   S    
C104  C175  S    
C179  C183  A    
C24   H77   S    
C78   C79   A    
C146  C159  A    
C44   C62   A    
C119  O17   A    
C45   C63   A    
C133  H21   S    
Cr8   O18   S    
C3    C181  A    
C99   C100  A    
C173  O31   A    
C42   C61   S    
C38   C47   A    
C114  C118  A    
Cr11  O26   S    
C165  H22   S    
Cr10  O54   S    
C171  C180  A    
C169  C178  A    
C138  C156  A    
C113  H98   S    
C12   H40   S    
C97   O19   A    
C77   H36   S    
C115  H100  S    
C87   O49   S    
C35   C174  A    
C125  O27   A    
Cr10  O47   S    
C134  C138  A    
C26   H66   S    
Cr2   O32   S    
C135  C153  A    
Cr2   O2    S    
C143  C156  A    
C4    C160  A    
C67   O3    A    
C18   H54   S    
C45   H46   S    
Cr4   O13   S    
C80   C90   A    
Cr6   O23   S    
C34   O49   S    
C9    C31   A    
C162  C167  A    
C78   C84   A    
C115  C120  A    
C87   H106  S    
C111  C115  A    
C120  C124  A    
C171  H38   S    
