data_mof_unit_37327.cif
_audit_creation_date              2012-12-10T19:00:01-0500
_audit_creation_method            fapswitch 2.2
_symmetry_space_group_name_H-M    P1
_symmetry_Int_Tables_number       1
_space_group_crystal_system       triclinic
_cell_length_a                    10.905871
_cell_length_b                    10.597507
_cell_length_c                    10.081389
_cell_angle_alpha                 91.055714
_cell_angle_beta                  89.899625
_cell_angle_gamma                 92.289351
_cell_volume                      1164.02876726

loop_
_atom_site_label
_atom_site_type_symbol
_atom_type_description
_atom_site_fract_x
_atom_site_fract_y
_atom_site_fract_z
_atom_type_partial_charge
C1    C     C_R   0.498816 0.260828 0.499047 0.842356
C2    C     C_R   0.429402 0.063275 0.594038 -0.175544
C3    C     C_R   0.502189 0.871998 0.502174 0.003595
C4    C     C_R   0.497812 0.128002 0.497827 0.003586
C5    C     C_R   0.534922 0.606023 0.074927 0.507590
C6    C     C_R   0.465084 0.393975 0.925074 0.507624
C7    C     C_R   0.538909 0.605189 0.931642 0.047867
C8    C     C_R   0.461092 0.394811 0.068359 0.047896
C9    C     C_R   0.260599 0.502158 0.499276 0.850743
C10   C     C_R   0.739401 0.497842 0.500724 0.850741
C11   C     C_R   0.209545 0.673763 0.088840 0.108045
C12   C     C_R   0.501184 0.739172 0.500953 0.842358
C13   C     C_R   0.790430 0.326251 0.911151 0.108133
C14   C     C_R   0.164995 0.646782 0.215377 -0.224586
C15   C     C_R   0.834992 0.353225 0.784619 -0.224574
C16   C     C_R   0.116440 0.526757 0.245595 0.049467
C17   C     C_R   0.883557 0.473247 0.754406 0.049453
C18   C     C_R   0.113786 0.428611 0.148885 0.154991
C19   C     C_R   0.886210 0.571394 0.851117 0.154985
C20   C     C_R   0.161439 0.453499 0.020894 0.150729
C21   C     C_R   0.838562 0.546502 0.979109 0.150726
C22   C     C_R   0.208668 0.576331 0.990258 0.399766
C23   C     C_R   0.872245 0.495594 0.503222 -0.099912
C24   C     C_R   0.791334 0.423670 0.009742 0.399767
C25   C     C_R   0.934382 0.503848 0.383221 -0.262834
C26   C     C_R   0.065618 0.496158 0.616784 -0.262821
C27   C     C_3   0.592622 0.718882 0.862365 -0.819784
C28   C     C_3   0.407371 0.281121 0.137633 -0.819781
C29   C     C_3   0.252900 0.807701 0.060835 -0.945448
C30   C     C_3   0.747049 0.192320 0.939149 -0.945783
C31   C     C_3   0.062145 0.297457 0.181043 -0.894966
C32   C     C_3   0.937847 0.702549 0.818958 -0.894949
C33   C     C_3   0.157010 0.349706 0.915503 -0.825075
C34   C     C_R   0.127755 0.504409 0.496780 -0.099911
C35   C     C_3   0.842987 0.650294 0.084501 -0.825062
C36   C     C_R   0.939309 0.490128 0.622177 0.048014
C37   C     C_R   0.060691 0.509876 0.377826 0.048012
C38   C     C_R   0.568210 0.065879 0.403581 -0.224888
C39   C     C_R   0.431792 0.934121 0.596419 -0.224885
C40   C     C_R   0.570600 0.936725 0.405963 -0.175540
H1    H     H_    0.164146 0.720946 0.290925 0.161306
H2    H     H_    0.725199 0.312821 0.149422 0.342776
H3    H     H_    0.652536 0.688592 0.780042 0.281517
H4    H     H_    0.517629 0.778311 0.829287 0.239953
H5    H     H_    0.652967 0.779962 0.925897 0.201624
H6    H     H_    0.347452 0.311413 0.219952 0.281506
H7    H     H_    0.347031 0.220041 0.074092 0.201641
H8    H     H_    0.482358 0.221688 0.170721 0.239962
H9    H     H_    0.348282 0.809907 0.023099 0.233836
H10   H     H_    0.192515 0.848588 0.985713 0.232631
H11   H     H_    0.251227 0.869285 0.151157 0.254781
H12   H     H_    0.835836 0.279059 0.709072 0.161310
H13   H     H_    0.651747 0.190130 0.977051 0.233840
H14   H     H_    0.748546 0.130811 0.848803 0.254875
H15   H     H_    0.807510 0.151358 0.014122 0.232713
H16   H     H_    0.025859 0.289043 0.283190 0.248999
H17   H     H_    0.986242 0.270479 0.112009 0.253887
H18   H     H_    0.134701 0.227597 0.171301 0.230584
H19   H     H_    0.974124 0.710965 0.716808 0.248994
H20   H     H_    0.865289 0.772407 0.828711 0.230588
H21   H     H_    0.013755 0.729524 0.887986 0.253885
H22   H     H_    0.218262 0.370746 0.830770 0.302867
H23   H     H_    0.885209 0.505141 0.291966 0.236798
H24   H     H_    0.186182 0.258981 0.954206 0.236300
H25   H     H_    0.062085 0.334366 0.879347 0.224338
H26   H     H_    0.781742 0.629245 0.169238 0.302870
H27   H     H_    0.937913 0.665647 0.120650 0.224344
H28   H     H_    0.813799 0.741014 0.045800 0.236306
H29   H     H_    0.542499 0.787998 0.100987 0.314713
H30   H     H_    0.457547 0.212002 0.899019 0.314736
H31   H     H_    0.114792 0.494864 0.708040 0.236806
H32   H     H_    0.622730 0.117155 0.330754 0.142408
H33   H     H_    0.377271 0.882845 0.669246 0.142399
H34   H     H_    0.626556 0.887639 0.334429 0.181727
H35   H     H_    0.373445 0.112361 0.665572 0.181732
H36   H     H_    0.274855 0.687196 0.850584 0.342667
N1    N     N_R   0.499970 0.499970 0.857200 -0.092005
N2    N     N_R   0.500030 0.500030 0.142800 -0.092006
O1    O     O_R   0.499990 0.316750 0.614620 -0.548404
O2    O     O_3   0.747766 0.402840 0.136519 -0.784544
O3    O     O_3   0.568206 0.712597 0.148228 -0.765736
O4    O     O_3   0.431815 0.287395 0.851777 -0.765723
O5    O     O_R   0.500010 0.683250 0.385380 -0.548402
O6    O     O_R   0.499990 0.316780 0.385290 -0.634613
O7    O     O_R   0.500010 0.683220 0.614710 -0.634621
O8    O     O_R   0.316760 0.500000 0.614660 -0.565271
O9    O     O_R   0.683240 0.500000 0.385340 -0.565273
O10   O     O_R   0.316760 0.500020 0.385330 -0.623890
O11   O     O_R   0.683240 0.499980 0.614670 -0.623887
O12   O     O_3   0.252241 0.597142 0.863477 -0.784417
Zn1   Zn    Zn3+2 0.500000 0.499980 0.653120 1.003236
Zn2   Zn    Zn3+2 0.500000 0.500020 0.346880 1.003238

loop_
_geom_bond_atom_site_label_1
_geom_bond_atom_site_label_2
_ccdc_geom_bond_type
C28   H7    S    
H2    O2    S    
C6    O4    S    
C34   C37   A    
O7    Zn1   S    
C33   H25   S    
C29   H9    S    
C1    O6    A    
O5    Zn2   S    
C30   H14   S    
C28   H6    S    
C12   O7    A    
C31   H18   S    
C19   C21   A    
C32   H21   S    
O8    Zn1   S    
C9    O10   A    
C11   C14   A    
C7    C27   S    
C25   H23   S    
C3    C12   S    
C25   C37   A    
C27   H4    S    
C26   C34   A    
N1    Zn1   S    
O10   Zn2   S    
C10   O11   A    
C33   H22   S    
C17   C36   S    
C31   H16   S    
O11   Zn1   S    
O1    Zn1   S    
C16   C37   S    
C7    N1    A    
C27   H5    S    
C23   C25   A    
C3    C39   A    
O9    Zn2   S    
C8    N2    A    
C26   H31   S    
C19   C32   S    
C2    C39   A    
C24   O2    S    
C29   H10   S    
C30   H13   S    
C38   H32   S    
C10   O9    A    
C13   C30   S    
C5    C7    A    
C6    N1    A    
C6    C8    A    
C35   H26   S    
N2    Zn2   S    
C12   O5    A    
C2    C4    A    
C9    O8    A    
C5    O3    S    
C35   H27   S    
C22   O12   S    
C15   H12   S    
C11   C29   S    
C14   H1    S    
C20   C33   S    
C26   C36   A    
C4    C38   A    
C3    C40   A    
C13   C15   A    
C9    C34   S    
C1    O1    A    
C14   C16   A    
C32   H20   S    
C29   H11   S    
C15   C17   A    
C28   H8    S    
C20   C22   A    
C21   C35   S    
C10   C23   S    
C30   H15   S    
C11   C22   A    
C1    C4    S    
C31   H17   S    
C38   C40   A    
C35   H28   S    
C33   H24   S    
C8    C28   S    
C17   C19   A    
C40   H34   S    
C18   C20   A    
C39   H33   S    
H30   O4    S    
H29   O3    S    
C27   H3    S    
C13   C24   A    
C16   C18   A    
C23   C36   A    
C21   C24   A    
C18   C31   S    
O6    Zn2   S    
C32   H19   S    
C5    N2    A    
C2    H35   S    
H36   O12   S    
