data_mof_unit_43637.cif
_audit_creation_date              2012-12-10T19:48:37-0500
_audit_creation_method            fapswitch 2.2
_symmetry_space_group_name_H-M    P1
_symmetry_Int_Tables_number       1
_space_group_crystal_system       triclinic
_cell_length_a                    13.089492
_cell_length_b                    14.224979
_cell_length_c                    14.853095
_cell_angle_alpha                 89.082756
_cell_angle_beta                  89.504456
_cell_angle_gamma                 69.477254
_cell_volume                      2589.74242718

loop_
_atom_site_label
_atom_site_type_symbol
_atom_type_description
_atom_site_fract_x
_atom_site_fract_y
_atom_site_fract_z
_atom_type_partial_charge
C1    C     C_R   0.490229 0.502703 0.672374 0.892522
C2    C     C_R   0.985365 0.454040 0.492607 -0.038130
C3    C     C_R   0.880882 0.466767 0.460423 0.001329
C4    C     C_R   0.029575 0.529532 0.473629 0.073888
C5    C     C_R   0.977122 0.609131 0.412038 0.056074
C6    C     C_R   0.881564 0.610762 0.367864 0.098448
C7    C     C_R   0.835862 0.537255 0.389933 0.191966
C8    C     C_R   0.125267 0.527761 0.515296 -0.224830
C9    C     C_R   0.126440 0.672074 0.428746 -0.202378
C10   C     C_R   0.824631 0.407496 0.499006 -0.131855
C11   C     C_R   0.420811 0.446504 0.908358 -0.307453
C12   C     C_R   0.705034 0.444030 0.498572 0.950165
C13   C     C_R   0.433319 0.438729 0.815398 0.480639
C14   C     C_R   0.458595 0.513802 0.767109 -0.158197
C15   C     C_R   0.443150 0.605784 0.808614 -0.299626
C16   C     C_R   0.418438 0.617247 0.899249 -0.098664
C17   C     C_R   0.418447 0.534333 0.951052 0.052017
C18   C     C_R   0.504010 0.575686 0.086933 0.490950
C19   C     C_R   0.520263 0.568820 0.179084 -0.298911
C20   C     C_R   0.475503 0.511263 0.232041 -0.100721
C21   C     C_R   0.404495 0.468735 0.194688 -0.196510
C22   C     C_R   0.379873 0.482565 0.103806 -0.242714
C23   C     C_R   0.495978 0.502075 0.327510 0.906733
C24   C     C_R   0.430848 0.534287 0.048750 0.024932
C25   C     C_R   0.583351 0.871353 0.526064 -0.376908
C26   C     C_R   0.584666 0.772133 0.533026 0.336423
C27   C     C_R   0.412887 0.820499 0.461571 -0.179590
C28   C     C_R   0.405398 0.922547 0.458466 0.386235
C29   C     C_R   0.492259 0.949191 0.491676 0.048732
C30   C     C_R   0.456889 0.123044 0.421977 -0.280705
C31   C     C_R   0.460784 0.220631 0.425988 -0.082802
C32   C     C_R   0.533607 0.189045 0.573158 0.289863
C33   C     C_R   0.522157 0.092948 0.574919 0.074768
C34   C     C_R   0.295430 0.556074 0.499757 0.842997
C35   C     C_R   0.488345 0.056923 0.496345 0.106848
C36   C     C_R   0.024562 0.682662 0.393654 -0.191413
C37   C     C_R   0.178450 0.591386 0.486476 -0.056993
C38   C     C_R   0.880744 0.323361 0.552284 -0.373780
C39   C     C_R   0.992259 0.299137 0.571607 0.540134
C40   C     C_R   0.042790 0.365140 0.541508 -0.236620
H1    H     H_    0.167150 0.722830 0.406469 0.146869
H2    H     H_    0.450832 0.669091 0.771600 0.174856
H3    H     H_    0.407576 0.688682 0.929899 0.182135
H4    H     H_    0.571376 0.605503 0.208090 0.168591
H5    H     H_    0.366063 0.427158 0.236192 0.152743
H6    H     H_    0.322771 0.451061 0.076291 0.149883
H7    H     H_    0.653363 0.887641 0.549660 0.180629
H8    H     H_    0.348340 0.799599 0.432898 0.155673
H9    H     H_    0.430702 0.099202 0.360218 0.200132
H10   H     H_    0.433633 0.270543 0.368519 0.157038
H11   H     H_    0.986754 0.745666 0.348763 0.146530
H12   H     H_    0.164672 0.473154 0.566903 0.134438
H13   H     H_    0.836016 0.279674 0.580194 0.141070
H14   H     H_    0.128681 0.343363 0.555602 0.155736
H15   H     H_    0.415713 0.382763 0.946450 0.154504
N1    N     N_R   0.500000 0.747530 0.500020 -0.120821
N2    N     N_R   0.499940 0.252470 0.500020 -0.107957
O1    O     O_R   0.499990 0.420530 0.630930 -0.540587
O2    O     O_R   0.499990 0.579480 0.630940 -0.619639
O3    O     O_R   0.653620 0.381060 0.499970 -0.606630
O4    O     O_R   0.653620 0.540010 0.499980 -0.577577
O5    O     O_R   0.500010 0.420520 0.369060 -0.627583
O6    O     O_R   0.500010 0.579470 0.369070 -0.613099
O7    O     O_R   0.346380 0.459990 0.500020 -0.612871
O8    O     O_R   0.346380 0.618940 0.500030 -0.628014
Zn1   Zn    Zn3+2 0.500000 0.393860 0.499990 0.966404
Zn2   Zn    Zn3+2 0.500000 0.606140 0.500010 0.947613
O9    O     O_3   0.420463 0.358165 0.772724 -0.615937
C41   C     C_3   0.307486 0.379342 0.760737 0.091196
H16   H     H_    0.270450 0.448903 0.719225 0.127398
H17   H     H_    0.264489 0.388271 0.826878 0.135440
C42   C     C_3   0.289727 0.292993 0.712491 -0.815068
H18   H     H_    0.330631 0.221755 0.749845 0.257697
H19   H     H_    0.201116 0.306046 0.709244 0.226060
H20   H     H_    0.322804 0.287221 0.642965 0.256662
O10   O     O_3   0.559984 0.623229 0.034927 -0.627362
C43   C     C_3   0.663251 0.552700 0.012793 0.099240
H21   H     H_    0.656080 0.484170 0.982203 0.141102
H22   H     H_    0.715600 0.530819 0.073792 0.144657
C44   C     C_3   0.718503 0.599878 0.944332 -0.820431
H23   H     H_    0.728717 0.667687 0.972943 0.259046
H24   H     H_    0.800032 0.545246 0.926515 0.200576
H25   H     H_    0.668321 0.621553 0.882320 0.258225
N3    N     N_2   0.676002 0.697480 0.572871 -0.254116
H26   H     H_    0.749168 0.696335 0.545560 0.211827
C45   C     C_3   0.677201 0.699426 0.670112 -0.774484
H27   H     H_    0.689308 0.768682 0.693315 0.224467
H28   H     H_    0.745082 0.633092 0.695886 0.234293
H29   H     H_    0.599557 0.696675 0.698172 0.250559
N4    N     N_2   0.834420 0.681160 0.297080 -0.312650
H30   H     H_    0.889296 0.693275 0.252332 0.227450
C46   C     C_3   0.749810 0.772308 0.325782 -0.814003
H31   H     H_    0.783344 0.813923 0.372944 0.236558
H32   H     H_    0.715625 0.821003 0.266227 0.248559
H33   H     H_    0.682625 0.754518 0.359382 0.250707
O11   O     O_3   0.317529 0.994251 0.417078 -0.624825
C47   C     C_3   0.224564 0.014955 0.472743 0.098499
H34   H     H_    0.238080 0.045577 0.538337 0.170053
H35   H     H_    0.203167 0.946648 0.485024 0.121088
C48   C     C_3   0.128303 0.093146 0.426033 -0.751518
H36   H     H_    0.115932 0.066291 0.358606 0.241439
H37   H     H_    0.053009 0.106441 0.466493 0.213812
H38   H     H_    0.143646 0.164852 0.418029 0.256307
N5    N     N_2   0.582276 0.219370 0.646740 -0.228648
H39   H     H_    0.554973 0.205192 0.708915 0.265605
C49   C     C_3   0.699862 0.185012 0.641975 -0.833335
H40   H     H_    0.735879 0.104889 0.662799 0.207240
H41   H     H_    0.729930 0.230118 0.688073 0.236578
H42   H     H_    0.727038 0.192539 0.572098 0.250114
N6    N     N_2   0.545599 0.032172 0.654986 -0.318634
H43   H     H_    0.604647 0.037387 0.697834 0.223212
C50   C     C_3   0.454805 0.014124 0.699026 -0.788211
H44   H     H_    0.473407 0.931996 0.705832 0.249615
H45   H     H_    0.377615 0.047546 0.660608 0.245232
H46   H     H_    0.442585 0.046748 0.767401 0.230062
O12   O     O_3   0.057439 0.214136 0.619319 -0.632674
C51   C     C_3   0.998391 0.164024 0.668088 0.076593
H47   H     H_    0.958411 0.127357 0.621318 0.144880
H48   H     H_    0.936986 0.216722 0.713177 0.144477
C52   C     C_3   0.077227 0.082342 0.726607 -0.839588
H49   H     H_    0.119756 0.115966 0.773789 0.258733
H50   H     H_    0.031791 0.042764 0.766107 0.209570
H51   H     H_    0.138740 0.027117 0.683792 0.241713
N7    N     N_2   0.753246 0.525777 0.334050 -0.287028
H52   H     H_    0.702469 0.591170 0.304743 0.256484
C53   C     C_3   0.792965 0.444226 0.271023 -0.838683
H53   H     H_    0.723442 0.434861 0.235009 0.230452
H54   H     H_    0.837123 0.372423 0.306827 0.254018
H55   H     H_    0.848352 0.460484 0.220940 0.242769

loop_
_geom_bond_atom_site_label_1
_geom_bond_atom_site_label_2
_ccdc_geom_bond_type
C27   H8    S    
C44   H25   S    
C53   H53   S    
C34   C37   S    
C19   C20   A    
C7    N7    S    
C4    C8    A    
C50   H45   S    
C47   H34   S    
C43   H21   S    
C19   H4    S    
C30   C35   A    
C18   C24   A    
C28   C29   A    
N3    C45   S    
C34   O7    A    
C3    C7    A    
C1    O2    A    
C30   C31   A    
C45   H28   S    
C49   H40   S    
C15   C16   A    
C5    C36   A    
O12   C51   S    
C18   C19   A    
C41   H17   S    
N6    H43   S    
C48   H36   S    
O2    Zn2   S    
O1    Zn1   S    
C23   O5    A    
O9    C41   S    
O8    Zn2   S    
C9    C36   A    
C53   H54   S    
C32   N5    S    
C8    H12   S    
C52   H51   S    
C42   H18   S    
C23   O6    A    
O3    Zn1   S    
C21   C22   A    
C32   N2    A    
C42   H20   S    
C34   O8    A    
C48   H37   S    
N5    H39   S    
C47   H35   S    
C52   H50   S    
C21   H5    S    
C43   H22   S    
C25   C29   A    
C38   C39   A    
O6    Zn2   S    
C17   C24   S    
O5    Zn1   S    
C51   H47   S    
O10   C43   S    
C44   H24   S    
C51   C52   S    
C39   C40   A    
C45   H27   S    
C16   C17   A    
C53   H55   S    
C25   C26   A    
C6    N4    S    
C48   H38   S    
O7    Zn1   S    
C41   C42   S    
C2    C4    A    
O4    Zn2   S    
N4    C46   S    
C20   C23   S    
O11   C47   S    
C46   H32   S    
N3    H26   S    
C16   H3    S    
C6    C7    A    
C36   H11   S    
C10   C12   S    
C42   H19   S    
C22   H6    S    
C30   H9    S    
C40   H14   S    
C22   C24   A    
C8    C37   A    
C31   H10   S    
C47   C48   S    
C11   H15   S    
C52   H49   S    
N7    C53   S    
C9    C37   A    
C43   C44   S    
C25   H7    S    
C11   C17   A    
C18   O10   S    
C27   N1    A    
C15   H2    S    
C44   H23   S    
C45   H29   S    
C26   N1    A    
N5    C49   S    
C1    C14   S    
N1    Zn2   S    
C29   C35   S    
C9    H1    S    
C10   C38   A    
C28   O11   S    
C32   C33   A    
C31   N2    A    
C51   H48   S    
C2    C3    A    
N2    Zn1   S    
C1    O1    A    
C26   N3    S    
C12   O4    A    
C11   C13   A    
N4    H30   S    
C5    C6    A    
C38   H13   S    
C49   H41   S    
C46   H31   S    
C33   C35   A    
C50   H44   S    
C46   H33   S    
C41   H16   S    
N6    C50   S    
C12   O3    A    
C2    C40   A    
C4    C5    A    
C20   C21   A    
C39   O12   S    
C27   C28   A    
C3    C10   A    
C14   C15   A    
C33   N6    S    
C13   C14   A    
C49   H42   S    
C50   H46   S    
N7    H52   S    
C13   O9    S    
