data_mof_unit_37971.cif
_audit_creation_date              2012-12-11T15:34:07-0500
_audit_creation_method            fapswitch 2.2
_symmetry_space_group_name_H-M    P1
_symmetry_Int_Tables_number       1
_space_group_crystal_system       triclinic
_cell_length_a                    15.064207
_cell_length_b                    15.06117
_cell_length_c                    34.916368
_cell_angle_alpha                 90.446938
_cell_angle_beta                  89.968505
_cell_angle_gamma                 60.04749
_cell_volume                      6863.62236826

loop_
_atom_site_label
_atom_site_type_symbol
_atom_type_description
_atom_site_fract_x
_atom_site_fract_y
_atom_site_fract_z
_atom_type_partial_charge
C1    C     C_R   0.302505 0.608225 0.555770 0.540626
C2    C     C_R   0.660330 0.665680 0.667659 0.033650
C3    C     C_R   0.277975 0.635833 0.265873 -0.067518
C4    C     C_R   0.200898 0.635628 0.288451 0.021642
C5    C     C_R   0.120370 0.629977 0.270985 -0.140762
C6    C     C_R   0.113885 0.629940 0.231297 -0.148012
C7    C     C_R   0.187687 0.635725 0.208573 0.051456
C8    C     C_R   0.200170 0.567369 0.352711 -0.151336
C9    C     C_R   0.218539 0.562055 0.392182 -0.025371
C10   C     C_R   0.237509 0.713049 0.387276 -0.117011
C11   C     C_R   0.217587 0.718849 0.348053 0.103212
C12   C     C_R   0.204952 0.641692 0.330381 0.041175
C13   C     C_R   0.568460 0.730536 0.648617 -0.125579
C14   C     C_R   0.245085 0.631515 0.409154 -0.013327
C15   C     C_R   0.736025 0.025393 0.943282 0.542292
C16   C     C_R   0.745516 0.722521 0.945117 0.537027
C17   C     C_R   0.037956 0.734157 0.948230 0.541402
C18   C     C_R   0.722988 0.038739 0.052846 0.542964
C19   C     C_R   0.733477 0.734280 0.054715 0.539405
C20   C     C_R   0.028309 0.744038 0.057771 0.563787
C21   C     C_R   0.554736 0.710006 0.610742 -0.134636
C22   C     C_R   0.675404 0.681304 0.786934 0.345552
C23   C     C_R   0.668327 0.674598 0.709399 0.343733
C24   C     C_R   0.752808 0.599341 0.849200 -0.122934
C25   C     C_R   0.768433 0.605627 0.888460 -0.020763
C26   C     C_R   0.635127 0.785261 0.887722 -0.145249
C27   C     C_R   0.619630 0.777399 0.848879 -0.130985
C28   C     C_R   0.681471 0.685751 0.828946 0.021115
C29   C     C_R   0.610849 0.588594 0.555135 0.545598
C30   C     C_R   0.712944 0.701711 0.907639 0.009393
C31   C     C_R   0.723568 0.071823 0.905242 0.021392
C32   C     C_R   0.634042 0.099823 0.884212 -0.126277
C33   C     C_R   0.631002 0.119160 0.845193 -0.121254
C34   C     C_R   0.716951 0.111784 0.826575 0.030541
C35   C     C_R   0.803444 0.092216 0.848033 -0.120321
C36   C     C_R   0.806867 0.072135 0.887140 -0.126123
C37   C     C_R   0.749129 0.181401 0.766763 -0.112887
C38   C     C_R   0.742747 0.192524 0.727062 -0.109141
C39   C     C_R   0.705838 0.140047 0.704576 0.027963
C40   C     C_R   0.590469 0.300135 0.553474 0.542623
C41   C     C_R   0.679425 0.073138 0.722368 -0.115224
C42   C     C_R   0.685055 0.062701 0.762021 -0.114713
C43   C     C_R   0.717792 0.118457 0.784552 0.024346
C44   C     C_R   0.593211 0.178426 0.647509 -0.118962
C45   C     C_R   0.565350 0.216527 0.610568 -0.125712
C46   C     C_R   0.724470 0.218455 0.603796 -0.125649
C47   C     C_R   0.752473 0.179997 0.640729 -0.118564
C48   C     C_R   0.685447 0.163101 0.663403 0.032332
C49   C     C_R   0.628962 0.240555 0.588916 0.020996
C50   C     C_R   0.089637 0.698343 0.910780 0.022370
C51   C     C_R   0.299158 0.610804 0.446222 0.537843
C52   C     C_R   0.111402 0.763422 0.889069 -0.125128
C53   C     C_R   0.132480 0.745226 0.850084 -0.120616
C54   C     C_R   0.133806 0.660904 0.832252 0.031685
C55   C     C_R   0.121751 0.590365 0.854408 -0.120795
C56   C     C_R   0.099386 0.609149 0.893476 -0.127714
C57   C     C_R   0.214117 0.562006 0.772149 -0.112604
C58   C     C_R   0.224377 0.558256 0.732330 -0.119917
C59   C     C_R   0.159612 0.644124 0.710222 0.038739
C60   C     C_R   0.081058 0.731721 0.728292 -0.084194
C61   C     C_R   0.071789 0.735984 0.768043 -0.113022
C62   C     C_R   0.607684 0.589574 0.445155 0.542064
C63   C     C_R   0.139720 0.652044 0.790248 0.027969
C64   C     C_R   0.194330 0.722653 0.652948 0.111001
C65   C     C_R   0.226506 0.713863 0.614717 -0.105016
C66   C     C_R   0.227620 0.553156 0.607983 -0.141491
C67   C     C_R   0.194319 0.561753 0.645785 -0.150405
C68   C     C_R   0.179998 0.644617 0.668858 0.058118
C69   C     C_R   0.247140 0.627483 0.592505 -0.001349
C70   C     C_R   0.691946 0.717373 0.090468 -0.002133
C71   C     C_R   0.603921 0.797600 0.107712 -0.141184
C72   C     C_R   0.576614 0.787765 0.144947 -0.148597
C73   C     C_R   0.587868 0.303014 0.443719 0.541150
C74   C     C_R   0.636650 0.697702 0.165632 0.060241
C75   C     C_R   0.722097 0.614274 0.147707 0.110603
C76   C     C_R   0.748077 0.624640 0.110100 -0.107222
C77   C     C_R   0.613248 0.612126 0.222829 -0.096615
C78   C     C_R   0.611490 0.602655 0.262456 -0.127182
C79   C     C_R   0.611498 0.677397 0.286739 0.028913
C80   C     C_R   0.607903 0.764352 0.270925 -0.115679
C81   C     C_R   0.610963 0.773198 0.231257 -0.123703
C82   C     C_R   0.616693 0.695647 0.206964 0.041753
C83   C     C_R   0.548569 0.737721 0.353341 -0.117945
C84   C     C_R   0.632771 0.624435 0.591351 0.022404
C85   C     C_R   0.549594 0.717402 0.392349 -0.126756
C86   C     C_R   0.697907 0.548891 0.382276 -0.124964
C87   C     C_R   0.695883 0.568729 0.343305 -0.122634
C88   C     C_R   0.619374 0.661938 0.328425 0.030446
C89   C     C_R   0.622278 0.621433 0.406946 0.022441
C90   C     C_R   0.698855 0.101817 0.087875 0.021377
C91   C     C_R   0.772132 0.122671 0.103883 -0.129194
C92   C     C_R   0.758912 0.162444 0.140952 -0.121004
C93   C     C_R   0.672429 0.181667 0.162586 0.032371
C94   C     C_R   0.595030 0.169384 0.145314 -0.121206
C95   C     C_R   0.727690 0.565185 0.609338 -0.131422
C96   C     C_R   0.607997 0.130053 0.108219 -0.126876
C97   C     C_R   0.576029 0.268046 0.222588 -0.120593
C98   C     C_R   0.570374 0.273971 0.262437 -0.119561
C99   C     C_R   0.657632 0.213024 0.284504 0.027974
C100  C     C_R   0.751399 0.148890 0.266240 -0.116729
C101  C     C_R   0.756956 0.142377 0.226418 -0.112228
C102  C     C_R   0.668947 0.200609 0.204235 0.031520
C103  C     C_R   0.721102 0.230965 0.348277 -0.123850
C104  C     C_R   0.705966 0.249608 0.387544 -0.128263
C105  C     C_R   0.554920 0.231643 0.384333 -0.128489
C106  C     C_R   0.741304 0.585566 0.647163 -0.123592
C107  C     C_R   0.569537 0.214008 0.345008 -0.125583
C108  C     C_R   0.650485 0.217424 0.326544 0.031455
C109  C     C_R   0.620008 0.254766 0.405599 0.022735
C110  C     C_R   0.088477 0.704770 0.093247 0.056419
C111  C     C_R   0.111583 0.608836 0.108721 0.091918
C112  C     C_R   0.150994 0.583543 0.145779 -0.126638
C113  C     C_R   0.168954 0.651503 0.167329 0.029421
C114  C     C_R   0.154231 0.742258 0.150904 -0.103672
C115  C     C_R   0.114529 0.768616 0.114145 -0.165224
C116  C     C_R   0.271761 0.636517 0.225825 0.103432
Cr1   Cr    Cr6+3 0.421670 0.426920 0.499620 1.027790
Cr2   Cr    Cr6+3 0.427030 0.651190 0.500980 1.007311
Cr3   Cr    Cr6+3 0.651280 0.421870 0.499380 1.008345
Cr4   Cr    Cr6+3 0.910810 0.908010 0.001130 1.006312
Cr5   Cr    Cr6+3 0.682800 0.909890 0.998370 1.007255
Cr6   Cr    Cr6+3 0.908370 0.682300 0.002180 1.044522
H1    H     H_    0.789698 0.499449 0.594958 0.128263
H2    H     H_    0.876981 0.050686 0.902574 0.125274
H3    H     H_    0.824861 0.167008 0.652070 0.106879
H4    H     H_    0.762241 0.245779 0.714185 0.112604
H5    H     H_    0.774602 0.224998 0.783684 0.111548
H6    H     H_    0.562683 0.136380 0.829224 0.105919
H7    H     H_    0.652447 0.030476 0.705676 0.113091
H8    H     H_    0.662782 0.011810 0.775197 0.118286
H9    H     H_    0.539512 0.167019 0.664422 0.104349
H10   H     H_    0.491302 0.232697 0.599897 0.127297
H11   H     H_    0.870420 0.086585 0.834157 0.105036
H12   H     H_    0.480887 0.757437 0.597522 0.126105
H13   H     H_    0.775556 0.235357 0.587633 0.124688
H14   H     H_    0.104996 0.832503 0.901504 0.127601
H15   H     H_    0.083202 0.557500 0.909482 0.129584
H16   H     H_    0.183223 0.501605 0.657531 0.109875
H17   H     H_    0.285599 0.489924 0.718916 0.109124
H18   H     H_    0.266756 0.496437 0.788890 0.108686
H19   H     H_    0.143431 0.799467 0.833444 0.111026
H20   H     H_    0.028875 0.797869 0.711708 0.145601
H21   H     H_    0.012425 0.805393 0.781578 0.114309
H22   H     H_    0.241719 0.771517 0.603160 0.123129
H23   H     H_    0.123112 0.524524 0.841061 0.103831
H24   H     H_    0.242626 0.485837 0.591478 0.128783
H25   H     H_    0.559092 0.869938 0.093232 0.131429
H26   H     H_    0.816113 0.562072 0.097074 0.123895
H27   H     H_    0.752218 0.509989 0.324516 0.108174
H28   H     H_    0.611952 0.536069 0.274222 0.110988
H29   H     H_    0.615300 0.552642 0.204573 0.143651
H30   H     H_    0.510765 0.852230 0.158268 0.110645
H31   H     H_    0.607516 0.822894 0.289260 0.106057
H32   H     H_    0.813702 0.535365 0.660863 0.130691
H33   H     H_    0.613852 0.838152 0.219598 0.106571
H34   H     H_    0.489251 0.810312 0.342317 0.107508
H35   H     H_    0.490203 0.774636 0.410662 0.118719
H36   H     H_    0.754613 0.474075 0.392533 0.126592
H37   H     H_    0.842345 0.102948 0.088651 0.122541
H38   H     H_    0.549877 0.115407 0.096552 0.126243
H39   H     H_    0.515579 0.201273 0.328766 0.100861
H40   H     H_    0.497761 0.325855 0.276072 0.106429
H41   H     H_    0.507446 0.314686 0.206135 0.100920
H42   H     H_    0.504972 0.793502 0.663566 0.129413
H43   H     H_    0.818674 0.173332 0.153401 0.105155
H44   H     H_    0.819502 0.101312 0.282801 0.103516
H45   H     H_    0.829169 0.088304 0.213074 0.104681
H46   H     H_    0.784319 0.233443 0.334547 0.101820
H47   H     H_    0.757729 0.266810 0.403176 0.123506
H48   H     H_    0.527807 0.182984 0.161380 0.101514
H49   H     H_    0.489115 0.233418 0.397600 0.126164
H50   H     H_    0.098754 0.841990 0.103028 0.131061
H51   H     H_    0.797842 0.526758 0.834331 0.130405
H52   H     H_    0.342108 0.636743 0.279537 0.135842
H53   H     H_    0.163424 0.512700 0.158388 0.098899
H54   H     H_    0.060774 0.629090 0.288070 0.112541
H55   H     H_    0.048598 0.629977 0.218262 0.111894
H56   H     H_    0.185338 0.511213 0.339045 0.105071
H57   H     H_    0.167088 0.795916 0.167458 0.143444
H58   H     H_    0.253859 0.769019 0.400101 0.130877
H59   H     H_    0.590201 0.859438 0.901480 0.135103
H60   H     H_    0.562796 0.844930 0.834102 0.131579
H61   H     H_    0.568357 0.100893 0.897342 0.126103
N1    N     N_R   0.749958 0.601150 0.766909 -0.238448
N2    N     N_R   0.746341 0.597748 0.728933 -0.237848
N3    N     N_R   0.593938 0.755144 0.729393 -0.242018
N4    N     N_R   0.597753 0.758735 0.767419 -0.240090
O1    O     O_R   0.502070 0.323090 0.541280 -0.519671
O2    O     O_R   0.520720 0.641670 0.461580 -0.501258
O3    O     O_R   0.674120 0.502090 0.457500 -0.521623
O4    O     O_R   0.640110 0.338380 0.459630 -0.505938
O5    O     O_3   0.499990 0.499990 0.499990 -0.236134
O6    O     O_R   0.017640 0.822070 0.960410 -0.523058
O7    O     O_R   0.822000 0.989470 0.960340 -0.503306
O8    O     O_R   0.666920 0.007430 0.955290 -0.521200
O9    O     O_R   0.694410 0.812480 0.959650 -0.506628
O10   O     O_R   0.831550 0.656950 0.958960 -0.500830
O11   O     O_R   0.998590 0.685540 0.963930 -0.498477
O12   O     O_R   0.338340 0.520690 0.539540 -0.500643
O13   O     O_R   0.008220 0.831200 0.045060 -0.532798
O14   O     O_R   0.813270 0.997930 0.038810 -0.503140
O15   O     O_R   0.657500 0.016560 0.039940 -0.520676
O16   O     O_R   0.685680 0.820940 0.038120 -0.502020
O17   O     O_R   0.822130 0.666070 0.043610 -0.513291
O18   O     O_R   0.989860 0.694000 0.042400 -0.454007
O19   O     O_3   0.833990 0.833400 0.000560 -0.241052
O20   O     O_R   0.324760 0.674070 0.543580 -0.522785
O21   O     O_R   0.522400 0.640310 0.540110 -0.503181
O22   O     O_R   0.675940 0.500630 0.542210 -0.519658
O23   O     O_R   0.641790 0.337020 0.538150 -0.502346
O24   O     O_R   0.500260 0.324550 0.456580 -0.510255
O25   O     O_R   0.336660 0.522040 0.461020 -0.482087
O26   O     O_R   0.322940 0.675540 0.458880 -0.524911
N5    N     N_3   0.183307 0.806603 0.676348 -0.645590
H62   H     H_    0.190308 0.860302 0.659753 0.220421
H63   H     H_    0.244121 0.777171 0.695723 0.239144
C117  C     C_R   0.844312 0.511074 0.908082 0.056154
C118  C     C_R   0.814738 0.474501 0.939702 -0.063461
C119  C     C_R   0.886529 0.385398 0.958254 -0.106231
C120  C     C_R   0.988011 0.332103 0.945312 -0.105067
C121  C     C_R   0.017855 0.367686 0.913741 -0.118049
C122  C     C_R   0.946314 0.456657 0.895068 -0.092706
H64   H     H_    0.736300 0.515125 0.949969 0.099005
H65   H     H_    0.863491 0.357675 0.982669 0.102897
H66   H     H_    0.043498 0.263207 0.959731 0.104098
H67   H     H_    0.096469 0.326395 0.903757 0.101315
H68   H     H_    0.970548 0.483726 0.870762 0.100144
N6    N     N_3   0.786550 0.522323 0.168624 -0.646972
H69   H     H_    0.841707 0.466100 0.150567 0.217785
H70   H     H_    0.826248 0.540145 0.188993 0.230052
N7    N     N_3   0.091910 0.538407 0.087704 -0.602289
H71   H     H_    0.160651 0.468780 0.085292 0.216836
H72   H     H_    0.040474 0.525684 0.103581 0.221577
N8    N     N_3   0.213525 0.800724 0.325776 -0.639032
H73   H     H_    0.138397 0.845142 0.315994 0.231664
H74   H     H_    0.228710 0.848874 0.342865 0.217377
N9    N     N_3   0.349170 0.639261 0.202625 -0.637351
H75   H     H_    0.402934 0.644718 0.219899 0.227410
H76   H     H_    0.388436 0.569158 0.188001 0.228187
C123  C     C_R   0.211292 0.482425 0.414504 0.058547
C124  C     C_R   0.150808 0.509361 0.447911 -0.069638
C125  C     C_R   0.144950 0.434150 0.469170 -0.111904
C126  C     C_R   0.198686 0.331761 0.457142 -0.106483
C127  C     C_R   0.258077 0.304446 0.423752 -0.113308
C128  C     C_R   0.264141 0.379392 0.402399 -0.085378
H77   H     H_    0.108646 0.588451 0.457531 0.094452
H78   H     H_    0.098756 0.455259 0.494981 0.100563
H79   H     H_    0.194160 0.273620 0.473656 0.102503
H80   H     H_    0.299594 0.225137 0.414437 0.097107
H81   H     H_    0.310870 0.356988 0.376689 0.091379

loop_
_geom_bond_atom_site_label_1
_geom_bond_atom_site_label_2
_ccdc_geom_bond_type
C58   H17   S    
C71   H25   S    
C87   C88   A    
C78   C79   A    
C93   C94   A    
C111  N7    S    
C41   C42   A    
Cr6   O19   S    
C32   H61   S    
C25   C117  S    
C111  C112  A    
Cr3   O3    S    
C55   C56   A    
C77   H29   S    
N6    H70   S    
C97   C98   A    
C90   C91   A    
C80   H31   S    
C39   C41   A    
C77   C78   A    
C127  C128  A    
C44   H9    S    
C99   C108  S    
C105  C107  A    
C46   C49   A    
C26   C27   A    
C101  C102  A    
C29   O21   A    
C85   H35   S    
C20   O18   A    
C64   N5    S    
C75   N6    S    
C95   C106  A    
Cr3   O4    S    
Cr5   O15   S    
C34   C35   A    
C3    C116  A    
C5    C6    A    
C80   C81   A    
Cr2   O2    S    
N5    H63   S    
C55   H23   S    
C66   C69   A    
C54   C63   S    
C16   C30   S    
C126  C127  A    
C62   C89   S    
C40   O23   A    
C25   C30   A    
N1    N2    A    
C15   C31   S    
C100  H44   S    
C124  C125  A    
Cr6   O17   S    
C22   N4    A    
C61   C63   A    
C2    C13   A    
C110  C111  A    
C20   O13   A    
C22   N1    A    
C103  C104  A    
C60   H20   S    
C46   H13   S    
C46   C47   A    
C15   O7    A    
Cr2   O5    S    
C51   O25   A    
C61   H21   S    
C14   C51   S    
C8    C9    A    
C72   H30   S    
C50   C52   A    
C107  C108  A    
C47   H3    S    
C103  C108  A    
C45   C49   A    
C4    C12   S    
C50   C56   A    
Cr5   O9    S    
C91   H37   S    
C97   C102  A    
Cr1   O12   S    
C94   C96   A    
C15   O8    A    
C51   O26   A    
C11   N8    S    
C1    C69   S    
C66   C67   A    
C119  H65   S    
C77   C82   A    
C59   C60   A    
C22   C28   S    
N9    H75   S    
Cr4   O14   S    
C112  C113  A    
Cr6   O18   S    
C35   H11   S    
C17   O6    A    
C1    O12   A    
N8    H74   S    
Cr5   O19   S    
C74   C82   S    
C24   H51   S    
C92   H43   S    
C120  C121  A    
C38   H4    S    
C57   C63   A    
C62   O2    A    
C57   C58   A    
C83   C85   A    
C38   C39   A    
Cr3   O22   S    
C74   C75   A    
C67   C68   A    
C18   C90   S    
C47   C48   A    
C107  H39   S    
C118  H64   S    
C24   C25   A    
Cr5   O16   S    
C29   C84   S    
C18   O15   A    
C10   C14   A    
C114  C115  A    
C119  C120  A    
C23   N2    A    
C65   H22   S    
C85   C89   A    
N5    H62   S    
C4    C5    A    
C83   H34   S    
C106  H32   S    
C117  C118  A    
C53   C54   A    
C116  N9    S    
C86   C89   A    
C33   H6    S    
C81   C82   A    
C124  H77   S    
C57   H18   S    
C60   C61   A    
C84   C95   A    
C7    C116  A    
C37   C43   A    
Cr2   O21   S    
C75   C76   A    
C37   C38   A    
C16   O9    A    
Cr1   O5    S    
C59   C68   S    
C41   H7    S    
C121  C122  A    
C97   H41   S    
C18   O14   A    
C3    H52   S    
C31   C32   A    
C21   C84   A    
Cr1   O24   S    
C8    C12   A    
C62   O3    A    
C9    C123  S    
C19   O16   A    
C33   C34   A    
C9    C14   A    
C13   C21   A    
C17   O11   A    
C42   H8    S    
C52   C53   A    
Cr3   O5    S    
C29   O22   A    
C92   C93   A    
C86   H36   S    
C40   C49   S    
C73   O4    A    
C79   C88   S    
C20   C110  S    
C26   C30   A    
C72   C74   A    
C96   H38   S    
C98   C99   A    
N9    H76   S    
C6    H55   S    
C70   C76   A    
C123  C128  A    
C52   H14   S    
C5    H54   S    
N8    H73   S    
C36   H2    S    
C3    C4    A    
C64   C68   A    
C21   H12   S    
C2    C23   S    
C98   H40   S    
C44   C45   A    
C78   H28   S    
C13   H42   S    
C113  C114  A    
C95   H1    S    
C117  C122  A    
C105  C109  A    
C54   C55   A    
Cr3   O23   S    
C105  H49   S    
C125  C126  A    
C86   C87   A    
C93   C102  S    
C73   O24   A    
Cr1   O25   S    
C34   C43   S    
C24   C28   A    
C115  H50   S    
Cr1   O1    S    
C17   C50   S    
C23   N3    A    
C11   C12   A    
C90   C96   A    
C6    C7    A    
C40   O1    A    
C101  H45   S    
Cr4   O6    S    
C81   H33   S    
C67   H16   S    
C125  H78   S    
C10   H58   S    
C64   C65   A    
C7    C113  S    
C127  H80   S    
Cr2   O20   S    
C58   C59   A    
C27   H60   S    
Cr4   O19   S    
C71   C72   A    
C99   C100  A    
C32   C33   A    
C123  C124  A    
C56   H15   S    
Cr6   O11   S    
C118  C119  A    
C104  C109  A    
C122  H68   S    
C114  H57   S    
C65   C69   A    
C121  H67   S    
C19   O17   A    
Cr4   O13   S    
C2    C106  A    
C120  H66   S    
C83   C88   A    
Cr2   O26   S    
C53   H19   S    
C73   C109  S    
C87   H27   S    
Cr6   O10   S    
C1    O20   A    
Cr4   O7    S    
C66   H24   S    
C70   C71   A    
C10   C11   A    
N7    H72   S    
N6    H69   S    
C79   C80   A    
C26   H59   S    
C8    H56   S    
C103  H46   S    
C112  H53   S    
C76   H26   S    
C45   H10   S    
C126  H79   S    
C42   C43   A    
N7    H71   S    
C31   C36   A    
C39   C48   S    
C19   C70   S    
C100  C101  A    
C35   C36   A    
C37   H5    S    
N3    N4    A    
C91   C92   A    
C110  C115  A    
Cr5   O8    S    
C94   H48   S    
C16   O10   A    
C44   C48   A    
C104  H47   S    
C27   C28   A    
C128  H81   S    
