data_mof_unit_26252.cif
_audit_creation_date              2013-03-05T15:47:46-0500
_audit_creation_method            fapswitch 2.2
_symmetry_space_group_name_H-M    P1
_symmetry_Int_Tables_number       1
_space_group_crystal_system       triclinic
_cell_length_a                    10.901989
_cell_length_b                    13.077989
_cell_length_c                    11.653869
_cell_angle_alpha                 98.950054
_cell_angle_beta                  95.343179
_cell_angle_gamma                 93.158489
_cell_volume                      1630.10532854

loop_
_atom_site_label
_atom_site_type_symbol
_atom_site_description
_atom_site_fract_x
_atom_site_fract_y
_atom_site_fract_z
_atom_type_partial_charge
O1    O     O_R   0.506570 0.354460 0.582000 -0.523722
O2    O     O_R   0.493430 0.645540 0.418000 -0.552359
O3    O     O_R   0.490940 0.341410 0.386200 -0.595806
O4    O     O_R   0.509060 0.658590 0.613800 -0.592912
C1    C     C_R   0.508653 0.300207 0.480058 0.940207
C2    C     C_R   0.498723 0.700739 0.520346 0.836319
O5    O     O_R   0.327470 0.506520 0.597900 -0.571137
O6    O     O_R   0.672530 0.493480 0.402100 -0.611525
O7    O     O_R   0.311840 0.493460 0.402100 -0.577886
O8    O     O_R   0.688160 0.506540 0.597900 -0.520870
C3    C     C_R   0.262060 0.489440 0.497308 0.854457
C4    C     C_R   0.738360 0.508604 0.502605 0.780017
Cu1   Cu    Cu3+1 0.509250 0.507730 0.615930 1.061948
Cu2   Cu    Cu3+1 0.490750 0.492270 0.384070 1.011254
H1    H     H_    0.039416 0.130660 0.394473 0.191237
H2    H     H_    0.959865 0.856853 0.620691 0.202806
C5    C     C_R   0.149891 0.680696 0.511093 -0.110479
C6    C     C_R   0.837629 0.314560 0.439091 -0.111890
C7    C     C_R   0.102637 0.776672 0.540784 -0.146497
C8    C     C_R   0.880977 0.217638 0.409188 -0.184327
C9    C     C_R   0.988185 0.781805 0.583483 -0.150693
C10   C     C_R   0.006478 0.207513 0.413715 -0.106052
C11   C     C_R   0.917074 0.690446 0.589773 0.314721
C12   C     C_R   0.090392 0.294448 0.446184 0.355907
C13   C     C_R   0.953935 0.593204 0.536580 -0.031106
C14   C     C_R   0.048253 0.396352 0.471550 -0.059408
C15   C     C_R   0.077658 0.587515 0.512365 0.036597
C16   C     C_R   0.918987 0.404870 0.471350 0.059250
C17   C     C_R   0.872630 0.502398 0.506766 -0.098128
C18   C     C_R   0.127513 0.489734 0.492751 -0.135124
H3    H     H_    0.242567 0.680357 0.485599 0.150017
H4    H     H_    0.739237 0.317268 0.436862 0.126971
H5    H     H_    0.158735 0.847231 0.538915 0.190768
H6    H     H_    0.816852 0.149750 0.385106 0.174570
C19   C     C_R   0.505163 0.814079 0.531117 -0.244849
C20   C     C_R   0.523608 0.188274 0.470237 -0.195193
C21   C     C_R   0.504671 0.021493 0.344415 0.377432
C22   C     C_R   0.572171 0.978622 0.653205 0.370003
C23   C     C_R   0.509196 0.128761 0.359015 -0.246102
C24   C     C_R   0.545882 0.872401 0.639875 -0.210740
C25   C     C_R   0.550982 0.140334 0.569444 0.321823
C26   C     C_R   0.480758 0.863893 0.433490 0.311722
C27   C     C_R   0.547764 0.030843 0.556412 -0.153378
C28   C     C_R   0.511731 0.971324 0.443751 -0.125380
H7    H     H_    0.562722 0.834608 0.715597 0.231197
H8    H     H_    0.499440 0.165674 0.281915 0.214107
N1    N     N_R   0.523180 0.519350 0.790130 -0.210454
N2    N     N_R   0.476820 0.480650 0.209870 -0.201074
C29   C     C_R   0.393640 0.390293 0.019652 -0.237765
C30   C     C_R   0.603456 0.610883 0.980657 -0.233755
C31   C     C_R   0.401567 0.402947 0.142376 0.104120
C32   C     C_R   0.592638 0.600268 0.858182 0.155246
C33   C     C_R   0.545845 0.547828 0.158246 0.140465
C34   C     C_R   0.456950 0.450009 0.841544 0.129415
C35   C     C_R   0.538462 0.539678 0.035117 0.033466
C36   C     C_R   0.462512 0.459017 0.964854 0.038955
H9    H     H_    0.398051 0.388777 0.786661 0.180800
H10   H     H_    0.606603 0.607970 0.212943 0.147514
H11   H     H_    0.638258 0.658337 0.817762 0.201416
H12   H     H_    0.347917 0.349749 0.183719 0.165660
H13   H     H_    0.333844 0.327526 0.968204 0.184428
H14   H     H_    0.660394 0.675408 0.032234 0.191420
N3    N     N_R   0.832296 0.694865 0.676592 0.102751
O9    O     O_R   0.845755 0.633360 0.753901 -0.340012
O10   O     O_R   0.775881 0.778942 0.703059 -0.393444
N4    N     N_R   0.216971 0.274467 0.459634 0.067308
O11   O     O_R   0.267044 0.271649 0.564720 -0.368598
O12   O     O_R   0.262184 0.221483 0.371384 -0.384641
N5    N     N_R   0.401271 0.811425 0.334010 0.143667
O13   O     O_R   0.445776 0.752604 0.249596 -0.305034
O14   O     O_R   0.286491 0.833661 0.321007 -0.334838
N6    N     N_R   0.571438 0.202091 0.683440 0.157771
O15   O     O_R   0.671190 0.263547 0.712982 -0.304560
O16   O     O_R   0.487600 0.200409 0.755764 -0.317911
N7    N     N_R   0.503361 0.965592 0.228247 0.171063
O17   O     O_R   0.427274 0.988126 0.144488 -0.263369
O18   O     O_R   0.595480 0.910388 0.201775 -0.314229
N8    N     N_R   0.635342 0.028985 0.762542 0.177452
O19   O     O_R   0.594377 0.012495 0.859934 -0.264527
O20   O     O_R   0.747204 0.070116 0.765150 -0.276471

loop_
_geom_bond_atom_site_label_1
_geom_bond_atom_site_label_2
_geom_bond_distance
_ccdc_geom_bond_type
N4    O12   1.300443 A    
C35   C36   1.406268 A    
N3    O10   1.298752 A    
H2    C9    1.082840 S    
C4    C17   1.467233 S    
O7    Cu2   1.981767 S    
H1    C10   1.083536 S    
O5    C3    1.295351 A    
O1    C1    1.288353 A    
C16   C17   1.413737 A    
C7    C9    1.386899 A    
C12   C14   1.429927 A    
N8    O20   1.301244 A    
C1    C20   1.469764 S    
C2    C19   1.465191 S    
O4    Cu1   1.977070 S    
N5    O14   1.300708 A    
C19   C26   1.408185 A    
N2    C31   1.365156 A    
C3    C18   1.463089 S    
C29   C31   1.407875 A    
C30   C32   1.405554 A    
C12   N4    1.417510 S    
C8    H6    1.083186 S    
C11   N3    1.429379 S    
N4    O11   1.300351 A    
C21   N7    1.433445 S    
Cu1   Cu2   2.665846 S    
C15   C18   1.411273 A    
C25   C27   1.414388 A    
C20   C25   1.414465 A    
O2    C2    1.289089 A    
C26   C28   1.410746 A    
C33   C35   1.416619 A    
C13   C17   1.419496 A    
C24   H7    1.082716 S    
C34   C36   1.418782 A    
C29   H13   1.083228 S    
C5    C15   1.416831 A    
C6    C16   1.416783 A    
O4    C2    1.293621 A    
C7    H5    1.082849 S    
Cu1   N1    2.002881 S    
N8    O19   1.301576 A    
Cu2   N2    2.002881 S    
C22   N8    1.434276 S    
C26   N5    1.437247 S    
N7    O17   1.301292 A    
C32   H11   1.076689 S    
O7    C3    1.286672 A    
O6    C4    1.296836 A    
N7    O18   1.301267 A    
O3    Cu2   1.977073 S    
O8    C4    1.286265 A    
N1    C34   1.371199 A    
N6    O16   1.301271 A    
C8    C10   1.378775 A    
C14   C18   1.431514 A    
C23   H8    1.083752 S    
C27   C28   1.426983 A    
C5    H3    1.079403 S    
C10   C12   1.399927 A    
O1    Cu1   1.979865 S    
O6    Cu2   1.972244 S    
C20   C23   1.394701 A    
N6    O15   1.301918 A    
O3    C1    1.295988 A    
O8    Cu1   1.981767 S    
C33   H10   1.082444 S    
N1    C32   1.364171 A    
N2    C33   1.369665 A    
C13   C15   1.407095 A    
C29   C36   1.404595 A    
C14   C16   1.419577 A    
C30   C35   1.402494 A    
C21   C28   1.414872 A    
C9    C11   1.403446 A    
C19   C24   1.393681 A    
C22   C27   1.418962 A    
C21   C23   1.384166 A    
C22   C24   1.384456 A    
C30   H14   1.083360 S    
C5    C7    1.389212 A    
C6    C8    1.382275 A    
C11   C13   1.421439 A    
N5    O13   1.299808 A    
O2    Cu2   1.979863 S    
N3    O9    1.301581 A    
O5    Cu1   1.972242 S    
C6    H4    1.073232 S    
C31   H12   1.081767 S    
C25   N6    1.434599 S    
C34   H9    1.081735 S    
