data_mof_unit_13716.cif
_audit_creation_date              2012-10-26T19:15:02-0400
_audit_creation_method            fapswitch 2.2
_symmetry_space_group_name_H-M    P1
_symmetry_Int_Tables_number       1
_space_group_crystal_system       triclinic
_cell_length_a                    10.875972
_cell_length_b                    10.835887
_cell_length_c                    9.550075
_cell_angle_alpha                 90.441928
_cell_angle_beta                  90.942402
_cell_angle_gamma                 90.883324
_cell_volume                      1125.16231671

loop_
_atom_site_label
_atom_site_type_symbol
_atom_type_description
_atom_site_fract_x
_atom_site_fract_y
_atom_site_fract_z
_atom_type_partial_charge
C1    C     C_R   0.497065 0.262325 0.499470 0.553278
C2    C     C_R   0.478339 0.937377 0.624436 0.040220
C3    C     C_3   0.560160 0.934342 0.751262 0.307127
C4    C     C_R   0.262377 0.497003 0.498433 0.565070
C5    C     C_3   0.558857 0.074242 0.751393 0.312786
C6    C     C_R   0.547016 0.598641 0.075688 0.115543
C7    C     C_R   0.438330 0.411196 0.072136 0.500726
C8    C     C_R   0.438453 0.411323 0.923328 0.042859
C9    C     C_R   0.547495 0.598372 0.928260 0.204068
C10   C     C_3   0.677104 0.643796 0.927944 -0.256127
C11   C     C_3   0.675116 0.647684 0.086203 -0.273541
C12   C     C_R   0.939931 0.462015 0.620133 0.015516
C13   C     C_R   0.497520 0.737709 0.500154 0.536526
C14   C     C_R   0.737796 0.497185 0.500630 0.537740
C15   C     C_R   0.066410 0.460708 0.617018 -0.013978
C16   C     C_R   0.129264 0.483451 0.493713 0.020452
C17   C     C_R   0.061179 0.489678 0.366407 0.249557
C18   C     C_R   0.932261 0.486010 0.370254 -0.149220
C19   C     C_R   0.870907 0.484554 0.498823 -0.037211
C20   C     C_3   0.088961 0.609409 0.170546 -0.016230
C21   C     C_3   0.198660 0.655571 0.087826 -0.326153
C22   C     C_3   0.941755 0.522771 0.760941 -0.274210
C23   C     C_3   0.080771 0.519905 0.757619 -0.266299
C24   C     C_R   0.477744 0.064634 0.623991 0.026485
C25   C     C_R   0.483813 0.129135 0.498314 -0.050179
C26   C     C_R   0.472234 0.063016 0.371408 -0.130657
C27   C     C_R   0.472459 0.934269 0.371878 -0.162167
C28   C     C_R   0.484529 0.870699 0.499264 -0.052070
Cu1   Cu    Cu3+1 0.499990 0.499980 0.640670 0.981021
Cu2   Cu    Cu3+1 0.500010 0.500020 0.359330 1.040469
F1    F     F_    0.497209 0.122720 0.864374 -0.573581
F2    F     F_    0.375628 0.320796 0.138843 -0.584838
F3    F     F_    0.499945 0.883905 0.864472 -0.590993
H1    H     H_    0.651897 0.895046 0.730661 0.026885
H2    H     H_    0.904023 0.461042 0.842662 0.145814
H3    H     H_    0.124517 0.613263 0.753832 0.148022
H4    H     H_    0.121356 0.456069 0.835684 0.163043
H5    H     H_    0.469468 0.110071 0.271814 0.224428
H6    H     H_    0.469567 0.885383 0.272468 0.174268
H7    H     H_    0.063120 0.685085 0.244020 0.113624
H8    H     H_    0.010800 0.590505 0.096568 0.125051
H9    H     H_    0.172643 0.738005 0.026358 0.118268
H10   H     H_    0.275832 0.681164 0.160511 0.177187
H11   H     H_    0.229681 0.582653 0.014957 0.153366
H12   H     H_    0.649750 0.118898 0.732438 0.061081
H13   H     H_    0.389582 0.339052 0.865807 0.195439
H14   H     H_    0.737448 0.571726 0.887720 0.128169
H15   H     H_    0.688763 0.735825 0.880367 0.164020
H16   H     H_    0.739663 0.581900 0.134556 0.132090
H17   H     H_    0.679377 0.742898 0.130377 0.151598
H18   H     H_    0.881393 0.490166 0.272508 0.129846
H19   H     H_    0.905889 0.618273 0.757798 0.128130
N1    N     N_R   0.500790 0.500930 0.147930 -0.247656
N2    N     N_R   0.500790 0.500890 0.852020 -0.293009
O1    O     O_R   0.500000 0.319640 0.618810 -0.495625
O2    O     O_R   0.500010 0.319680 0.381230 -0.442516
O3    O     O_R   0.319650 0.499970 0.618810 -0.525615
O4    O     O_R   0.319660 0.500010 0.381230 -0.417561
O5    O     O_R   0.499990 0.680320 0.618770 -0.473604
O6    O     O_R   0.500000 0.680360 0.381190 -0.525116
O7    O     O_R   0.680340 0.499990 0.618770 -0.504795
O8    O     O_R   0.680350 0.500030 0.381190 -0.522794
O9    O     O_3   0.120840 0.498918 0.239503 -0.504028

loop_
_geom_bond_atom_site_label_1
_geom_bond_atom_site_label_2
_ccdc_geom_bond_type
C4    O3    A    
C4    C16   S    
C24   C25   A    
C13   C28   S    
Cu1   Cu2   S    
C11   H16   S    
C21   H11   S    
C9    C10   S    
Cu1   O5    S    
C2    C24   A    
C12   C15   A    
C6    C9    A    
C15   C23   S    
C2    C3    S    
C1    O1    A    
C7    C8    A    
C13   O6    A    
C21   H10   S    
C17   O9    S    
C1    C25   S    
C22   H2    S    
C26   C27   A    
C5    C24   S    
C5    H12   S    
C20   O9    S    
C13   O5    A    
Cu2   O4    S    
C12   C19   A    
C1    O2    A    
Cu1   O3    S    
C18   H18   S    
C17   C18   A    
C8    H13   S    
Cu2   O8    S    
C10   H15   S    
C20   H7    S    
Cu2   N1    S    
Cu1   O7    S    
C27   H6    S    
C10   H14   S    
C7    F2    S    
C10   C11   S    
C7    N1    A    
C6    N1    A    
C4    O4    A    
C15   C16   A    
C14   O8    A    
C12   C22   S    
C6    C11   S    
C20   C21   S    
C22   H19   S    
C23   H3    S    
Cu1   N2    S    
C8    N2    A    
C27   C28   A    
C11   H17   S    
C3    F3    S    
C22   C23   S    
C18   C19   A    
C2    C28   A    
C9    N2    A    
Cu1   O1    S    
C3    H1    S    
C3    C5    S    
C25   C26   A    
C23   H4    S    
C14   O7    A    
Cu2   O2    S    
C14   C19   S    
C26   H5    S    
C21   H9    S    
C20   H8    S    
C16   C17   A    
C5    F1    S    
Cu2   O6    S    
