data_mof_unit_31017.cif
_audit_creation_date              2012-12-10T17:21:41-0500
_audit_creation_method            fapswitch 2.2
_symmetry_space_group_name_H-M    P1
_symmetry_Int_Tables_number       1
_space_group_crystal_system       triclinic
_cell_length_a                    10.753454
_cell_length_b                    10.786402
_cell_length_c                    9.604703
_cell_angle_alpha                 90.019016
_cell_angle_beta                  90.020056
_cell_angle_gamma                 93.172371
_cell_volume                      1112.35249229

loop_
_atom_site_label
_atom_site_type_symbol
_atom_type_description
_atom_site_fract_x
_atom_site_fract_y
_atom_site_fract_z
_atom_type_partial_charge
C1    C     C_R   0.493697 0.262516 0.500007 0.788685
C2    C     C_3   0.878808 0.505156 0.501175 0.021394
C3    C     C_3   0.938038 0.620380 0.420403 0.327313
C4    C     C_3   0.920812 0.385361 0.428815 -0.459863
C5    C     C_R   0.308143 0.119567 0.668584 -0.183175
C6    C     C_R   0.226002 0.050729 0.754515 -0.150848
C7    C     C_R   0.228021 0.922051 0.757797 -0.081823
C8    C     C_R   0.310668 0.861237 0.673418 -0.154614
C9    C     C_R   0.397299 0.929161 0.587958 0.073903
C10   C     C_R   0.396858 0.060414 0.586700 0.111593
C11   C     C_R   0.482367 0.128146 0.499492 -0.111596
C12   C     C_R   0.260048 0.498735 0.500170 0.743753
C13   C     C_R   0.559171 0.067043 0.408241 -0.204558
C14   C     C_R   0.557877 0.939296 0.407394 -0.113863
C15   C     C_R   0.481493 0.870075 0.499657 -0.103995
C16   C     C_R   0.666398 0.665580 0.144170 -0.154098
C17   C     C_R   0.747792 0.746632 0.072067 -0.225789
C18   C     C_R   0.747664 0.746751 0.928560 -0.195576
C19   C     C_R   0.666179 0.665773 0.856347 -0.132722
C20   C     C_R   0.581767 0.581423 0.925375 0.190097
C21   C     C_R   0.581803 0.581354 0.074865 0.207109
C22   C     C_R   0.421836 0.422749 0.073824 -0.058884
C23   C     C_R   0.492010 0.736666 0.500003 0.855404
C24   C     C_R   0.421836 0.422823 0.925964 -0.058681
C25   C     C_R   0.740244 0.502423 0.500238 0.833144
C26   C     C_3   0.072275 0.509683 0.651984 -0.354959
C27   C     C_3   0.929661 0.505091 0.652701 -0.331644
C28   C     C_3   0.081562 0.613490 0.416126 -0.385742
C29   C     C_3   0.064018 0.380392 0.433283 -0.391531
C30   C     C_3   0.122344 0.500369 0.500587 0.081820
Cu1   Cu    Cu3+1 0.499990 0.499990 0.640660 0.934947
Cu2   Cu    Cu3+1 0.500010 0.500010 0.359340 0.938919
H1    H     H_    0.109010 0.597775 0.701055 0.200867
H2    H     H_    0.889187 0.382775 0.318424 0.180344
H3    H     H_    0.111662 0.605313 0.305748 0.144463
H4    H     H_    0.903069 0.616214 0.311348 0.071092
H5    H     H_    0.622940 0.118721 0.339460 0.160981
H6    H     H_    0.298989 0.218735 0.665124 0.133206
H7    H     H_    0.159258 0.097362 0.817310 0.126634
H8    H     H_    0.163276 0.868834 0.823751 0.148277
H9    H     H_    0.303486 0.761034 0.674381 0.146691
H10   H     H_    0.620220 0.894434 0.337209 0.183384
H11   H     H_    0.357725 0.359411 0.128908 0.134181
H12   H     H_    0.104216 0.431650 0.716331 0.159032
H13   H     H_    0.673850 0.673170 0.253950 0.223560
H14   H     H_    0.811338 0.809953 0.128221 0.196696
H15   H     H_    0.811102 0.810168 0.872514 0.181862
H16   H     H_    0.673416 0.673201 0.746689 0.240084
H17   H     H_    0.894093 0.419369 0.707598 0.164836
H18   H     H_    0.897030 0.584862 0.713055 0.223562
H19   H     H_    0.130090 0.699627 0.457443 0.206233
H20   H     H_    0.100115 0.369401 0.325633 0.175774
H21   H     H_    0.090032 0.297971 0.494280 0.174851
H22   H     H_    0.877554 0.301502 0.481029 0.187058
N1    N     N_R   0.501200 0.501210 0.147910 -0.201005
N2    N     N_R   0.501250 0.501290 0.852040 -0.202723
O1    O     O_R   0.499990 0.319640 0.618810 -0.579034
O2    O     O_R   0.500000 0.319660 0.381240 -0.578049
O3    O     O_R   0.317680 0.499970 0.618790 -0.606056
O4    O     O_R   0.317700 0.499990 0.381210 -0.585150
O5    O     O_R   0.500000 0.680340 0.618760 -0.594819
O6    O     O_R   0.500010 0.680360 0.381190 -0.596456
O7    O     O_R   0.682300 0.500010 0.618790 -0.594790
O8    O     O_R   0.682320 0.500030 0.381210 -0.608634
H23   H     H_    0.357628 0.359630 0.870826 0.127001
S1    S     S_3+6 0.898926 0.769401 0.488377 -0.082262
O9    O     O_2   0.935123 0.867583 0.382675 -0.319615
O10   O     O_2   0.762019 0.771378 0.515686 -0.376843
O11   O     O_3   0.976504 0.801419 0.637114 -0.588929
H24   H     H_    0.954334 0.886408 0.662466 0.369576

loop_
_geom_bond_atom_site_label_1
_geom_bond_atom_site_label_2
_ccdc_geom_bond_type
C16   H13   S    
S1    O10   D    
C7    H8    S    
C6    C7    A    
C6    H7    S    
C22   H11   S    
Cu1   N2    S    
C24   N2    A    
C29   C30   S    
C9    C10   A    
Cu1   O5    S    
C26   H1    S    
C2    C4    S    
C4    C29   S    
C1    C11   S    
C27   H18   S    
Cu2   O2    S    
C20   N2    A    
C2    C27   S    
C12   C30   S    
C18   H15   S    
Cu1   O1    S    
C19   C20   A    
C15   C23   S    
C17   C18   A    
C9    C15   A    
C22   N1    A    
Cu2   O6    S    
C5    C10   A    
Cu1   Cu2   S    
C14   H10   S    
C8    H9    S    
C11   C13   A    
C26   C27   S    
C16   C21   A    
C29   H21   S    
C3    H4    S    
C5    C6    A    
C24   H23   S    
C28   C30   S    
C3    C28   S    
C26   C30   S    
C2    C25   S    
C2    C3    S    
C4    H2    S    
O11   H24   S    
C28   H19   S    
C22   C24   A    
S1    O11   S    
C10   C11   A    
Cu2   O4    S    
C26   H12   S    
C3    S1    S    
Cu1   O7    S    
C7    C8    A    
C5    H6    S    
C17   H14   S    
Cu2   O8    S    
C18   C19   A    
C25   O7    A    
C23   O5    A    
Cu1   O3    S    
S1    O9    D    
C21   N1    A    
C1    O1    A    
C14   C15   A    
C16   C17   A    
Cu2   N1    S    
C13   C14   A    
C4    H22   S    
C20   C21   A    
C1    O2    A    
C12   O3    A    
C13   H5    S    
C25   O8    A    
C23   O6    A    
C27   H17   S    
C28   H3    S    
C19   H16   S    
C8    C9    A    
C29   H20   S    
C12   O4    A    
