data_mof_unit_11197.cif
_audit_creation_date              2012-12-11T16:04:59-0500
_audit_creation_method            fapswitch 2.2
_symmetry_space_group_name_H-M    P1
_symmetry_Int_Tables_number       1
_space_group_crystal_system       triclinic
_cell_length_a                    10.672862
_cell_length_b                    10.642694
_cell_length_c                    16.896925
_cell_angle_alpha                 98.596556
_cell_angle_beta                  98.778932
_cell_angle_gamma                 61.756004
_cell_volume                      1664.37910179

loop_
_atom_site_label
_atom_site_type_symbol
_atom_type_description
_atom_site_fract_x
_atom_site_fract_y
_atom_site_fract_z
_atom_type_partial_charge
C1    C     C_R   0.354351 0.775440 0.399109 0.575221
C2    C     C_3   0.679494 0.430061 0.251282 -0.175372
C3    C     C_3   0.802518 0.361122 0.317626 0.031081
C4    C     C_3   0.864254 0.218718 0.266237 -0.137876
C5    C     C_3   0.957657 0.270041 0.232249 -0.138586
C6    C     C_3   0.893471 0.412855 0.283836 0.052542
C7    C     C_3   0.774200 0.478906 0.217015 0.033534
C8    C     C_3   0.836735 0.335858 0.165751 0.024023
C9    C     C_3   0.382293 0.761451 0.200728 -0.100812
C10   C     C_3   0.264986 0.779087 0.250189 -0.136437
C11   C     C_3   0.335856 0.832771 0.323841 0.029431
C12   C     C_R   0.405595 0.373920 0.357232 0.566733
C13   C     C_3   0.454424 0.814164 0.275529 -0.125534
C14   C     C_3   0.362681 0.971243 0.254517 -0.125391
C15   C     C_3   0.245603 0.986582 0.304495 0.038960
C16   C     C_3   0.172357 0.934852 0.230229 -0.142862
C17   C     C_3   0.290725 0.917025 0.181154 0.026034
C18   C     C_3   0.456861 0.278551 0.778291 -0.145541
C19   C     C_3   0.379914 0.415047 0.732580 -0.155787
C20   C     C_3   0.336537 0.329027 0.661546 0.018951
C21   C     C_3   0.412351 0.194875 0.707343 0.064585
C22   C     C_3   0.271331 0.237983 0.742223 -0.147067
C23   C     C_R   0.772887 0.379697 0.400277 0.573042
C24   C     C_3   0.194773 0.374289 0.695741 -0.148509
C25   C     C_3   0.238993 0.457479 0.767664 0.055025
C26   C     C_3   0.315932 0.323095 0.812951 0.025024
C27   C     C_1   0.817590 0.341722 0.709544 -0.028408
C28   C     C_1   0.843679 0.314886 0.778120 -0.028434
C29   C     C_1   0.338400 0.812292 0.709759 0.002747
C30   C     C_1   0.313181 0.839342 0.778524 0.002401
C31   C     C_R   0.885394 0.313595 0.087567 0.558139
C32   C     C_R   0.321959 0.302259 0.119300 0.528868
C33   C     C_R   0.257592 0.958507 0.099335 0.557576
C34   C     C_R   0.356672 0.771730 0.627136 0.568700
C35   C     C_R   0.884370 0.299604 0.861016 0.544599
C36   C     C_R   0.307876 0.294709 0.892168 0.566701
C37   C     C_R   0.279951 0.884689 0.859062 0.572406
C38   C     C_R   0.366695 0.344293 0.584270 0.605932
C39   C     C_R   0.774481 0.379390 0.629498 0.542136
C40   C     C_1   0.374658 0.361402 0.272449 -0.016497
C41   C     C_1   0.349624 0.342928 0.201375 -0.030478
C42   C     C_3   0.743659 0.285395 0.198567 -0.153591
Cr1   Cr    Cr6+3 0.608340 0.611040 0.520430 1.059146
Cr2   Cr    Cr6+3 0.287650 0.601120 0.489350 1.072883
Cr3   Cr    Cr6+3 0.604040 0.287870 0.490280 1.076739
Cr4   Cr    Cr6+3 0.054020 0.052700 0.970850 1.038208
Cr5   Cr    Cr6+3 0.059230 0.375120 0.993390 1.098847
Cr6   Cr    Cr6+3 0.374950 0.061200 0.992340 1.065559
H1    H     H_    0.565626 0.494998 0.262747 0.089206
H2    H     H_    0.401912 0.050736 0.253699 0.152227
H3    H     H_    0.424333 0.488860 0.727437 0.118039
H4    H     H_    0.563440 0.241305 0.812950 0.144693
H5    H     H_    0.088573 0.411572 0.660688 0.151913
H6    H     H_    0.682072 0.234258 0.161480 0.141645
H7    H     H_    0.896251 0.115480 0.290547 0.168236
H8    H     H_    0.225720 0.699115 0.249632 0.161230
H9    H     H_    0.567339 0.765964 0.301119 0.172661
O1    O     O_R   0.751220 0.499230 0.435170 -0.478980
O2    O     O_R   0.297880 0.469080 0.560050 -0.499864
O3    O     O_R   0.489720 0.254590 0.564810 -0.458294
O4    O     O_R   0.725220 0.304230 0.585080 -0.494139
O5    O     O_3   0.500010 0.500010 0.500020 -0.318966
O6    O     O_R   0.171830 0.913880 0.057510 -0.504553
O7    O     O_R   0.940690 0.186050 0.054730 -0.532002
O8    O     O_R   0.920470 0.405720 0.075010 -0.469523
O9    O     O_R   0.196690 0.370460 0.084120 -0.475035
O10   O     O_R   0.412990 0.180750 0.091610 -0.534484
O11   O     O_R   0.366620 0.943130 0.065760 -0.461465
O12   O     O_R   0.477220 0.727600 0.436870 -0.515243
O13   O     O_R   0.160510 0.906330 0.879210 -0.481524
O14   O     O_R   0.930190 0.179050 0.889450 -0.497416
O15   O     O_R   0.909140 0.398170 0.896710 -0.487887
O16   O     O_R   0.186190 0.363460 0.918830 -0.460842
O17   O     O_R   0.401670 0.173200 0.913310 -0.506565
O18   O     O_R   0.356120 0.936130 0.900470 -0.482194
O19   O     O_3   0.162740 0.163010 0.985530 -0.309492
O20   O     O_R   0.258650 0.745120 0.411470 -0.495679
O21   O     O_R   0.297070 0.467240 0.395960 -0.458939
O22   O     O_R   0.488830 0.252610 0.387790 -0.476389
O23   O     O_R   0.724400 0.302390 0.420980 -0.515089
O24   O     O_R   0.752100 0.501210 0.612190 -0.493040
O25   O     O_R   0.478040 0.729440 0.600970 -0.484320
O26   O     O_R   0.259530 0.747110 0.588490 -0.490385
C43   C     C_2   0.183286 0.101667 0.370875 0.560813
O27   O     O_2   0.219152 0.196633 0.385510 -0.480489
O28   O     O_R   0.089657 0.095971 0.417983 -0.694285
H10   H     H_    0.058704 0.176705 0.462523 0.344072
H11   H     H_    0.059858 0.974612 0.204849 0.135443
C44   C     C_2   0.506416 0.042839 0.677503 0.589651
O29   O     O_2   0.572357 0.953286 0.725852 -0.495826
O30   O     O_R   0.516707 0.003300 0.595206 -0.659077
H12   H     H_    0.587400 0.899167 0.583150 0.349954
H13   H     H_    0.226604 0.164668 0.747909 0.116501
C45   C     C_2   0.141460 0.606379 0.799691 0.592700
O31   O     O_2   0.084242 0.701740 0.754340 -0.487721
O32   O     O_R   0.115074 0.635545 0.880550 -0.668975
H14   H     H_    0.043441 0.738766 0.894114 0.351184
H15   H     H_    0.071320 0.213111 0.220022 0.111874
C46   C     C_2   0.981134 0.482045 0.328232 0.654516
O33   O     O_2   0.046234 0.517431 0.290286 -0.475763
O34   O     O_R   0.987696 0.506666 0.411928 -0.654003
H16   H     H_    0.043177 0.561440 0.434242 0.352603
C47   C     C_2   0.729983 0.618650 0.183017 0.577498
O35   O     O_2   0.656794 0.644875 0.118731 -0.512392
O36   O     O_R   0.776395 0.715894 0.223335 -0.675772
H17   H     H_    0.739782 0.805188 0.194194 0.340416
H18   H     H_    0.431459 0.668895 0.155953 0.170948

loop_
_geom_bond_atom_site_label_1
_geom_bond_atom_site_label_2
_ccdc_geom_bond_type
C23   O1    A    
Cr3   O3    S    
O34   H16   S    
C18   C21   S    
C1    O20   A    
Cr6   O19   S    
C3    C23   S    
C19   C20   S    
C1    C11   S    
C3    C6    S    
Cr4   O19   S    
C18   H4    S    
C7    C8    S    
C21   C44   S    
C21   C22   S    
Cr2   O20   S    
C8    C42   S    
Cr5   O19   S    
C5    C6    S    
C13   H9    S    
Cr2   O2    S    
C15   C16   S    
C12   O22   A    
Cr3   O5    S    
C18   C19   S    
C9    C13   S    
Cr1   O1    S    
C18   C26   S    
C11   C15   S    
C2    C7    S    
C28   C35   S    
C27   C39   S    
C16   C17   S    
C12   O21   A    
C32   C41   S    
C23   O23   A    
C44   O30   S    
C10   H8    S    
C9    C10   S    
Cr5   O9    S    
Cr2   O26   S    
C37   O18   A    
C35   O14   A    
C25   C45   S    
Cr1   O12   S    
C7    C47   S    
C13   C14   S    
Cr6   O18   S    
C17   C33   S    
C39   O4    A    
Cr6   O17   S    
C24   C25   S    
Cr5   O16   S    
C47   O36   S    
C36   O16   A    
O30   H12   S    
O28   H10   S    
Cr2   O5    S    
C24   H5    S    
C29   C34   S    
C1    O12   A    
C30   C37   S    
Cr4   O7    S    
C12   C40   S    
C29   C30   T    
C2    H1    S    
C20   C38   S    
C46   O33   D    
C33   O6    A    
O32   H14   S    
C20   C21   S    
Cr3   O22   S    
C43   O27   D    
C45   O32   S    
C39   O24   A    
Cr4   O14   S    
C15   C43   S    
C36   O17   A    
C32   O10   A    
C38   O3    A    
C9    C17   S    
C40   C41   T    
C46   O34   S    
C35   O15   A    
C4    H7    S    
Cr1   O24   S    
C22   H13   S    
C22   C24   S    
C34   O26   A    
C3    C4    S    
C47   O35   D    
C32   O9    A    
C26   C36   S    
C31   O8    A    
C8    C31   S    
C31   O7    A    
C43   O28   S    
C4    C5    S    
Cr6   O11   S    
C5    C8    S    
C6    C7    S    
C9    H18   S    
O36   H17   S    
Cr4   O6    S    
C6    C46   S    
Cr2   O21   S    
C2    C3    S    
C25   C26   S    
C10   C16   S    
C42   H6    S    
C11   C13   S    
C14   H2    S    
C4    C42   S    
C2    C42   S    
Cr3   O4    S    
Cr5   O8    S    
Cr3   O23   S    
Cr6   O10   S    
C45   O31   D    
C19   C25   S    
Cr5   O15   S    
Cr4   O13   S    
C10   C11   S    
C38   O2    A    
C19   H3    S    
C5    H15   S    
Cr1   O5    S    
C22   C26   S    
C27   C28   T    
C16   H11   S    
Cr1   O25   S    
C14   C15   S    
C34   O25   A    
C44   O29   D    
C37   O13   A    
C20   C24   S    
C33   O11   A    
C14   C17   S    
