data_mof_unit_56266.cif
_audit_creation_date              2012-12-11T15:55:55-0500
_audit_creation_method            fapswitch 2.2
_symmetry_space_group_name_H-M    P1
_symmetry_Int_Tables_number       1
_space_group_crystal_system       triclinic
_cell_length_a                    10.98796
_cell_length_b                    11.033564
_cell_length_c                    18.690641
_cell_angle_alpha                 90.636169
_cell_angle_beta                  90.341806
_cell_angle_gamma                 59.590156
_cell_volume                      1954.12562234

loop_
_atom_site_label
_atom_site_type_symbol
_atom_type_description
_atom_site_fract_x
_atom_site_fract_y
_atom_site_fract_z
_atom_type_partial_charge
C1    C     C_R   0.356038 0.777600 0.399236 0.538330
C2    C     C_R   0.226109 0.412237 0.210740 -0.159437
C3    C     C_R   0.221402 0.419383 0.285568 -0.027923
C4    C     C_R   0.379772 0.348129 0.391737 0.532899
C5    C     C_R   0.894025 0.739638 0.417331 -0.115321
C6    C     C_R   0.951809 0.598648 0.434002 -0.076268
C7    C     C_R   0.050985 0.495273 0.388470 -0.047774
C8    C     C_R   0.096318 0.531020 0.325667 0.057011
C9    C     C_R   0.337356 0.315214 0.323066 -0.015012
C10   C     C_R   0.923862 0.314266 0.190260 0.021493
C11   C     C_R   0.780753 0.393338 0.205127 0.033602
C12   C     C_R   0.605743 0.084225 0.188532 0.031048
C13   C     C_R   0.734124 0.414573 0.274422 -0.027567
C14   C     C_R   0.973631 0.279929 0.317026 -0.154828
C15   C     C_R   0.020908 0.269866 0.246738 -0.174071
C16   C     C_R   0.776086 0.379125 0.402725 0.537378
C17   C     C_3   0.657228 0.385093 0.177452 -0.130409
C18   C     C_3   0.598072 0.423381 0.253574 -0.280452
C19   C     C_R   0.828731 0.348266 0.330812 0.029645
C20   C     C_R   0.303417 0.929072 0.190027 0.009937
C21   C     C_R   0.428299 0.896477 0.226825 0.009821
C22   C     C_R   0.437934 0.871723 0.300557 0.002936
C23   C     C_R   0.343128 0.301196 0.173888 0.000399
C24   C     C_R   0.197017 0.927424 0.303829 -0.158669
C25   C     C_R   0.185885 0.957904 0.231243 -0.170940
C26   C     C_3   0.576784 0.775857 0.217596 -0.275512
C27   C     C_3   0.588791 0.762078 0.297604 -0.258791
C28   C     C_R   0.342153 0.772739 0.603353 0.542604
C29   C     C_R   0.328600 0.867590 0.337034 0.012878
C30   C     C_R   0.275657 0.273446 0.803019 0.014614
C31   C     C_R   0.390143 0.169402 0.764425 0.030905
C32   C     C_R   0.409683 0.187672 0.693781 0.029350
C33   C     C_R   0.189765 0.408333 0.692966 -0.168176
C34   C     C_R   0.437255 0.192538 0.288035 -0.154597
C35   C     C_R   0.169696 0.389304 0.765456 -0.158737
C36   C     C_3   0.545070 0.100137 0.780518 -0.266733
C37   C     C_3   0.566610 0.117333 0.702790 -0.270544
C38   C     C_R   0.317183 0.312772 0.658689 0.012402
C39   C     C_R   0.848146 0.316990 0.828817 0.015930
C40   C     C_R   0.368662 0.348948 0.595187 0.537879
C41   C     C_R   0.849529 0.425093 0.792048 0.032774
C42   C     C_R   0.844872 0.432314 0.719637 0.025552
C43   C     C_R   0.848856 0.211907 0.713498 -0.164724
C44   C     C_R   0.858889 0.203170 0.788638 -0.162904
C45   C     C_R   0.455966 0.189251 0.214204 -0.018953
C46   C     C_3   0.764368 0.579747 0.803506 -0.279582
C47   C     C_3   0.757100 0.589871 0.722982 -0.272414
C48   C     C_R   0.830392 0.333523 0.679224 0.019727
C49   C     C_R   0.293748 0.860362 0.821742 0.013525
C50   C     C_R   0.180852 0.869925 0.782975 0.029423
C51   C     C_R   0.187109 0.859212 0.709499 0.028539
C52   C     C_R   0.766359 0.375394 0.609251 0.543086
C53   C     C_R   0.404274 0.863114 0.709717 -0.167717
C54   C     C_R   0.402021 0.865124 0.784182 -0.164530
C55   C     C_3   0.111564 0.784294 0.789894 -0.280996
C56   C     C_R   0.037177 0.673912 0.309433 -0.073634
C57   C     C_3   0.118724 0.771136 0.709201 -0.267011
C58   C     C_R   0.305159 0.843452 0.672248 0.018002
C59   C     C_R   0.971241 0.291060 0.117811 0.526811
C60   C     C_R   0.324769 0.286197 0.096876 0.553552
C61   C     C_R   0.276523 0.955840 0.112884 0.549324
C62   C     C_R   0.885616 0.307526 0.903801 0.556429
C63   C     C_R   0.269707 0.254316 0.879873 0.564408
C64   C     C_R   0.890980 0.894911 0.148810 -0.092146
C65   C     C_R   0.274556 0.896199 0.897061 0.560795
C66   C     C_R   0.858860 0.974492 0.211190 -0.122449
C67   C     C_R   0.937101 0.777230 0.355700 -0.109457
C68   C     C_R   0.720197 0.066958 0.230882 -0.132629
C69   C     C_1   0.573588 0.490695 0.123313 0.201620
C70   C     C_R   0.642257 0.989110 0.130086 -0.067296
C71   C     C_R   0.781950 0.900974 0.108452 -0.132427
Cr1   Cr    Cr6+3 0.601740 0.606840 0.505840 0.987066
Cr2   Cr    Cr6+3 0.291500 0.601560 0.495070 1.014556
Cr3   Cr    Cr6+3 0.606780 0.291630 0.499130 0.996078
Cr4   Cr    Cr6+3 0.062440 0.063060 0.008240 1.014748
Cr5   Cr    Cr6+3 0.062950 0.375000 0.998920 1.006280
Cr6   Cr    Cr6+3 0.374550 0.061770 0.992470 0.991000
H1    H     H_    0.516787 0.106826 0.319592 0.140212
H2    H     H_    0.105884 0.939426 0.332153 0.129879
H3    H     H_    0.805567 0.830209 0.063292 0.105786
H4    H     H_    0.084845 0.005268 0.205527 0.141604
H5    H     H_    0.656704 0.797968 0.197588 0.149673
H6    H     H_    0.579802 0.685373 0.190915 0.168567
H7    H     H_    0.609129 0.660393 0.317459 0.182415
H8    H     H_    0.656492 0.799801 0.321706 0.149877
H9    H     H_    0.112303 0.502986 0.666241 0.118592
H10   H     H_    0.077486 0.469805 0.793095 0.135961
H11   H     H_    0.594330 0.988435 0.796007 0.123742
H12   H     H_    0.818218 0.820068 0.453037 0.094369
H13   H     H_    0.571950 0.164688 0.816160 0.161019
H14   H     H_    0.607347 0.189977 0.694957 0.164169
H15   H     H_    0.895169 0.887362 0.346317 0.101432
H16   H     H_    0.623597 0.015925 0.672934 0.126247
H17   H     H_    0.846461 0.129008 0.683153 0.123018
H18   H     H_    0.871723 0.110488 0.814894 0.132148
H19   H     H_    0.826392 0.623591 0.828115 0.138904
H20   H     H_    0.661132 0.612704 0.829246 0.144382
H21   H     H_    0.649202 0.628328 0.702422 0.173343
H22   H     H_    0.812948 0.641543 0.700756 0.124088
H23   H     H_    0.922830 0.569342 0.483363 0.126215
H24   H     H_    0.491645 0.861475 0.682309 0.124328
H25   H     H_    0.486253 0.868022 0.812559 0.132705
H26   H     H_    0.001937 0.846953 0.810566 0.132064
H27   H     H_    0.999723 0.822320 0.134442 0.133153
H28   H     H_    0.179134 0.682853 0.817528 0.148891
H29   H     H_    0.191421 0.661832 0.690733 0.166554
H30   H     H_    0.013207 0.824907 0.683177 0.124954
H31   H     H_    0.940291 0.960415 0.247306 0.092675
H32   H     H_    0.704829 0.121946 0.281036 0.115003
H33   H     H_    0.074749 0.704849 0.263749 0.103755
H34   H     H_    0.100926 0.387383 0.405518 0.083701
H35   H     H_    0.568319 0.965645 0.106077 0.182119
H36   H     H_    0.136105 0.491695 0.181389 0.138821
H37   H     H_    0.049296 0.232737 0.359935 0.105242
H38   H     H_    0.132847 0.219625 0.236211 0.116612
H39   H     H_    0.687635 0.277954 0.159096 0.154726
H40   H     H_    0.507031 0.532273 0.259495 0.137809
H41   H     H_    0.580554 0.345326 0.280358 0.147483
N1    N     N_1   0.507562 0.573241 0.080393 -0.267236
O1    O     O_R   0.748670 0.497520 0.427970 -0.530232
O2    O     O_R   0.417470 0.174910 0.067830 -0.536025
O3    O     O_R   0.375160 0.946380 0.070880 -0.510544
O4    O     O_R   0.476470 0.723930 0.429450 -0.508061
O5    O     O_R   0.160500 0.919670 0.926690 -0.505305
O6    O     O_R   0.933140 0.190380 0.936050 -0.499273
O7    O     O_R   0.909010 0.403210 0.925030 -0.518449
O8    O     O_R   0.179590 0.361290 0.918480 -0.498511
O9    O     O_R   0.391360 0.170840 0.907510 -0.515763
O10   O     O_R   0.350950 0.942600 0.922260 -0.516051
O11   O     O_3   0.166650 0.166610 0.999880 -0.307098
O12   O     O_R   0.300170 0.471020 0.567120 -0.512852
O13   O     O_R   0.264730 0.744140 0.416740 -0.511420
O14   O     O_R   0.309440 0.472410 0.418220 -0.484095
O15   O     O_R   0.501630 0.260530 0.414310 -0.536030
O16   O     O_R   0.727920 0.305730 0.428950 -0.503940
O17   O     O_R   0.738670 0.496020 0.588600 -0.532309
O18   O     O_R   0.467190 0.722540 0.578350 -0.511757
O19   O     O_R   0.254720 0.742640 0.577370 -0.523319
O20   O     O_R   0.491630 0.259030 0.574940 -0.522903
O21   O     O_R   0.718640 0.304340 0.577850 -0.509045
O22   O     O_3   0.500010 0.500010 0.500020 -0.240512
O23   O     O_R   0.186620 0.923750 0.087000 -0.507199
O24   O     O_R   0.957350 0.194160 0.084660 -0.508354
O25   O     O_R   0.935120 0.407280 0.085350 -0.503492
O26   O     O_R   0.203800 0.365060 0.067090 -0.510186

loop_
_geom_bond_atom_site_label_1
_geom_bond_atom_site_label_2
_ccdc_geom_bond_type
C66   C68   A    
C21   C26   S    
Cr2   O12   S    
C17   C69   S    
C26   H6    S    
C23   C45   A    
C22   C29   A    
Cr5   O7    S    
C41   C42   A    
C5    C67   A    
C1    O13   A    
C8    C56   A    
C7    C8    A    
C39   C41   A    
Cr2   O22   S    
C53   C54   A    
C36   H11   S    
C12   C68   A    
C26   C27   S    
C47   H21   S    
C49   C65   S    
C13   C18   S    
C55   H28   S    
C36   C37   S    
C10   C15   A    
C16   O1    A    
C30   C31   A    
C2    H36   S    
Cr1   O17   S    
C20   C25   A    
C49   C54   A    
C40   O20   A    
C55   H26   S    
C43   H17   S    
C47   H22   S    
C27   H7    S    
C64   C71   A    
C51   C58   A    
C20   C61   S    
C27   H8    S    
C24   C29   A    
Cr6   O3    S    
C52   O21   A    
C35   H10   S    
C53   H24   S    
C41   C46   S    
C70   C71   A    
C51   C57   S    
C32   C38   A    
C43   C48   A    
C18   H41   S    
C63   O9    A    
Cr4   O11   S    
Cr6   O11   S    
C57   H29   S    
Cr2   O13   S    
C59   O24   A    
C26   H5    S    
C21   C22   A    
C25   H4    S    
C23   C60   S    
Cr5   O11   S    
C56   H33   S    
C71   H3    S    
C50   C51   A    
Cr1   O22   S    
C37   H14   S    
Cr4   O5    S    
C28   O19   A    
C24   C25   A    
C3    C8    S    
C62   O7    A    
C13   C19   A    
C42   C48   A    
C14   H37   S    
Cr3   O21   S    
C69   N1    T    
C61   O3    A    
Cr4   O6    S    
C6    H23   S    
C43   C44   A    
C1    O4    A    
C3    C9    A    
Cr4   O23   S    
C46   H20   S    
C24   H2    S    
C31   C32   A    
Cr3   O16   S    
Cr1   O1    S    
C1    C29   S    
C17   C18   S    
C37   H16   S    
C34   C45   A    
Cr6   O10   S    
C32   C37   S    
C18   H40   S    
C6    C7    A    
Cr6   O9    S    
Cr4   O24   S    
Cr5   O25   S    
Cr1   O18   S    
C57   H30   S    
Cr3   O22   S    
Cr2   O14   S    
C59   O25   A    
C22   C27   S    
C55   C57   S    
Cr1   O4    S    
C9    C34   A    
C52   O17   A    
C15   H38   S    
C60   O26   A    
C4    O15   A    
C36   H13   S    
C64   H27   S    
C39   C62   S    
C12   C70   A    
C46   C47   S    
C11   C17   S    
C14   C15   A    
C14   C19   A    
C54   H25   S    
C28   O18   A    
C50   C55   S    
C66   H31   S    
C12   C45   S    
Cr5   O26   S    
C62   O6    A    
C65   O10   A    
C53   C58   A    
C39   C44   A    
C40   O12   A    
C28   C58   S    
C56   C67   A    
C30   C35   A    
Cr3   O20   S    
C33   C38   A    
C2    C3    A    
C44   H18   S    
C34   H1    S    
C38   C40   S    
C11   C13   A    
C5    C6    A    
C16   C19   S    
Cr3   O15   S    
C67   H15   S    
C33   C35   A    
C7    H34   S    
C10   C59   S    
C68   H32   S    
C60   O2    A    
C70   H35   S    
C63   O8    A    
Cr6   O2    S    
C10   C11   A    
C65   O5    A    
C61   O23   A    
C48   C52   S    
C42   C47   S    
C46   H19   S    
C20   C21   A    
C49   C50   A    
Cr2   O19   S    
C2    C23   A    
Cr5   O8    S    
C31   C36   S    
C4    C9    S    
C30   C63   S    
C16   O16   A    
C33   H9    S    
C5    H12   S    
C17   H39   S    
C64   C66   A    
C4    O14   A    
