data_mof_unit_35589.cif
_audit_creation_date              2012-12-11T16:44:10-0500
_audit_creation_method            fapswitch 2.2
_symmetry_space_group_name_H-M    P1
_symmetry_Int_Tables_number       1
_space_group_crystal_system       triclinic
_cell_length_a                    27.021591
_cell_length_b                    7.197255
_cell_length_c                    22.899861
_cell_angle_alpha                 90.001463
_cell_angle_beta                  101.864617
_cell_angle_gamma                 89.995912
_cell_volume                      4358.44832339

loop_
_atom_site_label
_atom_site_type_symbol
_atom_type_description
_atom_site_fract_x
_atom_site_fract_y
_atom_site_fract_z
_atom_type_partial_charge
O1    O     O_R   0.707300 0.594030 0.176840 -0.530434
O2    O     O_R   0.292700 0.405970 0.823160 -0.530434
O3    O     O_R   0.792700 0.094030 0.323160 -0.530471
O4    O     O_R   0.207300 0.905970 0.676840 -0.530471
O5    O     O_R   0.697330 0.262360 0.295660 -0.540590
O6    O     O_R   0.302670 0.737640 0.704340 -0.540590
O7    O     O_R   0.802670 0.762360 0.204340 -0.540581
O8    O     O_R   0.197330 0.237640 0.795660 -0.540582
C1    C     C_R   0.684925 0.432434 0.311958 0.677097
C2    C     C_R   0.315075 0.567566 0.688042 0.677098
C3    C     C_R   0.815076 0.932425 0.188042 0.677125
C4    C     C_R   0.184924 0.067575 0.811958 0.677124
O9    O     O_R   0.701410 0.264250 0.175600 -0.533550
O10   O     O_R   0.298590 0.735750 0.824400 -0.533550
O11   O     O_R   0.798590 0.764250 0.324400 -0.533519
O12   O     O_R   0.201410 0.235750 0.675600 -0.533519
O13   O     O_R   0.796800 0.094950 0.202240 -0.539100
O14   O     O_R   0.203200 0.905050 0.797760 -0.539100
O15   O     O_R   0.703200 0.594950 0.297760 -0.539102
O16   O     O_R   0.296800 0.405050 0.702240 -0.539102
C5    C     C_R   0.689743 0.432732 0.153305 0.707386
C6    C     C_R   0.310257 0.567268 0.846695 0.707386
C7    C     C_R   0.810254 0.932721 0.346699 0.707368
C8    C     C_R   0.189746 0.067279 0.653301 0.707368
O17   O     O_3   0.781290 0.427390 0.258880 -0.372846
O18   O     O_3   0.218710 0.572610 0.741120 -0.372846
O19   O     O_3   0.718710 0.927390 0.241120 -0.372841
O20   O     O_3   0.281290 0.072610 0.758880 -0.372841
V1    V     V_3+5 0.744190 0.152150 0.248350 1.406516
V2    V     V_3+5 0.255810 0.847850 0.751650 1.406516
V3    V     V_3+5 0.755810 0.652150 0.251650 1.406549
V4    V     V_3+5 0.244190 0.347850 0.748350 1.406550
C9    C     C_R   0.156392 0.059695 0.593327 -0.083450
C10   C     C_R   0.843608 0.940305 0.406673 -0.083450
C11   C     C_R   0.343607 0.559590 0.906667 -0.083402
C12   C     C_R   0.656393 0.440409 0.093333 -0.083403
C13   C     C_R   0.143119 0.054369 0.484436 0.177510
C14   C     C_R   0.856881 0.945630 0.515564 0.177510
C15   C     C_R   0.356829 0.552685 0.015543 0.177506
C16   C     C_R   0.643170 0.447315 0.984456 0.177506
C17   C     C_R   0.176131 0.076697 0.541019 0.159044
C18   C     C_R   0.823869 0.923302 0.458981 0.159043
C19   C     C_R   0.323832 0.575596 0.958977 0.159045
C20   C     C_R   0.676168 0.424405 0.041022 0.159045
C21   C     C_R   0.104288 0.035414 0.588916 -0.271127
C22   C     C_R   0.895711 0.964587 0.411084 -0.271127
C23   C     C_R   0.395728 0.535821 0.911078 -0.271147
C24   C     C_R   0.604272 0.464179 0.088922 -0.271147
C25   C     C_R   0.069907 0.033554 0.533214 0.054662
C26   C     C_R   0.930093 0.966447 0.466786 0.054663
C27   C     C_R   0.430087 0.533428 0.966795 0.054652
C28   C     C_R   0.569913 0.466572 0.033205 0.054652
C29   C     C_R   0.090536 0.021676 0.481312 0.044428
C30   C     C_R   0.909465 0.978324 0.518687 0.044428
C31   C     C_R   0.409435 0.520488 0.018656 0.044400
C32   C     C_R   0.590565 0.479512 0.981344 0.044400
C33   C     C_R   0.015794 0.029377 0.527671 0.026804
C34   C     C_R   0.984206 0.970624 0.472328 0.026804
C35   C     C_R   0.484204 0.529676 0.972366 0.026799
C36   C     C_R   0.515795 0.470324 0.027634 0.026799
C37   C     C_R   0.008343 0.916175 0.425231 0.156784
C38   C     C_R   0.991657 0.083826 0.574769 0.156784
C39   C     C_R   0.491658 0.414878 0.074627 0.156714
C40   C     C_R   0.508342 0.585121 0.925373 0.156714
C41   C     C_R   0.058948 0.962673 0.427998 -0.197390
C42   C     C_R   0.941052 0.037327 0.572001 -0.197391
C43   C     C_R   0.441028 0.460922 0.071896 -0.197396
C44   C     C_R   0.558972 0.539077 0.928104 -0.197396
H1    H     H_    0.074567 0.932324 0.389175 0.146333
H2    H     H_    0.925433 0.067678 0.610824 0.146333
H3    H     H_    0.425404 0.429773 0.110658 0.146342
H4    H     H_    0.574596 0.570227 0.889342 0.146342
H5    H     H_    0.908638 0.988709 0.370191 0.138021
H6    H     H_    0.091362 0.011293 0.629809 0.138021
H7    H     H_    0.591312 0.487579 0.129834 0.137959
H8    H     H_    0.408688 0.512421 0.870166 0.137960
C45   C     C_R   0.866407 0.116901 0.128269 -0.157385
C46   C     C_R   0.133593 0.883099 0.871731 -0.157386
C47   C     C_R   0.633621 0.616910 0.371773 -0.157371
C48   C     C_R   0.366379 0.383090 0.628227 -0.157371
H9    H     H_    0.848735 0.243847 0.139068 0.124848
H10   H     H_    0.151265 0.756153 0.860932 0.124848
H11   H     H_    0.651312 0.743842 0.361005 0.124840
H12   H     H_    0.348688 0.256157 0.638995 0.124841
C49   C     C_R   0.902073 0.129490 0.092014 -0.147047
C50   C     C_R   0.097927 0.870510 0.907986 -0.147047
C51   C     C_R   0.597955 0.629501 0.408030 -0.147027
C52   C     C_R   0.402045 0.370499 0.591970 -0.147027
H13   H     H_    0.910230 0.264916 0.075673 0.101959
H14   H     H_    0.089770 0.735084 0.924326 0.101959
H15   H     H_    0.589819 0.764914 0.424403 0.101950
H16   H     H_    0.410181 0.235086 0.575597 0.101950
C53   C     C_R   0.926120 0.969595 0.076115 0.094292
C54   C     C_R   0.073880 0.030405 0.923884 0.094292
C55   C     C_R   0.573883 0.469621 0.423886 0.094305
C56   C     C_R   0.426117 0.530379 0.576114 0.094304
C57   C     C_R   0.913267 0.796219 0.097390 -0.144703
C58   C     C_R   0.086733 0.203781 0.902610 -0.144703
C59   C     C_R   0.586710 0.296261 0.402568 -0.144710
C60   C     C_R   0.413290 0.703739 0.597432 -0.144710
H17   H     H_    0.931408 0.670256 0.086636 0.100781
H18   H     H_    0.068592 0.329744 0.913364 0.100781
H19   H     H_    0.568549 0.170309 0.413286 0.100772
H20   H     H_    0.431450 0.829691 0.586714 0.100772
C61   C     C_R   0.877423 0.783414 0.133684 -0.162365
C62   C     C_R   0.122577 0.216586 0.866316 -0.162364
C63   C     C_R   0.622555 0.283455 0.366275 -0.162387
C64   C     C_R   0.377445 0.716545 0.633724 -0.162388
H21   H     H_    0.868622 0.647667 0.149229 0.122550
H22   H     H_    0.131378 0.352333 0.850770 0.122550
H23   H     H_    0.631334 0.147717 0.350696 0.122558
H24   H     H_    0.368666 0.852283 0.649303 0.122557
C65   C     C_R   0.853520 0.943783 0.149756 -0.049755
C66   C     C_R   0.146480 0.056217 0.850244 -0.049755
C67   C     C_R   0.646482 0.443806 0.350244 -0.049741
C68   C     C_R   0.353518 0.556193 0.649755 -0.049741
C69   C     C_R   0.966574 0.849640 0.993508 -0.151922
C70   C     C_R   0.033426 0.150360 0.006492 -0.151923
C71   C     C_R   0.533392 0.349526 0.506439 -0.151925
C72   C     C_R   0.466608 0.650474 0.493561 -0.151924
H25   H     H_    0.940512 0.733639 0.986861 0.109495
H26   H     H_    0.059487 0.266361 0.013139 0.109495
H27   H     H_    0.559426 0.233428 0.513047 0.109478
H28   H     H_    0.440574 0.766572 0.486953 0.109478
C73   C     C_R   0.001848 0.865061 0.956688 -0.152838
C74   C     C_R   0.998152 0.134938 0.043312 -0.152838
C75   C     C_R   0.498115 0.364928 0.543257 -0.152833
C76   C     C_R   0.501885 0.635072 0.456743 -0.152833
H29   H     H_    0.001956 0.760178 0.922824 0.108003
H30   H     H_    0.998044 0.239821 0.077176 0.108003
H31   H     H_    0.497979 0.259937 0.577080 0.107985
H32   H     H_    0.502020 0.740063 0.422920 0.107985
C77   C     C_R   0.035813 0.015577 0.962674 0.082297
C78   C     C_R   0.964187 0.984423 0.037326 0.082296
C79   C     C_R   0.464185 0.515558 0.537324 0.082314
C80   C     C_R   0.535815 0.484442 0.462675 0.082314
C81   C     C_3   0.767701 0.890460 0.454702 -0.782436
H33   H     H_    0.745490 0.882312 0.408403 0.193487
H34   H     H_    0.761914 0.756716 0.476509 0.210047
H35   H     H_    0.751386 0.006142 0.476718 0.210285
C82   C     C_3   0.232299 0.109537 0.545299 -0.782435
H36   H     H_    0.254510 0.117686 0.591597 0.193487
H37   H     H_    0.248615 0.993855 0.523282 0.210284
H38   H     H_    0.238087 0.243281 0.523491 0.210046
C83   C     C_3   0.732355 0.392006 0.045295 -0.782492
H39   H     H_    0.754539 0.383125 0.091592 0.193481
H40   H     H_    0.738208 0.258744 0.023250 0.210017
H41   H     H_    0.748644 0.508261 0.023511 0.210331
C84   C     C_3   0.267645 0.607994 0.954704 -0.782494
H42   H     H_    0.245461 0.616875 0.908408 0.193482
H43   H     H_    0.251356 0.491740 0.976489 0.210331
H44   H     H_    0.261792 0.741256 0.976750 0.210018
C85   C     C_3   0.163262 0.063349 0.427189 -0.805667
H45   H     H_    0.202676 0.113104 0.433104 0.220764
H46   H     H_    0.161774 0.923109 0.406718 0.205155
H47   H     H_    0.139966 0.161352 0.395460 0.206733
C86   C     C_3   0.836739 0.936648 0.572810 -0.805666
H48   H     H_    0.797324 0.886892 0.566896 0.220764
H49   H     H_    0.860035 0.838647 0.604540 0.206733
H50   H     H_    0.838226 0.076888 0.593282 0.205155
C87   C     C_3   0.336647 0.560459 0.072781 -0.805650
H51   H     H_    0.297198 0.609823 0.066917 0.220746
H52   H     H_    0.338210 0.419889 0.093035 0.205164
H53   H     H_    0.359868 0.658192 0.104676 0.206718
C88   C     C_3   0.663353 0.439542 0.927218 -0.805649
H54   H     H_    0.702802 0.390179 0.933083 0.220746
H55   H     H_    0.640132 0.341809 0.895324 0.206718
H56   H     H_    0.661790 0.580112 0.906965 0.205164
C89   C     C_3   0.985252 0.784534 0.375537 -0.797101
H57   H     H_    0.953323 0.704008 0.386350 0.221488
H58   H     H_    0.973368 0.861727 0.332985 0.202313
H59   H     H_    0.013587 0.678800 0.368942 0.210617
C90   C     C_3   0.014748 0.215468 0.624462 -0.797102
H60   H     H_    0.026632 0.138276 0.667014 0.202313
H61   H     H_    0.046677 0.295993 0.613649 0.221488
H62   H     H_    0.986413 0.321203 0.631057 0.210618
C91   C     C_3   0.514791 0.282653 0.124128 -0.796998
H63   H     H_    0.546769 0.202642 0.113210 0.221549
H64   H     H_    0.526622 0.359264 0.166800 0.202299
H65   H     H_    0.486501 0.176524 0.130539 0.210636
C92   C     C_3   0.485208 0.717347 0.875872 -0.796998
H66   H     H_    0.473378 0.640735 0.833200 0.202299
H67   H     H_    0.453231 0.797358 0.886790 0.221549
H68   H     H_    0.513499 0.823476 0.869461 0.210636

loop_
_geom_bond_atom_site_label_1
_geom_bond_atom_site_label_2
_ccdc_geom_bond_type
O17   V3    S    
C59   H19   S    
C52   C56   A    
O1    C5    A    
C86   H48   S    
C47   C67   A    
O19   V1    S    
C9    C21   A    
C89   H57   S    
C37   C89   S    
O3    C7    A    
C10   C18   A    
C60   H20   S    
C48   H12   S    
C11   C23   A    
C83   H41   S    
C47   C51   A    
C87   H51   S    
C25   C33   A    
C33   C38   A    
C5    C12   S    
C92   H66   S    
O7    C3    A    
C6    C11   S    
C81   H34   S    
C35   C40   A    
C88   H54   S    
C28   C36   A    
C62   C66   A    
C36   C39   A    
C40   C44   A    
C61   C65   A    
C75   C79   A    
C23   H8    S    
C14   C18   A    
C24   C28   A    
C51   H15   S    
C84   H43   S    
C62   H22   S    
O4    C8    A    
C55   C59   A    
C90   H62   S    
C43   H3    S    
C54   C58   A    
C73   C77   A    
O1    V3    S    
C54   C77   S    
O13   V1    S    
O2    V4    S    
C70   H26   S    
C32   C44   A    
O3    V1    S    
C69   H25   S    
C50   C54   A    
C83   H40   S    
C49   C53   A    
C1    O15   A    
C15   C31   A    
C48   C68   A    
C2    O16   A    
C16   C32   A    
C51   C55   A    
O2    C6    A    
C10   C22   A    
C45   H9    S    
C85   H46   S    
C11   C19   A    
C4    C66   S    
C19   C84   S    
C44   H4    S    
C13   C29   A    
C46   C50   A    
C34   C37   A    
O11   C7    A    
O15   V3    S    
C35   C36   A    
O12   C8    A    
C48   C52   A    
C18   C81   S    
C89   H58   S    
C24   H7    S    
C88   H55   S    
C46   C66   A    
O10   V2    S    
C45   C65   A    
C69   C78   A    
C76   H32   S    
C87   H52   S    
C83   H39   S    
C56   C79   S    
O5    V1    S    
C90   H61   S    
C92   H67   S    
C81   H35   S    
C39   C43   A    
C60   C64   A    
O7    V3    S    
C38   C42   A    
O8    V4    S    
C13   C85   S    
C53   C78   S    
C50   H14   S    
C82   H38   S    
C49   H13   S    
O18   V4    S    
C15   C19   A    
C91   H64   S    
C90   H60   S    
C38   C90   S    
O4    V2    S    
C64   H24   S    
C72   H28   S    
C21   H6    S    
C26   C34   A    
C17   C82   S    
C37   C41   A    
C46   H10   S    
C31   C43   A    
C14   C30   A    
C21   C25   A    
O8    C4    A    
C91   H65   S    
C20   C83   S    
O9    C5    A    
C52   H16   S    
C85   H47   S    
C63   C67   A    
C16   C88   S    
C70   C77   A    
O14   V2    S    
C40   C92   S    
O6    V2    S    
C76   C80   A    
C88   H56   S    
C89   H59   S    
C84   H44   S    
C15   C87   S    
C53   C57   A    
C87   H53   S    
C29   C41   A    
O16   V4    S    
C92   H68   S    
O9    V1    S    
C61   H21   S    
C3    O13   A    
C7    C10   S    
C63   H23   S    
C8    C9    S    
C14   C86   S    
O5    C1    A    
C39   C91   S    
O6    C2    A    
C23   C27   A    
C72   C76   A    
O11   V3    S    
C30   C42   A    
C1    C67   S    
C71   H27   S    
C86   H50   S    
O12   V4    S    
C59   C63   A    
C81   H33   S    
C22   C26   A    
C71   C80   A    
C58   C62   A    
C72   C79   A    
C9    C17   A    
O10   C6    A    
C82   H37   S    
C57   C61   A    
C26   C30   A    
C58   H18   S    
C82   H36   S    
C47   H11   S    
C64   C68   A    
C33   C34   A    
C42   H2    S    
C41   H1    S    
C56   C60   A    
O20   V2    S    
C55   C80   S    
C12   C24   A    
C27   C31   A    
C13   C17   A    
C3    C65   S    
C2    C68   S    
C75   H31   S    
C25   C29   A    
C12   C20   A    
C45   C49   A    
C73   H29   S    
C16   C20   A    
C27   C35   A    
C74   C78   A    
C86   H49   S    
C91   H63   S    
C4    O14   A    
C74   H30   S    
C70   C74   A    
C85   H45   S    
C84   H42   S    
C69   C73   A    
C22   H5    S    
C57   H17   S    
C28   C32   A    
C71   C75   A    
