data_mof_unit_48999.cif
_audit_creation_date              2012-12-11T14:50:34-0500
_audit_creation_method            fapswitch 2.2
_symmetry_space_group_name_H-M    P1
_symmetry_Int_Tables_number       1
_space_group_crystal_system       triclinic
_cell_length_a                    10.914223
_cell_length_b                    10.914113
_cell_length_c                    18.802332
_cell_angle_alpha                 89.898363
_cell_angle_beta                  89.590867
_cell_angle_gamma                 60.126847
_cell_volume                      1942.07197987

loop_
_atom_site_label
_atom_site_type_symbol
_atom_type_description
_atom_site_fract_x
_atom_site_fract_y
_atom_site_fract_z
_atom_type_partial_charge
C1    C     C_R   0.233011 0.648242 0.608751 0.569912
C2    C     C_R   0.549976 0.238404 0.797881 0.322778
C3    C     C_R   0.535846 0.236033 0.725234 0.507191
C4    C     C_R   0.652632 0.621107 0.601558 0.590235
C5    C     C_R   0.653226 0.193854 0.679732 0.015322
C6    C     C_R   0.171193 0.564836 0.718788 -0.054532
C7    C     C_R   0.164421 0.567753 0.792736 0.393500
C8    C     C_R   0.162586 0.680168 0.830387 0.019624
C9    C     C_R   0.170645 0.786883 0.792906 -0.224798
C10   C     C_R   0.175665 0.784409 0.719718 -0.188962
C11   C     C_R   0.181979 0.670320 0.682052 -0.040557
C12   C     C_3   0.675350 0.546878 0.801921 -0.288472
C13   C     C_R   0.697851 0.503277 0.264420 -0.098460
C14   C     C_R   0.707638 0.524624 0.192280 0.367134
C15   C     C_R   0.644045 0.662855 0.164902 0.031872
C16   C     C_R   0.625771 0.231759 0.604446 0.580502
C17   C     C_R   0.559265 0.777575 0.209674 -0.206223
C18   C     C_R   0.547685 0.755219 0.281842 -0.166358
C19   C     C_R   0.621049 0.617895 0.309954 -0.030715
C20   C     C_R   0.514788 0.221921 0.280451 -0.129908
C21   C     C_R   0.524198 0.208169 0.207837 -0.145649
C22   C     C_R   0.654326 0.161832 0.174856 0.056130
C23   C     C_3   0.697173 0.674548 0.812481 0.026291
C24   C     C_R   0.773891 0.135997 0.214716 -0.082351
C25   C     C_R   0.764664 0.148654 0.287671 -0.159050
C26   C     C_R   0.635219 0.191622 0.320651 0.028708
C27   C     C_R   0.233851 0.734647 0.282316 -0.130831
C28   C     C_R   0.226568 0.647591 0.399694 0.534987
C29   C     C_R   0.221597 0.732488 0.210140 -0.133108
C30   C     C_R   0.156400 0.662646 0.180812 0.030235
C31   C     C_R   0.119359 0.579934 0.223292 -0.138871
C32   C     C_R   0.137630 0.577131 0.296268 -0.143513
C33   C     C_R   0.189926 0.659169 0.325904 0.036593
C34   C     C_3   0.667163 0.646427 0.677037 0.022166
C35   C     C_R   0.701506 0.105085 0.897069 0.551556
C36   C     C_R   0.723241 0.688359 0.888160 0.550942
C37   C     C_R   0.114892 0.708354 0.904295 0.555418
C38   C     C_R   0.675035 0.107951 0.103569 0.553987
C39   C     C_R   0.693189 0.688260 0.096597 0.564045
C40   C     C_R   0.616027 0.590357 0.385891 0.557138
C41   C     C_R   0.095519 0.707062 0.111712 0.541134
C42   C     C_R   0.615067 0.232063 0.394163 0.537019
C43   C     C_3   0.565400 0.809890 0.783123 0.253396
C44   C     C_3   0.546607 0.792067 0.703523 -0.179483
C45   C     C_3   0.808693 0.642293 0.689186 -0.306323
C46   C     C_3   0.829570 0.650302 0.769250 -0.223103
C47   C     C_3   0.665224 0.525267 0.721515 0.090378
C48   C     C_R   0.787588 0.143413 0.709222 -0.213499
C49   C     C_R   0.804514 0.126915 0.782891 -0.189182
C50   C     C_R   0.685759 0.169909 0.827346 -0.042625
Cr1   Cr    Cr6+3 0.392930 0.397900 0.502230 1.059937
Cr2   Cr    Cr6+3 0.398240 0.708600 0.501260 1.025378
Cr3   Cr    Cr6+3 0.708800 0.393470 0.496460 1.026350
Cr4   Cr    Cr6+3 0.937620 0.938540 0.007640 1.043133
Cr5   Cr    Cr6+3 0.625150 0.937450 0.994520 1.077645
Cr6   Cr    Cr6+3 0.937990 0.625080 0.001190 1.103687
F1    F     F_    0.580694 0.927738 0.791849 -0.611355
F2    F     F_    0.404646 0.280477 0.699719 -0.587928
F3    F     F_    0.154859 0.463274 0.827040 -0.582495
F4    F     F_    0.786677 0.410546 0.150184 -0.635985
H1    H     H_    0.760202 0.423371 0.706529 0.185611
H2    H     H_    0.753624 0.397198 0.285291 0.144981
H3    H     H_    0.510165 0.885076 0.190136 0.147231
H4    H     H_    0.486056 0.845729 0.315902 0.147192
H5    H     H_    0.411709 0.259791 0.304684 0.146263
H6    H     H_    0.431471 0.228043 0.178006 0.135950
H7    H     H_    0.876532 0.099085 0.190181 0.172165
H8    H     H_    0.857058 0.128183 0.317970 0.126227
H9    H     H_    0.279593 0.794622 0.303782 0.141233
H10   H     H_    0.441160 0.802615 0.695114 0.106079
H11   H     H_    0.252889 0.794780 0.177777 0.138000
H12   H     H_    0.920982 0.548268 0.785627 0.198354
H13   H     H_    0.068486 0.525347 0.200927 0.151858
H14   H     H_    0.108710 0.514092 0.329427 0.129449
H15   H     H_    0.548035 0.878270 0.672411 0.176185
H16   H     H_    0.854410 0.735834 0.780118 0.165601
H17   H     H_    0.809104 0.732397 0.661555 0.132100
H18   H     H_    0.765379 0.449518 0.824577 0.140500
H19   H     H_    0.578567 0.564749 0.830980 0.112010
H20   H     H_    0.450035 0.328431 0.884898 0.310279
H21   H     H_    0.462374 0.592952 0.727671 0.330635
H22   H     H_    0.898627 0.543294 0.667302 0.133597
H23   H     H_    0.878987 0.113352 0.675395 0.138007
H24   H     H_    0.910069 0.074505 0.804634 0.157419
H25   H     H_    0.170492 0.479159 0.690335 0.201222
H26   H     H_    0.167294 0.876205 0.819803 0.155103
H27   H     H_    0.468821 0.828645 0.812709 0.126117
H28   H     H_    0.182203 0.869039 0.693051 0.156565
O1    O     O_R   0.507430 0.255570 0.581420 -0.444338
O2    O     O_R   0.837200 0.593290 0.915250 -0.501510
O3    O     O_R   0.065330 0.635370 0.931590 -0.437294
O4    O     O_R   0.280190 0.527390 0.578910 -0.467877
O5    O     O_R   0.068300 0.828790 0.091860 -0.525021
O6    O     O_R   0.798730 0.057480 0.079370 -0.497022
O7    O     O_R   0.584680 0.080480 0.076790 -0.531600
O8    O     O_R   0.626790 0.809640 0.067050 -0.527326
O9    O     O_R   0.816010 0.596460 0.076500 -0.449595
O10   O     O_R   0.045680 0.638310 0.081070 -0.509369
O11   O     O_3   0.833590 0.833690 0.001120 -0.279759
O12   O     O_R   0.524460 0.695920 0.424060 -0.507010
O13   O     O_R   0.260310 0.739740 0.584580 -0.522740
O14   O     O_R   0.532250 0.695150 0.573830 -0.490968
O15   O     O_R   0.744930 0.503430 0.576380 -0.515097
O16   O     O_R   0.699250 0.276390 0.571950 -0.501240
O17   O     O_R   0.499020 0.256400 0.419850 -0.531104
O18   O     O_R   0.272400 0.528160 0.429140 -0.514414
O19   O     O_R   0.251910 0.740570 0.423020 -0.536421
O20   O     O_3   0.429037 0.297989 0.839104 -0.560068
O21   O     O_3   0.546494 0.511800 0.706037 -0.703589
O22   O     O_R   0.736530 0.504260 0.414810 -0.515180
O23   O     O_R   0.691460 0.277160 0.422180 -0.528209
O24   O     O_3   0.499990 0.499990 0.499980 -0.265238
O25   O     O_R   0.089490 0.825610 0.930610 -0.537520
O26   O     O_R   0.818370 0.054540 0.929880 -0.509175
O27   O     O_R   0.605870 0.077310 0.915530 -0.430875
O28   O     O_R   0.646440 0.806700 0.917570 -0.456361

loop_
_geom_bond_atom_site_label_1
_geom_bond_atom_site_label_2
_ccdc_geom_bond_type
Cr3   O22   S    
C4    O15   A    
Cr1   O24   S    
C21   H6    S    
C27   C29   A    
C45   H22   S    
C1    C11   S    
Cr6   O10   S    
C43   C44   S    
C46   H16   S    
C7    C8    A    
C45   C46   S    
C27   C33   A    
C12   C23   S    
C10   H28   S    
C6    H25   S    
Cr5   O27   S    
C49   H24   S    
C32   H14   S    
C30   C31   A    
Cr1   O4    S    
C39   O9    A    
C37   O25   A    
Cr5   O28   S    
Cr2   O24   S    
Cr3   O16   S    
C22   C38   S    
Cr4   O25   S    
C23   C43   S    
C35   O26   A    
C18   C19   A    
Cr4   O5    S    
C2    C50   A    
C24   H7    S    
C16   O16   A    
Cr6   O3    S    
C41   O5    A    
C13   H2    S    
Cr2   O19   S    
C28   O18   A    
C8    C9    A    
C5    C16   S    
C12   H18   S    
C38   O7    A    
C30   C41   S    
C35   O27   A    
C9    C10   A    
C46   H12   S    
C27   H9    S    
Cr3   O23   S    
Cr6   O2    S    
C16   O1    A    
C23   C46   S    
C13   C14   A    
C25   H8    S    
Cr6   O9    S    
C12   C47   S    
C7    F3    S    
C5    C48   A    
C4    C34   S    
Cr2   O13   S    
C13   C19   A    
C20   H5    S    
C34   C44   S    
C24   C25   A    
Cr5   O7    S    
C10   C11   A    
C6    C11   A    
C37   O3    A    
C40   O22   A    
C25   C26   A    
C47   O21   S    
Cr2   O12   S    
C4    O14   A    
C44   H15   S    
C42   O23   A    
C40   O12   A    
C29   C30   A    
C9    H26   S    
C31   C32   A    
Cr1   O17   S    
Cr2   O14   S    
C38   O6    A    
C35   C50   S    
C17   C18   A    
C34   C45   S    
C44   H10   S    
C15   C39   S    
Cr3   O24   S    
C48   C49   A    
H21   O21   S    
C28   C33   S    
C23   C36   S    
C1    O4    A    
C22   C24   A    
Cr4   O11   S    
C8    C37   S    
C36   O28   A    
C1    O13   A    
C26   C42   S    
C36   O2    A    
C15   C17   A    
C14   C15   A    
Cr5   O8    S    
C3    C5    A    
C47   H1    S    
C6    C7    A    
C14   F4    S    
H20   O20   S    
C48   H23   S    
C43   H27   S    
C32   C33   A    
C2    C3    A    
C17   H3    S    
C18   H4    S    
C20   C26   A    
Cr3   O15   S    
Cr1   O18   S    
Cr4   O26   S    
C2    O20   S    
C42   O17   A    
C39   O8    A    
Cr4   O6    S    
C31   H13   S    
C19   C40   S    
C43   F1    S    
C3    F2    S    
C20   C21   A    
C49   C50   A    
Cr5   O11   S    
C41   O10   A    
C45   H17   S    
C34   C47   S    
C28   O19   A    
Cr6   O11   S    
C21   C22   A    
Cr1   O1    S    
C12   H19   S    
C29   H11   S    
