data_mof_unit_22570.cif
_audit_creation_date              2012-12-11T14:40:26-0500
_audit_creation_method            fapswitch 2.2
_symmetry_space_group_name_H-M    P1
_symmetry_Int_Tables_number       1
_space_group_crystal_system       triclinic
_cell_length_a                    19.523106
_cell_length_b                    10.976038
_cell_length_c                    19.439433
_cell_angle_alpha                 89.56429
_cell_angle_beta                  97.335607
_cell_angle_gamma                 90.516323
_cell_volume                      4131.25568966

loop_
_atom_site_label
_atom_site_type_symbol
_atom_type_description
_atom_site_fract_x
_atom_site_fract_y
_atom_site_fract_z
_atom_type_partial_charge
C1    C     C_R   0.726760 0.946308 0.358206 0.566530
C2    C     C_3   0.256375 0.389597 0.564770 0.042782
C3    C     C_3   0.231690 0.843959 0.440624 0.022108
C4    C     C_3   0.756375 0.889597 0.564770 0.042782
C5    C     C_3   0.735718 0.478651 0.463240 -0.103003
C6    C     C_3   0.299562 0.477429 0.524910 -0.078136
C7    C     C_3   0.235718 0.978651 0.463240 -0.103004
C8    C     C_3   0.799562 0.977429 0.524910 -0.078136
C9    C     C_3   0.800819 0.447178 0.514946 -0.160546
C10   C     C_3   0.231058 0.514834 0.480211 -0.088222
C11   C     C_3   0.300819 0.947178 0.514946 -0.160546
C12   C     C_R   0.274242 0.953059 0.639676 0.538889
C13   C     C_3   0.731058 0.014834 0.480211 -0.088223
C14   C     C_3   0.795480 0.313853 0.492719 0.127782
C15   C     C_3   0.189931 0.426351 0.520449 0.093366
C16   C     C_3   0.295480 0.813853 0.492719 0.127782
C17   C     C_3   0.689931 0.926351 0.520449 0.093366
C18   C     C_3   0.748337 0.283602 0.547338 0.091299
C19   C     C_3   0.199204 0.324622 0.470453 0.113421
C20   C     C_3   0.248337 0.783602 0.547338 0.091299
C21   C     C_3   0.699204 0.824622 0.470453 0.113420
C22   C     C_3   0.753249 0.414642 0.570144 0.060994
C23   C     C_R   0.226760 0.446308 0.358206 0.566530
C24   C     C_3   0.240951 0.411033 0.429556 0.079709
C25   C     C_3   0.253249 0.914642 0.570144 0.060994
C26   C     C_3   0.740950 0.911033 0.429556 0.079709
C27   C     C_3   0.451661 0.282910 0.985156 -0.113290
C28   C     C_3   0.423372 0.197529 0.038707 -0.136330
C29   C     C_3   0.951664 0.782912 0.985156 -0.113287
C30   C     C_3   0.923373 0.697536 0.038707 -0.136329
C31   C     C_3   0.526345 0.255741 0.016705 -0.103702
C32   C     C_3   0.426223 0.087925 0.989084 -0.134972
C33   C     C_3   0.026347 0.755736 0.016704 -0.103703
C34   C     C_R   0.774242 0.453059 0.639676 0.538889
C35   C     C_3   0.926220 0.587930 0.989085 -0.134973
C36   C     C_3   0.497787 0.170476 0.069484 0.050171
C37   C     C_3   0.455314 0.173721 0.937111 0.043838
C38   C     C_3   0.997787 0.670476 0.069484 0.050171
C39   C     C_3   0.955314 0.673721 0.937111 0.043837
C40   C     C_R   0.534797 0.179314 0.337533 0.538184
C41   C     C_R   0.438021 0.183305 0.651923 0.551555
C42   C     C_R   0.034797 0.679314 0.337533 0.538184
C43   C     C_R   0.938021 0.683305 0.651923 0.551555
C44   C     C_3   0.501296 0.060928 0.021565 -0.109635
C45   C     C_3   0.683086 0.311331 0.495716 -0.148575
C46   C     C_3   0.529582 0.146556 0.968249 -0.101557
C47   C     C_3   0.001292 0.560926 0.021566 -0.109635
C48   C     C_3   0.029581 0.646549 0.968250 -0.101557
C49   C     C_1   0.756560 0.407772 0.899291 -0.006959
C50   C     C_1   0.242937 0.409963 0.100418 -0.004728
C51   C     C_1   0.256560 0.907772 0.899291 -0.006959
C52   C     C_1   0.742937 0.909963 0.100418 -0.004729
C53   C     C_1   0.732796 0.356864 0.025315 -0.048336
C54   C     C_1   0.265888 0.359467 0.974415 -0.046742
C55   C     C_1   0.232796 0.856864 0.025315 -0.048337
C56   C     C_3   0.266538 0.283603 0.514365 -0.108050
C57   C     C_1   0.765888 0.859467 0.974415 -0.046742
C58   C     C_1   0.743530 0.381210 0.956340 -0.041707
C59   C     C_1   0.255449 0.384079 0.043305 -0.045426
C60   C     C_1   0.243530 0.881210 0.956340 -0.041707
C61   C     C_1   0.755449 0.884079 0.043305 -0.045427
C62   C     C_1   0.726623 0.337175 0.085156 -0.013806
C63   C     C_1   0.272240 0.338927 0.914837 -0.013562
C64   C     C_1   0.226623 0.837175 0.085156 -0.013807
C65   C     C_1   0.772240 0.838927 0.914837 -0.013561
C66   C     C_R   0.724529 0.310098 0.367721 0.556936
C67   C     C_3   0.183086 0.811331 0.495716 -0.148575
C68   C     C_R   0.261049 0.362573 0.637652 0.576703
C69   C     C_R   0.224529 0.810098 0.367721 0.556936
C70   C     C_R   0.761049 0.862573 0.637652 0.576703
C71   C     C_R   0.722797 0.950999 0.164534 0.542781
C72   C     C_R   0.277159 0.950573 0.835374 0.527572
C73   C     C_R   0.222797 0.450999 0.164534 0.542781
C74   C     C_R   0.777159 0.450573 0.835374 0.527572
C75   C     C_R   0.529611 0.178715 0.141104 0.540902
C76   C     C_R   0.435710 0.182093 0.862615 0.538429
C77   C     C_R   0.029611 0.678715 0.141103 0.540902
C78   C     C_3   0.766538 0.783602 0.514365 -0.108050
C79   C     C_R   0.935710 0.682093 0.862615 0.538430
C80   C     C_R   0.721790 0.310050 0.156434 0.560224
C81   C     C_R   0.277713 0.310469 0.844009 0.537696
C82   C     C_R   0.221790 0.810050 0.156434 0.560223
C83   C     C_R   0.777713 0.810469 0.844009 0.537696
C84   C     C_1   0.460453 0.174114 0.585341 -0.017707
C85   C     C_1   0.508866 0.168971 0.402455 -0.012172
C86   C     C_1   0.960453 0.674114 0.585341 -0.017708
C87   C     C_1   0.008866 0.668971 0.402455 -0.012172
C88   C     C_1   0.493155 0.164353 0.460043 -0.079583
C89   C     C_3   0.731690 0.343959 0.440624 0.022108
C90   C     C_1   0.476542 0.166649 0.528060 -0.077095
C91   C     C_1   0.993155 0.664353 0.460043 -0.079583
C92   C     C_1   0.976542 0.666649 0.528060 -0.077095
C93   C     C_3   0.689495 0.444636 0.519248 0.098899
C94   C     C_3   0.307203 0.374622 0.473584 0.046076
C95   C     C_3   0.189495 0.944637 0.519248 0.098899
C96   C     C_3   0.807203 0.874622 0.473584 0.046076
Cr1   Cr    Cr6+3 0.765830 0.160660 0.268180 1.044364
Cr2   Cr    Cr6+3 0.384070 0.324050 0.751550 1.017818
Cr3   Cr    Cr6+3 0.115930 0.824050 0.248450 1.036771
Cr4   Cr    Cr6+3 0.884070 0.824050 0.751550 1.017818
Cr5   Cr    Cr6+3 0.234170 0.160660 0.731820 1.039405
Cr6   Cr    Cr6+3 0.265830 0.660660 0.268180 1.044364
Cr7   Cr    Cr6+3 0.734170 0.660660 0.731820 1.039405
Cr8   Cr    Cr6+3 0.612110 0.009150 0.248770 1.016973
Cr9   Cr    Cr6+3 0.387890 0.009150 0.751230 1.026637
Cr10  Cr    Cr6+3 0.112110 0.509150 0.248770 1.016973
Cr11  Cr    Cr6+3 0.887890 0.509150 0.751230 1.026637
Cr12  Cr    Cr6+3 0.615930 0.324050 0.248450 1.036771
H1    H     H_    0.634633 0.256943 0.487747 0.106783
H2    H     H_    0.572699 0.126192 0.938117 0.135771
H3    H     H_    0.021850 0.469837 0.038014 0.138200
H4    H     H_    0.072697 0.626179 0.938118 0.135771
H5    H     H_    0.591608 0.505148 0.496073 0.234621
H6    H     H_    0.613569 0.469716 0.579757 0.238008
H7    H     H_    0.411175 0.364666 0.480307 0.242372
H8    H     H_    0.367178 0.260417 0.426977 0.235287
H9    H     H_    0.091608 0.005148 0.496073 0.234620
H10   H     H_    0.113569 0.969716 0.579757 0.238008
H11   H     H_    0.911175 0.864666 0.480307 0.242372
H12   H     H_    0.282809 0.191028 0.531782 0.111364
H13   H     H_    0.867178 0.760417 0.426977 0.235287
H14   H     H_    0.729993 0.557833 0.427250 0.168612
H15   H     H_    0.342813 0.534536 0.549481 0.157134
H16   H     H_    0.229993 0.057833 0.427250 0.168612
H17   H     H_    0.842813 0.034536 0.549481 0.157134
H18   H     H_    0.349446 0.001152 0.523860 0.109343
H19   H     H_    0.712729 0.102906 0.458977 0.123567
H20   H     H_    0.849446 0.501153 0.523860 0.109343
H21   H     H_    0.212729 0.602906 0.458977 0.123567
H22   H     H_    0.887230 0.234910 0.526396 0.222113
H23   H     H_    0.134633 0.756943 0.487747 0.106783
H24   H     H_    0.882220 0.292577 0.446384 0.250887
H25   H     H_    0.089017 0.473588 0.504283 0.228031
H26   H     H_    0.133311 0.535266 0.575310 0.244992
H27   H     H_    0.387230 0.734910 0.526396 0.222113
H28   H     H_    0.382220 0.792578 0.446384 0.250887
H29   H     H_    0.589017 0.973588 0.504283 0.228031
H30   H     H_    0.633311 0.035266 0.575310 0.244992
H31   H     H_    0.803178 0.191755 0.627383 0.247739
H32   H     H_    0.717742 0.197511 0.631473 0.228031
H33   H     H_    0.117342 0.217461 0.482574 0.271951
H34   H     H_    0.782809 0.691028 0.531782 0.111364
H35   H     H_    0.107332 0.296613 0.409934 0.250677
H36   H     H_    0.303178 0.691755 0.627383 0.247739
H37   H     H_    0.217742 0.697511 0.631473 0.228031
H38   H     H_    0.617342 0.717461 0.482574 0.271951
H39   H     H_    0.607332 0.796613 0.409934 0.250677
H40   H     H_    0.567845 0.325086 0.028702 0.132131
H41   H     H_    0.384765 0.019175 0.975725 0.125101
H42   H     H_    0.067850 0.825077 0.028702 0.132129
H43   H     H_    0.884760 0.519183 0.975726 0.125099
H44   H     H_    0.431186 0.374130 0.968851 0.134750
H45   H     H_    0.380680 0.217625 0.069388 0.126972
H46   H     H_    0.931193 0.874134 0.968850 0.134751
H47   H     H_    0.880682 0.717637 0.069388 0.126972
H48   H     H_    0.521857 0.969841 0.038013 0.138200
N1    N     N_3   0.631216 0.513549 0.537379 -0.600955
N2    N     N_3   0.143324 0.244262 0.441312 -0.608637
N3    N     N_3   0.254718 0.684449 0.597872 -0.648523
N4    N     N_3   0.643324 0.744262 0.441312 -0.608637
N5    N     N_3   0.369202 0.351564 0.442119 -0.608181
N6    N     N_3   0.131216 0.013549 0.537379 -0.600955
N7    N     N_3   0.869202 0.851564 0.442119 -0.608181
N8    N     N_3   0.854696 0.241797 0.479509 -0.592133
N9    N     N_3   0.125518 0.454699 0.547037 -0.599970
N10   N     N_3   0.354696 0.741797 0.479509 -0.592133
N11   N     N_3   0.625518 0.954699 0.547037 -0.599970
N12   N     N_3   0.754718 0.184449 0.597872 -0.648523
O1    O     O_R   0.783230 0.287800 0.346510 -0.490478
O2    O     O_R   0.454570 0.285140 0.836900 -0.505560
O3    O     O_R   0.045430 0.785140 0.163100 -0.519668
O4    O     O_R   0.954570 0.785140 0.836900 -0.505560
O5    O     O_R   0.677850 0.374730 0.185500 -0.482585
O6    O     O_R   0.322150 0.374730 0.814500 -0.502014
O7    O     O_R   0.177850 0.874730 0.185500 -0.482585
O8    O     O_R   0.822150 0.874730 0.814500 -0.502014
O9    O     O_3   0.664630 0.164620 0.255130 -0.307934
O10   O     O_3   0.335370 0.164620 0.744870 -0.322924
O11   O     O_3   0.164630 0.664620 0.255130 -0.307934
O12   O     O_R   0.216770 0.287800 0.653490 -0.471968
O13   O     O_3   0.835370 0.664620 0.744870 -0.322924
O14   O     O_R   0.760130 0.037060 0.338610 -0.492837
O15   O     O_R   0.239870 0.037060 0.661390 -0.489169
O16   O     O_R   0.260130 0.537060 0.338610 -0.492837
O17   O     O_R   0.739870 0.537060 0.661390 -0.489169
O18   O     O_R   0.666620 0.921370 0.332440 -0.526191
O19   O     O_R   0.333380 0.921370 0.667560 -0.529684
O20   O     O_R   0.166620 0.421370 0.332440 -0.526191
O21   O     O_R   0.833380 0.421370 0.667560 -0.529684
O22   O     O_R   0.557170 0.082420 0.312350 -0.503025
O23   O     O_R   0.283230 0.787800 0.346510 -0.490478
O24   O     O_R   0.442830 0.082420 0.687650 -0.475009
O25   O     O_R   0.057170 0.582420 0.312350 -0.503025
O26   O     O_R   0.942830 0.582420 0.687650 -0.475009
O27   O     O_R   0.548310 0.285980 0.316250 -0.504860
O28   O     O_R   0.451690 0.285980 0.683750 -0.499646
O29   O     O_R   0.048310 0.785980 0.316250 -0.504860
O30   O     O_R   0.951690 0.785980 0.683750 -0.499646
O31   O     O_R   0.680520 0.375500 0.327470 -0.488769
O32   O     O_R   0.319480 0.375500 0.672530 -0.521568
O33   O     O_R   0.180520 0.875500 0.327470 -0.488769
O34   O     O_R   0.716770 0.787800 0.653490 -0.471968
O35   O     O_R   0.819480 0.875500 0.672530 -0.521568
O36   O     O_R   0.780350 0.286970 0.193350 -0.495015
O37   O     O_R   0.219650 0.286970 0.806650 -0.488330
O38   O     O_R   0.280350 0.786970 0.193350 -0.495015
O39   O     O_R   0.719650 0.786970 0.806650 -0.488330
O40   O     O_R   0.757460 0.036290 0.196640 -0.510933
O41   O     O_R   0.242540 0.036290 0.803360 -0.511687
O42   O     O_R   0.257460 0.536290 0.196640 -0.510933
O43   O     O_R   0.742540 0.536290 0.803360 -0.511687
O44   O     O_R   0.663740 0.920540 0.179290 -0.503589
O45   O     O_R   0.554500 0.081650 0.170370 -0.502448
O46   O     O_R   0.336260 0.920540 0.820710 -0.512243
O47   O     O_R   0.163740 0.420540 0.179290 -0.503589
O48   O     O_R   0.836260 0.420540 0.820710 -0.512243
O49   O     O_R   0.445500 0.081650 0.829630 -0.482870
O50   O     O_R   0.054500 0.581650 0.170370 -0.502448
O51   O     O_R   0.945500 0.581650 0.829630 -0.482870
O52   O     O_R   0.545430 0.285140 0.163100 -0.519668

loop_
_geom_bond_atom_site_label_1
_geom_bond_atom_site_label_2
_ccdc_geom_bond_type
C19   C56   S    
C70   O34   A    
C72   O46   A    
C21   C26   S    
H32   N12   S    
C27   H44   S    
C53   C58   S    
C87   C91   T    
Cr4   O4    S    
C79   O4    A    
C31   C46   S    
C14   C18   S    
C66   O1    A    
C8    C96   S    
C82   O38   A    
C7    H16   S    
C4    C8    S    
C35   C47   S    
C69   O23   A    
C4    C70   S    
Cr1   O14   S    
C14   C89   S    
C80   O36   A    
C1    O18   A    
C56   C94   S    
Cr10  O47   S    
C5    C9    S    
C8    C13   S    
C76   O2    A    
C84   C90   T    
C30   C35   S    
C63   C81   S    
C43   O26   A    
C50   C59   T    
C62   C80   S    
C3    C69   S    
Cr7   O39   S    
Cr8   O45   S    
C41   O28   A    
C3    C7    S    
C10   C15   S    
C78   H34   S    
C23   O20   A    
Cr2   O6    S    
Cr4   O35   S    
C45   H1    S    
C9    C22   S    
C65   C83   S    
C12   O15   A    
H38   N4    S    
C20   C25   S    
C11   C25   S    
H13   N7    S    
C29   C33   S    
Cr2   O2    S    
Cr1   O1    S    
C30   C38   S    
Cr10  O50   S    
C11   C16   S    
Cr3   O11   S    
C16   N10   S    
C83   O39   A    
Cr5   O10   S    
C20   C67   S    
C15   C19   S    
Cr1   O9    S    
H10   N6    S    
Cr11  O48   S    
C47   C48   S    
C78   C96   S    
C8    H17   S    
C6    C94   S    
C20   N3    S    
Cr7   O17   S    
C21   C78   S    
Cr4   O8    S    
C23   C24   S    
Cr2   O10   S    
C45   C89   S    
Cr9   O10   S    
C31   C36   S    
C66   O31   A    
Cr5   O15   S    
C77   O3    A    
C45   C93   S    
C18   C22   S    
C55   C60   S    
Cr3   O33   S    
C67   C95   S    
Cr6   O11   S    
C56   H12   S    
Cr9   O24   S    
Cr11  O21   S    
C33   H42   S    
C2    C6    S    
C35   H43   S    
C6    H15   S    
H39   N4    S    
C19   N2    S    
C44   C46   S    
C7    C11   S    
C66   C89   S    
C54   C59   S    
C34   O21   A    
C55   C64   T    
C26   C96   S    
C69   O33   A    
C22   C34   S    
C67   H23   S    
C9    H20   S    
C32   H41   S    
C27   C31   S    
C44   H48   S    
H8    N5    S    
C28   C32   S    
C11   H18   S    
C17   N11   S    
C95   N6    S    
H11   N7    S    
C91   C92   S    
C18   N12   S    
Cr6   O42   S    
C10   C24   S    
C12   O19   A    
C5    H14   S    
C75   O45   A    
C17   C21   S    
C49   C58   T    
C34   O17   A    
H30   N11   S    
Cr12  O27   S    
C39   C79   S    
C40   C85   S    
H7    N5    S    
C42   O25   A    
C35   C39   S    
C9    C14   S    
H24   N8    S    
H6    N1    S    
C4    C78   S    
C29   C30   S    
C2    C15   S    
C36   C75   S    
C24   C94   S    
C53   C62   T    
C73   O42   A    
C79   O51   A    
Cr8   O9    S    
H5    N1    S    
C76   O49   A    
C16   C20   S    
Cr8   O22   S    
Cr12  O5    S    
Cr3   O29   S    
Cr6   O23   S    
C32   C44   S    
H26   N9    S    
Cr2   O28   S    
C32   C37   S    
C82   O7    A    
H36   N3    S    
C93   N1    S    
Cr4   O13   S    
Cr6   O38   S    
C94   N5    S    
C64   C82   S    
C38   C47   S    
Cr5   O37   S    
Cr11  O51   S    
C4    C17   S    
C30   H47   S    
C48   H4    S    
C37   C76   S    
Cr11  O13   S    
H25   N9    S    
C25   C95   S    
Cr9   O49   S    
C46   H2    S    
C28   H45   S    
C21   N4    S    
Cr10  O25   S    
C13   C26   S    
C36   C44   S    
C51   C72   S    
C31   H40   S    
Cr1   O36   S    
Cr7   O43   S    
C18   C45   S    
Cr10  O11   S    
H29   N11   S    
Cr8   O18   S    
H35   N2    S    
C81   O37   A    
C85   C88   T    
H22   N8    S    
C70   O35   A    
C71   O40   A    
Cr9   O46   S    
C41   O24   A    
C74   O48   A    
Cr7   O13   S    
C43   C86   S    
C42   O29   A    
C3    C67   S    
C88   C90   S    
C39   C48   S    
C52   C61   T    
C80   O5    A    
C5    C93   S    
C1    O14   A    
C57   C61   S    
C51   C60   T    
C38   C77   S    
C13   C17   S    
H9    N6    S    
C7    C95   S    
C74   O43   A    
C2    C68   S    
C33   C38   S    
C96   N7    S    
Cr2   O32   S    
C12   C25   S    
C68   O32   A    
Cr6   O16   S    
C81   O6    A    
Cr9   O19   S    
Cr12  O31   S    
C19   C24   S    
C10   H21   S    
Cr10  O20   S    
C23   O16   A    
Cr5   O12   S    
C86   C92   T    
Cr12  O52   S    
C41   C84   S    
C1    C26   S    
H28   N10   S    
C75   O52   A    
C27   C37   S    
C72   O41   A    
H37   N3    S    
C50   C73   S    
C22   C93   S    
H27   N10   S    
C68   O12   A    
Cr12  O9    S    
C43   O30   A    
C47   H3    S    
Cr1   O40   S    
C14   N8    S    
H31   N12   S    
C77   O50   A    
Cr7   O34   S    
Cr3   O7    S    
C6    C10   S    
C13   H19   S    
H33   N2    S    
C40   O22   A    
C29   C39   S    
C28   C36   S    
Cr5   O41   S    
C71   O44   A    
C54   C63   T    
C27   C28   S    
C52   C71   S    
C33   C48   S    
Cr8   O44   S    
C49   C74   S    
C73   O47   A    
C2    C56   S    
C42   C87   S    
C15   N9    S    
C37   C46   S    
C83   O8    A    
Cr11  O26   S    
C5    C89   S    
C3    C16   S    
Cr3   O3    S    
C29   H46   S    
C57   C65   T    
C40   O27   A    
Cr4   O30   S    
