data_mof_unit_60685.cif
_audit_creation_date              2012-12-10T17:56:47-0500
_audit_creation_method            fapswitch 2.2
_symmetry_space_group_name_H-M    P1
_symmetry_Int_Tables_number       1
_space_group_crystal_system       triclinic
_cell_length_a                    23.675824
_cell_length_b                    30.762184
_cell_length_c                    30.785237
_cell_angle_alpha                 90.010781
_cell_angle_beta                  90.06441
_cell_angle_gamma                 90.061713
_cell_volume                      22421.477906

loop_
_atom_site_label
_atom_site_type_symbol
_atom_type_description
_atom_site_fract_x
_atom_site_fract_y
_atom_site_fract_z
_atom_type_partial_charge
C1    C     C_R   0.498044 0.690590 0.309254 0.869518
C2    C     C_R   0.500347 0.588556 0.597314 -0.164991
C3    C     C_R   0.108067 0.749966 0.249968 0.810287
C4    C     C_R   0.391928 0.249954 0.750002 0.787558
C5    C     C_R   0.391933 0.249959 0.249973 0.865283
C6    C     C_R   0.608069 0.250169 0.749864 0.854822
C7    C     C_R   0.608069 0.250218 0.250225 0.862862
C8    C     C_3   0.584044 0.858244 0.075155 0.636005
C9    C     C_3   0.552889 0.942091 0.844044 0.669398
C10   C     C_3   0.927510 0.433005 0.146677 0.593005
C11   C     C_3   0.065614 0.437544 0.850851 0.625982
C12   C     C_3   0.926850 0.933787 0.646243 0.701941
C13   C     C_R   0.999510 0.088024 0.402170 -0.249070
C14   C     C_3   0.065100 0.937743 0.350557 0.695574
C15   C     C_3   0.563103 0.440695 0.655863 0.627323
C16   C     C_3   0.600203 0.411320 0.374562 0.658853
C17   C     C_3   0.580354 0.821061 0.108538 0.620240
C18   C     C_3   0.550391 0.908036 0.807594 0.688081
C19   C     C_3   0.929638 0.399540 0.183563 0.722718
C20   C     C_3   0.062821 0.404501 0.813333 0.641885
C21   C     C_3   0.928621 0.900541 0.683542 0.659629
C22   C     C_3   0.062535 0.904666 0.313138 0.666799
C23   C     C_3   0.561154 0.405474 0.691993 0.677305
C24   C     C_R   0.999242 0.088607 0.596880 -0.119477
C25   C     C_3   0.601031 0.376433 0.338714 0.610958
C26   C     C_R   0.500034 0.940056 0.940900 0.871572
C27   C     C_R   0.499906 0.941646 0.060611 0.909952
C28   C     C_R   0.999883 0.439396 0.941549 0.894871
C29   C     C_R   0.000082 0.439437 0.058582 0.857024
C30   C     C_R   0.999894 0.939410 0.441535 0.884197
C31   C     C_R   0.000097 0.939399 0.558509 0.837212
C32   C     C_R   0.499522 0.440191 0.440384 0.871145
C33   C     C_R   0.499926 0.440297 0.559132 0.875237
C34   C     C_R   0.500116 0.558695 0.439673 0.769867
C35   C     C_R   0.998401 0.589102 0.903485 -0.191704
C36   C     C_R   0.500128 0.558393 0.560755 0.800292
C37   C     C_R   0.999910 0.058216 0.439071 0.839043
C38   C     C_R   0.999942 0.058456 0.560555 0.804492
C39   C     C_R   0.999807 0.557969 0.938970 0.854488
C40   C     C_R   0.999882 0.558231 0.060983 0.842294
C41   C     C_R   0.500079 0.058469 0.939381 0.858659
C42   C     C_R   0.500086 0.058051 0.060998 0.875322
C43   C     C_R   0.498178 0.809328 0.190622 0.843220
C44   C     C_R   0.498312 0.809220 0.809428 0.854833
C45   C     C_R   0.001141 0.309239 0.190695 0.786897
C46   C     C_R   0.999209 0.588104 0.097950 -0.233481
C47   C     C_R   0.999075 0.309269 0.809372 0.890457
C48   C     C_R   0.000650 0.809245 0.690646 0.861349
C49   C     C_R   0.999059 0.809267 0.309377 0.856952
C50   C     C_R   0.497811 0.309215 0.690685 0.789269
C51   C     C_R   0.501736 0.309109 0.309189 0.924531
C52   C     C_1   0.331036 0.750178 0.249703 -0.117458
C53   C     C_1   0.331040 0.749940 0.749985 -0.100202
C54   C     C_1   0.668960 0.750045 0.250025 -0.108643
C55   C     C_1   0.668964 0.750231 0.750245 -0.088432
C56   C     C_1   0.831039 0.249993 0.249956 -0.105163
C57   C     C_R   0.500075 0.089005 0.903224 -0.182144
C58   C     C_1   0.831041 0.249996 0.749974 -0.110004
C59   C     C_1   0.168961 0.249984 0.250093 -0.099900
C60   C     C_1   0.168960 0.250280 0.750256 -0.108389
C61   C     C_1   0.831041 0.750009 0.749928 -0.108750
C62   C     C_1   0.831041 0.750027 0.250034 -0.100149
C63   C     C_1   0.168958 0.749951 0.750122 -0.089548
C64   C     C_1   0.168955 0.749955 0.249894 -0.104138
C65   C     C_1   0.331038 0.249944 0.749998 -0.121685
C66   C     C_1   0.331045 0.249949 0.249983 -0.084075
C67   C     C_1   0.668960 0.250198 0.749900 -0.087358
C68   C     C_R   0.500905 0.089950 0.095918 -0.135736
C69   C     C_1   0.668961 0.250220 0.250238 -0.063716
C70   C     C_1   0.279950 0.750101 0.249723 0.039187
C71   C     C_1   0.279952 0.749928 0.750035 0.048587
C72   C     C_1   0.720048 0.750032 0.250017 0.039396
C73   C     C_1   0.720050 0.750141 0.750157 0.042705
C74   C     C_1   0.779953 0.250036 0.250054 0.035194
C75   C     C_1   0.779953 0.250057 0.749956 0.042745
C76   C     C_1   0.220049 0.249968 0.250075 0.050394
C77   C     C_1   0.220045 0.250182 0.750185 0.035946
C78   C     C_1   0.779956 0.750040 0.750023 0.038768
C79   C     C_R   0.542450 0.621143 0.401961 -0.133307
C80   C     C_1   0.779955 0.750014 0.250015 0.036899
C81   C     C_1   0.220045 0.749933 0.750103 0.051661
C82   C     C_1   0.220043 0.750003 0.249805 0.049057
C83   C     C_1   0.279950 0.250031 0.750070 0.039465
C84   C     C_1   0.279957 0.249950 0.250020 0.047785
C85   C     C_1   0.720046 0.250146 0.749929 0.045844
C86   C     C_1   0.720047 0.250143 0.250176 0.044051
C87   C     C_R   0.539661 0.654182 0.371921 -0.132758
C88   C     C_R   0.454333 0.647530 0.634966 -0.083426
C89   C     C_R   0.046369 0.144954 0.362004 -0.051580
C90   C     C_R   0.453008 0.614367 0.604994 -0.158180
C91   C     C_R   0.959488 0.153187 0.628949 -0.152042
C92   C     C_R   0.043177 0.647704 0.865391 -0.084816
C93   C     C_R   0.046949 0.643511 0.139784 -0.047337
C94   C     C_R   0.458644 0.152785 0.870503 -0.118873
C95   C     C_R   0.463190 0.156606 0.125434 -0.038865
C96   C     C_R   0.496030 0.656478 0.341785 -0.155988
C97   C     C_R   0.503042 0.656811 0.658342 -0.226067
C98   C     C_R   0.996435 0.156394 0.341215 -0.268699
C99   C     C_R   0.003922 0.156429 0.658294 -0.137588
C100  C     C_R   0.995601 0.657168 0.841329 -0.199059
C101  C     C_R   0.047770 0.111930 0.392096 -0.037638
C102  C     C_R   0.996621 0.656485 0.158859 -0.261933
C103  C     C_R   0.503650 0.156808 0.841835 -0.169698
C104  C     C_R   0.504884 0.157768 0.157269 -0.237596
C105  C     C_R   0.457929 0.620870 0.338440 -0.076947
C106  C     C_R   0.549181 0.627527 0.656045 -0.070425
C107  C     C_R   0.948303 0.129198 0.346233 -0.074375
C108  C     C_R   0.042937 0.121426 0.661239 -0.075818
C109  C     C_R   0.946656 0.631057 0.847714 -0.085474
C110  C     C_R   0.947362 0.631073 0.152165 -0.072239
C111  C     C_R   0.545029 0.123516 0.840259 -0.075958
C112  C     C_R   0.500677 0.690676 0.690787 0.897697
C113  C     C_R   0.956965 0.119988 0.599057 -0.175342
C114  C     C_R   0.548360 0.126132 0.156971 -0.083308
C115  C     C_R   0.461181 0.586464 0.368948 0.370827
C116  C     C_R   0.547451 0.592747 0.625974 0.381263
C117  C     C_R   0.950785 0.093850 0.375627 0.392494
C118  C     C_R   0.039894 0.086877 0.630850 0.388112
C119  C     C_R   0.948848 0.595980 0.877743 0.380275
C120  C     C_R   0.949228 0.595915 0.122606 0.393858
C121  C     C_R   0.543015 0.089251 0.870812 0.377510
C122  C     C_R   0.545531 0.091425 0.126931 0.369740
C123  C     C_2   0.412614 0.620233 0.304987 0.940307
C124  C     C_R   0.044738 0.615223 0.894913 -0.093493
C125  C     C_2   0.600378 0.633623 0.683422 0.926075
C126  C     C_2   0.894313 0.137812 0.322894 0.894401
C127  C     C_2   0.088870 0.121538 0.694175 0.936928
C128  C     C_2   0.892914 0.639465 0.823972 0.890830
C129  C     C_2   0.893023 0.641335 0.174191 0.885367
C130  C     C_2   0.592370 0.125034 0.808534 0.940985
C131  C     C_2   0.596070 0.128231 0.188387 0.935197
C132  C     C_2   0.431492 0.955420 0.140113 0.954013
C133  C     C_2   0.429195 0.862248 0.954051 0.857997
C134  C     C_2   0.089737 0.370993 0.056846 1.000060
C135  C     C_R   0.048344 0.610275 0.109809 -0.135719
C136  C     C_2   0.914470 0.368597 0.945853 0.864310
C137  C     C_2   0.089754 0.871620 0.557317 0.915470
C138  C     C_2   0.915198 0.868227 0.446342 0.861040
C139  C     C_2   0.437016 0.359078 0.542310 1.005411
C140  C     C_2   0.390810 0.397778 0.412534 0.891455
C141  C     C_R   0.456916 0.119651 0.900654 0.020486
C142  C     C_R   0.461153 0.123320 0.095276 -0.101364
C143  C     C_3   0.567908 0.650161 0.436179 0.624240
C144  C     C_3   0.412827 0.638567 0.575668 0.653041
C145  C     C_3   0.092194 0.134106 0.419136 0.649274
C146  C     C_3   0.929617 0.148410 0.565163 0.671070
C147  C     C_3   0.104986 0.624177 0.907133 0.656516
C148  C     C_R   0.998488 0.190630 0.309153 0.896431
C149  C     C_3   0.094671 0.631878 0.084016 0.674896
C150  C     C_3   0.431523 0.148002 0.935036 0.606221
C151  C     C_3   0.397615 0.121211 0.096776 0.665118
C152  C     C_3   0.564015 0.687061 0.402726 0.773253
C153  C     C_3   0.414930 0.675699 0.609173 0.697936
C154  C     C_3   0.090580 0.171132 0.385415 0.619646
C155  C     C_3   0.932974 0.185502 0.598538 0.730907
C156  C     C_3   0.103232 0.661001 0.872504 0.604671
C157  C     C_3   0.092690 0.668904 0.117513 0.686333
C158  C     C_3   0.433153 0.184967 0.901462 0.630092
C159  C     C_R   0.001870 0.190589 0.690757 0.865155
C160  C     C_3   0.400078 0.158385 0.130118 0.590466
C161  C     C_R   0.521593 0.836774 0.118092 -0.102238
C162  C     C_R   0.535590 0.875704 0.842390 -0.225512
C163  C     C_R   0.957690 0.369409 0.151895 -0.149373
C164  C     C_R   0.040392 0.372525 0.845933 -0.134760
C165  C     C_R   0.957310 0.870310 0.652109 -0.236217
C166  C     C_R   0.040317 0.872593 0.345853 -0.243403
C167  C     C_R   0.524056 0.380306 0.661577 -0.100801
C168  C     C_R   0.549384 0.357706 0.359964 -0.121895
C169  C     C_R   0.492692 0.842287 0.157043 -0.177926
C170  C     C_R   0.998596 0.690753 0.809072 0.889815
C171  C     C_R   0.497371 0.841533 0.843672 -0.148270
C172  C     C_R   0.003600 0.341796 0.156915 -0.121706
C173  C     C_R   0.997569 0.341729 0.843403 -0.131680
C174  C     C_R   0.002133 0.841622 0.656636 -0.124536
C175  C     C_R   0.997593 0.841711 0.343431 -0.106410
C176  C     C_R   0.494022 0.342004 0.657180 -0.154060
C177  C     C_R   0.499568 0.341432 0.342706 -0.144261
C178  C     C_R   0.458772 0.880018 0.162492 0.356938
C179  C     C_R   0.465010 0.834928 0.881743 0.372686
C180  C     C_R   0.046338 0.341262 0.124551 0.379284
C181  C     C_R   0.998764 0.690659 0.190873 0.891550
C182  C     C_R   0.959089 0.337677 0.878178 0.354638
C183  C     C_R   0.043171 0.839220 0.623522 0.386704
C184  C     C_R   0.959331 0.837544 0.378343 0.367998
C185  C     C_R   0.463111 0.335605 0.617815 0.335577
C186  C     C_R   0.447663 0.351932 0.361921 0.346999
C187  C     C_R   0.462693 0.914269 0.131864 -0.090743
C188  C     C_R   0.465792 0.866997 0.915196 -0.114451
C189  C     C_R   0.044232 0.371763 0.090207 -0.173195
C190  C     C_R   0.958891 0.369556 0.911806 -0.145698
C191  C     C_R   0.043200 0.870939 0.589736 -0.223043
C192  C     C_R   0.501213 0.190661 0.809249 0.880525
C193  C     C_R   0.959201 0.869409 0.411988 -0.147074
C194  C     C_R   0.466499 0.367184 0.584192 -0.186509
C195  C     C_R   0.446160 0.384263 0.394977 -0.085071
C196  C     C_R   0.498536 0.909538 0.095103 -0.238262
C197  C     C_R   0.500675 0.904264 0.910154 -0.213920
C198  C     C_R   0.000155 0.403189 0.089089 -0.184123
C199  C     C_R   0.000001 0.403356 0.910944 -0.154589
C200  C     C_R   0.000028 0.903171 0.588994 -0.220993
C201  C     C_R   0.000052 0.903376 0.410928 -0.147110
C202  C     C_R   0.499065 0.405550 0.590541 -0.174557
C203  C     C_R   0.501058 0.190718 0.190704 0.906881
C204  C     C_R   0.497680 0.404771 0.408539 -0.229727
C205  C     C_R   0.524624 0.869722 0.087878 -0.005404
C206  C     C_R   0.537808 0.906106 0.875114 -0.012007
C207  C     C_R   0.955842 0.399483 0.118702 -0.019017
C208  C     C_R   0.042144 0.402228 0.879430 -0.052487
C209  C     C_R   0.955908 0.900080 0.618762 0.003549
C210  C     C_R   0.042020 0.902373 0.379272 -0.056725
C211  C     C_R   0.526869 0.410422 0.629725 -0.085932
C212  C     C_R   0.548475 0.388837 0.392078 -0.002667
C213  C     C_R   0.391930 0.750184 0.249774 0.820604
C214  C     C_R   0.500945 0.588984 0.403497 -0.150436
C215  C     C_R   0.391931 0.749956 0.749970 0.827992
C216  C     C_R   0.608070 0.750016 0.250007 0.836558
C217  C     C_R   0.608066 0.750252 0.750260 0.842385
C218  C     C_R   0.891928 0.250038 0.249924 0.832946
C219  C     C_R   0.891932 0.249971 0.749978 0.815322
C220  C     C_R   0.108071 0.249972 0.250053 0.804779
C221  C     C_R   0.108066 0.250249 0.750246 0.850603
C222  C     C_R   0.891929 0.750057 0.749904 0.813061
C223  C     C_R   0.891931 0.750058 0.250065 0.844764
C224  C     C_R   0.108070 0.749959 0.750066 0.844924
Cu1   Cu    Cu3+1 0.500000 0.780890 0.280900 1.094898
Cu2   Cu    Cu3+1 0.500000 0.719090 0.780910 1.058540
Cu3   Cu    Cu3+1 0.000000 0.219090 0.219090 1.070061
Cu4   Cu    Cu3+1 0.000000 0.219090 0.780910 1.056543
Cu5   Cu    Cu3+1 0.000000 0.719090 0.719090 1.078296
Cu6   Cu    Cu3+1 1.000000 0.719090 0.280910 1.084258
Cu7   Cu    Cu3+1 0.500000 0.219090 0.719090 1.048443
Cu8   Cu    Cu3+1 0.500000 0.219090 0.280910 1.073537
Cu9   Cu    Cu3+1 0.444220 0.999980 0.000000 1.114171
Cu10  Cu    Cu3+1 0.555780 0.999980 0.000000 1.111507
Cu11  Cu    Cu3+1 0.944220 0.499980 0.000000 1.059787
Cu12  Cu    Cu3+1 0.500000 0.780890 0.719100 1.085296
Cu13  Cu    Cu3+1 0.055780 0.499980 0.000000 1.116811
Cu14  Cu    Cu3+1 0.944220 0.999980 0.500000 1.093675
Cu15  Cu    Cu3+1 0.055780 0.999980 0.500000 1.131951
Cu16  Cu    Cu3+1 0.444220 0.499980 0.500000 1.069406
Cu17  Cu    Cu3+1 0.555780 0.499980 0.500000 1.076427
Cu18  Cu    Cu3+1 0.000000 0.280890 0.280900 1.084135
Cu19  Cu    Cu3+1 0.000000 0.280890 0.719100 1.106213
Cu20  Cu    Cu3+1 0.000000 0.780890 0.780900 1.069122
Cu21  Cu    Cu3+1 0.000000 0.780890 0.219100 1.064392
Cu22  Cu    Cu3+1 0.500000 0.280890 0.780900 1.107271
Cu23  Cu    Cu3+1 0.500000 0.280890 0.219100 1.083058
Cu24  Cu    Cu3+1 0.500000 0.719090 0.219090 1.056564
H1    H     H_    0.352794 0.653581 0.272407 0.338738
H2    H     H_    0.580021 0.535921 0.616083 0.376729
H3    H     H_    0.920303 0.035922 0.382117 0.346739
H4    H     H_    0.061727 0.026735 0.621342 0.330920
H5    H     H_    0.917904 0.538094 0.882770 0.343395
H6    H     H_    0.914407 0.539670 0.115175 0.344495
H7    H     H_    0.571289 0.031270 0.882677 0.373818
H8    H     H_    0.568764 0.031287 0.120569 0.344321
H9    H     H_    0.536998 0.630409 0.491103 0.320620
H10   H     H_    0.348766 0.605503 0.599444 0.337634
H11   H     H_    0.622610 0.609950 0.460467 0.338317
H12   H     H_    0.662208 0.605891 0.719028 0.343475
H13   H     H_    0.431475 0.624524 0.516014 0.360992
H14   H     H_    0.034667 0.154828 0.460214 0.314312
H15   H     H_    0.856662 0.120552 0.578373 0.315801
H16   H     H_    0.170714 0.128653 0.435166 0.350248
H17   H     H_    0.958730 0.129651 0.509568 0.333707
H18   H     H_    0.081947 0.659657 0.956950 0.348373
H19   H     H_    0.038960 0.651108 0.040472 0.285041
H20   H     H_    0.179680 0.600136 0.901006 0.355385
H21   H     H_    0.141292 0.584048 0.064562 0.366595
H22   H     H_    0.360126 0.157957 0.963707 0.340122
H23   H     H_    0.809140 0.139019 0.325429 0.339745
H24   H     H_    0.336502 0.084989 0.117145 0.353539
H25   H     H_    0.452720 0.178134 0.987830 0.312542
H26   H     H_    0.390500 0.157633 0.044720 0.324495
H27   H     H_    0.543222 0.737354 0.436627 0.367954
H28   H     H_    0.338746 0.697829 0.610416 0.366870
H29   H     H_    0.638731 0.680877 0.375518 0.330006
H30   H     H_    0.478042 0.708601 0.583663 0.347699
H31   H     H_    0.031682 0.209314 0.409747 0.316088
H32   H     H_    0.860936 0.178847 0.629825 0.302189
H33   H     H_    0.168021 0.189882 0.379321 0.350829
H34   H     H_    0.148794 0.155737 0.725811 0.334286
H35   H     H_    0.951069 0.236087 0.564123 0.363957
H36   H     H_    0.147633 0.707024 0.897830 0.357932
H37   H     H_    0.036329 0.707422 0.090306 0.307911
H38   H     H_    0.127964 0.626659 0.822140 0.335180
H39   H     H_    0.170637 0.685696 0.125173 0.365465
H40   H     H_    0.358000 0.176080 0.875630 0.330392
H41   H     H_    0.401199 0.122156 0.182834 0.336036
H42   H     H_    0.450893 0.237174 0.933621 0.341037
H43   H     H_    0.336545 0.194743 0.115443 0.356997
H44   H     H_    0.411806 0.856260 0.208495 0.324623
H45   H     H_    0.807717 0.640712 0.825960 0.337938
H46   H     H_    0.425081 0.790832 0.915316 0.349262
H47   H     H_    0.094674 0.299677 0.155128 0.321285
H48   H     H_    0.908696 0.296892 0.907288 0.348746
H49   H     H_    0.100735 0.802041 0.597394 0.345680
H50   H     H_    0.909347 0.796589 0.407632 0.348994
H51   H     H_    0.415564 0.288867 0.639248 0.331734
H52   H     H_    0.365965 0.339805 0.362711 0.346374
H53   H     H_    0.360156 0.984219 0.161358 0.354203
H54   H     H_    0.351480 0.849877 0.977824 0.346676
H55   H     H_    0.035383 0.367141 0.006496 0.304407
H56   H     H_    0.808251 0.646254 0.169355 0.339380
H57   H     H_    0.895418 0.371118 0.009673 0.347181
H58   H     H_    0.037318 0.864962 0.506092 0.311435
H59   H     H_    0.896926 0.870652 0.510300 0.356834
H60   H     H_    0.360758 0.349886 0.570342 0.318925
H61   H     H_    0.326413 0.440507 0.410072 0.347760
H62   H     H_    0.626010 0.833349 0.027618 0.356626
H63   H     H_    0.616374 0.977777 0.827428 0.389428
H64   H     H_    0.616115 0.902765 0.113913 0.334403
H65   H     H_    0.474195 0.963065 0.844625 0.297592
H66   H     H_    0.940862 0.488061 0.175151 0.341951
H67   H     H_    0.643804 0.091957 0.768114 0.342050
H68   H     H_    0.142597 0.424988 0.871375 0.342680
H69   H     H_    0.876631 0.461708 0.106658 0.352305
H70   H     H_    0.045281 0.492224 0.824356 0.358103
H71   H     H_    0.998920 0.964609 0.655534 0.294081
H72   H     H_    0.142127 0.925728 0.371342 0.345465
H73   H     H_    0.854473 0.961826 0.652718 0.365761
H74   H     H_    0.044235 0.992359 0.324136 0.366979
H75   H     H_    0.629355 0.422651 0.621777 0.317362
H76   H     H_    0.678623 0.421344 0.388675 0.346916
H77   H     H_    0.558932 0.495023 0.687019 0.360713
H78   H     H_    0.649598 0.095907 0.227870 0.342849
H79   H     H_    0.552468 0.456680 0.348033 0.293689
H80   H     H_    0.550319 0.775480 0.070073 0.339383
H81   H     H_    0.598039 0.873447 0.770210 0.344676
H82   H     H_    0.655061 0.818541 0.133542 0.355825
H83   H     H_    0.470564 0.911497 0.789701 0.306336
H84   H     H_    0.944373 0.432696 0.235666 0.346073
H85   H     H_    0.129733 0.416623 0.779769 0.357689
H86   H     H_    0.856429 0.370919 0.173474 0.332740
H87   H     H_    0.986461 0.418897 0.792605 0.333920
H88   H     H_    0.001719 0.914173 0.711071 0.312335
H89   H     H_    0.440856 0.525916 0.378184 0.336404
H90   H     H_    0.109617 0.867515 0.277885 0.343542
H91   H     H_    0.881571 0.860296 0.715323 0.337995
H92   H     H_    0.986049 0.918343 0.292247 0.333103
H93   H     H_    0.625266 0.368043 0.675904 0.299045
H94   H     H_    0.679843 0.363476 0.329259 0.349565
H95   H     H_    0.558230 0.437381 0.745893 0.347187
H96   H     H_    0.554301 0.404900 0.293962 0.312934
O1    O     O_R   0.500000 0.731000 0.321180 -0.524190
O2    O     O_R   0.500000 0.678810 0.731010 -0.587771
O3    O     O_R   0.627827 0.597535 0.701211 -0.687536
O4    O     O_2   0.894400 0.149083 0.284851 -0.595591
O5    O     O_R   0.842912 0.132327 0.344569 -0.677295
O6    O     O_2   0.101717 0.087931 0.712951 -0.512395
O7    O     O_R   0.118128 0.159955 0.703192 -0.782073
O8    O     O_2   0.893404 0.650448 0.785847 -0.597606
O9    O     O_R   0.841282 0.634171 0.845366 -0.679704
O10   O     O_2   0.892219 0.651478 0.212553 -0.600186
O11   O     O_R   0.842344 0.638663 0.150957 -0.682115
O12   O     O_2   0.615311 0.159608 0.799998 -0.625320
O13   O     O_R   0.000000 0.178810 0.268990 -0.539769
O14   O     O_R   0.611273 0.086743 0.788866 -0.677905
O15   O     O_2   0.617454 0.163251 0.197490 -0.632595
O16   O     O_R   0.617057 0.090153 0.207209 -0.677630
O17   O     O_3   0.423707 0.552178 0.365089 -0.655369
O18   O     O_3   0.593487 0.565318 0.623911 -0.649487
O19   O     O_3   0.905453 0.065637 0.377285 -0.645728
O20   O     O_3   0.078394 0.053295 0.634243 -0.664256
O21   O     O_3   0.903215 0.568076 0.879558 -0.648992
O22   O     O_3   0.901783 0.570112 0.118686 -0.656299
O23   O     O_3   0.585318 0.058416 0.869487 -0.650313
O24   O     O_R   0.000000 0.178810 0.731010 -0.596274
O25   O     O_3   0.586132 0.059276 0.129251 -0.653543
O26   O     O_3   0.533130 0.656602 0.472575 -0.677503
O27   O     O_3   0.359361 0.618729 0.571169 -0.690937
O28   O     O_3   0.623802 0.639281 0.447129 -0.703155
O29   O     O_3   0.436558 0.649926 0.535472 -0.678734
O30   O     O_3   0.074758 0.145617 0.461403 -0.687179
O31   O     O_3   0.874081 0.136282 0.553610 -0.685562
O32   O     O_3   0.142809 0.110479 0.419350 -0.640528
O33   O     O_3   0.964002 0.155287 0.528705 -0.692725
O34   O     O_3   0.111994 0.638149 0.950370 -0.659572
O35   O     O_R   0.000000 0.678810 0.768990 -0.556385
O36   O     O_3   0.079914 0.644327 0.041414 -0.689293
O37   O     O_3   0.140575 0.589352 0.896647 -0.669638
O38   O     O_3   0.145498 0.608483 0.085325 -0.656862
O39   O     O_3   0.377289 0.133878 0.946852 -0.690545
O40   O     O_3   0.377923 0.081627 0.113655 -0.687714
O41   O     O_3   0.467837 0.153412 0.970783 -0.713601
O42   O     O_3   0.371557 0.131590 0.056927 -0.683188
O43   O     O_3   0.525000 0.719572 0.413645 -0.647594
O44   O     O_3   0.364008 0.682760 0.631268 -0.718716
O45   O     O_3   0.616210 0.704468 0.389090 -0.694362
O46   O     O_R   0.000000 0.678810 0.231010 -0.543454
O47   O     O_3   0.439258 0.714829 0.594223 -0.659640
O48   O     O_3   0.072027 0.211707 0.401365 -0.687853
O49   O     O_3   0.880426 0.201744 0.612731 -0.708419
O50   O     O_3   0.139952 0.174935 0.360574 -0.678683
O51   O     O_3   0.970462 0.218894 0.586956 -0.644065
O52   O     O_3   0.107477 0.703182 0.889407 -0.692294
O53   O     O_3   0.075734 0.709715 0.101107 -0.695039
O54   O     O_3   0.138153 0.654778 0.835956 -0.722450
O55   O     O_3   0.141136 0.672076 0.143575 -0.673276
O56   O     O_3   0.379964 0.200661 0.888036 -0.721401
O57   O     O_R   0.500000 0.178810 0.768990 -0.592476
O58   O     O_3   0.380199 0.147926 0.172058 -0.726313
O59   O     O_3   0.470683 0.218690 0.912065 -0.663755
O60   O     O_3   0.378243 0.198011 0.115191 -0.700027
O61   O     O_3   0.423647 0.885263 0.197932 -0.657298
O62   O     O_3   0.432050 0.797874 0.884440 -0.687236
O63   O     O_3   0.091183 0.312424 0.125759 -0.680651
O64   O     O_3   0.921269 0.303372 0.877347 -0.692736
O65   O     O_3   0.083406 0.806720 0.626225 -0.703339
O66   O     O_3   0.921674 0.803131 0.377644 -0.694109
O67   O     O_3   0.429986 0.299243 0.610913 -0.697049
O68   O     O_R   0.500000 0.178810 0.231010 -0.587255
O69   O     O_3   0.399772 0.331379 0.345975 -0.724059
O70   O     O_2   0.453874 0.990454 0.132600 -0.624140
O71   O     O_R   0.376757 0.954151 0.157083 -0.675614
O72   O     O_2   0.449113 0.867146 0.990392 -0.576915
O73   O     O_R   0.371942 0.852241 0.949008 -0.731498
O74   O     O_2   0.139146 0.370938 0.068250 -0.472448
O75   O     O_R   0.077238 0.369886 0.012488 -0.721563
O76   O     O_2   0.864797 0.364979 0.935502 -0.542076
O77   O     O_R   0.929375 0.371961 0.989657 -0.792859
O78   O     O_2   0.138629 0.874338 0.569725 -0.501416
O79   O     O_R   0.418600 0.776080 0.276100 -0.572692
O80   O     O_R   0.078797 0.869227 0.512774 -0.708176
O81   O     O_2   0.865432 0.864362 0.436351 -0.535582
O82   O     O_R   0.930622 0.871682 0.490033 -0.788251
O83   O     O_2   0.463254 0.361894 0.508320 -0.553156
O84   O     O_R   0.379713 0.348139 0.540909 -0.648523
O85   O     O_2   0.368491 0.376490 0.441317 -0.511664
O86   O     O_R   0.364022 0.434506 0.395561 -0.730450
O87   O     O_3   0.587048 0.844413 0.031827 -0.682837
O88   O     O_3   0.607378 0.958127 0.852038 -0.651301
O89   O     O_3   0.624336 0.890730 0.084659 -0.690785
O90   O     O_R   0.418600 0.776080 0.723900 -0.562540
O91   O     O_3   0.512481 0.975663 0.840856 -0.742265
O92   O     O_3   0.961312 0.469935 0.153656 -0.746666
O93   O     O_3   0.120469 0.451005 0.862721 -0.674939
O94   O     O_3   0.872538 0.443055 0.132727 -0.721170
O95   O     O_3   0.028416 0.472779 0.846552 -0.744165
O96   O     O_3   0.958302 0.972195 0.653205 -0.730022
O97   O     O_3   0.119883 0.951537 0.362250 -0.650593
O98   O     O_3   0.872302 0.942578 0.630810 -0.649879
O99   O     O_3   0.027550 0.972768 0.346284 -0.751919
O100  O     O_3   0.616946 0.448811 0.638050 -0.688702
O101  O     O_R   0.581400 0.776080 0.276100 -0.559939
O102  O     O_3   0.645551 0.408538 0.403772 -0.653619
O103  O     O_3   0.534239 0.479030 0.666416 -0.711239
O104  O     O_3   0.591308 0.454290 0.359948 -0.709145
O105  O     O_3   0.582116 0.778768 0.090897 -0.690286
O106  O     O_3   0.603155 0.899568 0.788727 -0.663940
O107  O     O_3   0.616685 0.825698 0.144283 -0.725911
O108  O     O_3   0.508174 0.915586 0.776084 -0.674574
O109  O     O_3   0.965513 0.411237 0.217965 -0.670677
O110  O     O_3   0.115643 0.391781 0.797240 -0.703094
O111  O     O_3   0.876633 0.384616 0.198250 -0.697912
O112  O     O_R   0.500000 0.731000 0.678820 -0.542757
O113  O     O_R   0.581400 0.776080 0.723900 -0.575578
O114  O     O_3   0.024564 0.414937 0.779744 -0.690921
O115  O     O_3   0.961349 0.913393 0.719685 -0.677051
O116  O     O_3   0.115819 0.893023 0.297060 -0.683000
O117  O     O_3   0.875023 0.885490 0.695822 -0.665861
O118  O     O_3   0.024404 0.915387 0.279560 -0.682068
O119  O     O_3   0.613225 0.385326 0.701505 -0.706476
O120  O     O_3   0.646847 0.347695 0.341354 -0.681444
O121  O     O_3   0.532078 0.418162 0.729555 -0.659729
O122  O     O_3   0.592596 0.391979 0.296052 -0.699509
O123  O     O_R   0.918600 0.276080 0.276100 -0.573827
O124  O     O_R   0.918600 0.276080 0.723900 -0.568381
O125  O     O_R   0.081400 0.276080 0.276100 -0.561545
O126  O     O_R   0.081400 0.276080 0.723900 -0.560089
O127  O     O_R   0.918600 0.776080 0.776100 -0.587846
O128  O     O_R   0.918600 0.776080 0.223900 -0.589059
O129  O     O_R   0.081400 0.776080 0.776100 -0.566509
O130  O     O_R   0.081400 0.776080 0.223900 -0.566267
O131  O     O_R   0.418600 0.276080 0.776100 -0.561902
O132  O     O_R   0.000000 0.231000 0.321180 -0.570906
O133  O     O_R   0.418600 0.276080 0.223900 -0.567979
O134  O     O_R   0.581400 0.276080 0.776100 -0.561904
O135  O     O_R   0.581400 0.276080 0.223900 -0.573902
O136  O     O_R   0.418610 0.723900 0.223900 -0.574794
O137  O     O_R   0.418610 0.723900 0.776100 -0.567933
O138  O     O_R   0.581390 0.723900 0.223900 -0.565450
O139  O     O_R   0.581390 0.723900 0.776100 -0.577008
O140  O     O_R   0.918610 0.223900 0.223900 -0.549213
O141  O     O_R   0.918610 0.223900 0.776100 -0.567389
O142  O     O_R   0.081390 0.223900 0.223900 -0.578299
O143  O     O_R   0.000000 0.231000 0.678820 -0.525784
O144  O     O_R   0.081390 0.223900 0.776100 -0.579576
O145  O     O_R   0.918610 0.723900 0.723900 -0.546863
O146  O     O_R   0.918610 0.723900 0.276100 -0.536362
O147  O     O_R   0.081390 0.723900 0.723900 -0.568962
O148  O     O_R   0.081390 0.723900 0.276100 -0.578554
O149  O     O_R   0.418610 0.223900 0.723900 -0.581158
O150  O     O_R   0.418610 0.223900 0.276100 -0.567751
O151  O     O_R   0.581390 0.223900 0.723900 -0.568101
O152  O     O_R   0.581390 0.223900 0.276100 -0.572525
O153  O     O_R   0.500000 0.821170 0.231010 -0.572563
O154  O     O_R   0.000000 0.731000 0.821180 -0.558607
O155  O     O_R   0.500000 0.821170 0.768990 -0.588397
O156  O     O_R   1.000000 0.321170 0.231010 -0.528930
O157  O     O_R   1.000000 0.321170 0.768990 -0.557742
O158  O     O_R   0.000000 0.821170 0.731010 -0.582940
O159  O     O_R   0.000000 0.821170 0.268990 -0.578009
O160  O     O_R   0.500000 0.321170 0.731010 -0.533952
O161  O     O_R   0.500000 0.321170 0.268990 -0.579379
O162  O     O_R   0.500000 0.768980 0.178810 -0.557864
O163  O     O_R   0.500000 0.768980 0.821190 -0.541483
O164  O     O_R   1.000000 0.268980 0.178810 -0.588944
O165  O     O_R   1.000000 0.731000 0.178820 -0.571697
O166  O     O_R   0.000000 0.268980 0.821190 -0.555350
O167  O     O_R   0.000000 0.768980 0.678810 -0.552261
O168  O     O_R   1.000000 0.768980 0.321190 -0.551880
O169  O     O_R   0.500000 0.268980 0.678810 -0.576825
O170  O     O_R   0.500000 0.268980 0.321190 -0.564812
O171  O     O_R   0.452860 0.954900 0.954900 -0.594637
O172  O     O_R   0.452860 0.954900 0.045100 -0.573561
O173  O     O_R   0.547140 0.954900 0.954900 -0.547615
O174  O     O_R   0.547140 0.954900 0.045100 -0.554257
O175  O     O_R   0.952860 0.454900 0.954900 -0.584961
O176  O     O_R   0.500000 0.231000 0.821180 -0.521971
O177  O     O_R   0.952860 0.454900 0.045100 -0.587729
O178  O     O_R   0.047140 0.454900 0.954900 -0.541698
O179  O     O_R   0.047140 0.454900 0.045100 -0.583960
O180  O     O_R   0.952860 0.954900 0.454900 -0.584232
O181  O     O_R   0.952860 0.954900 0.545100 -0.533687
O182  O     O_R   0.047140 0.954900 0.454900 -0.544507
O183  O     O_R   0.047140 0.954900 0.545100 -0.589464
O184  O     O_R   0.452860 0.454900 0.454900 -0.577788
O185  O     O_R   0.452860 0.454900 0.545100 -0.588720
O186  O     O_R   0.547140 0.454900 0.454900 -0.531026
O187  O     O_R   0.500000 0.231000 0.178820 -0.555028
O188  O     O_R   0.547140 0.454900 0.545100 -0.564481
O189  O     O_R   0.452890 0.545070 0.454900 -0.565318
O190  O     O_R   0.452890 0.545070 0.545100 -0.569240
O191  O     O_R   0.547110 0.545070 0.454900 -0.593070
O192  O     O_R   0.547110 0.545070 0.545100 -0.582086
O193  O     O_R   0.952890 0.045070 0.454900 -0.580555
O194  O     O_R   0.952890 0.045070 0.545100 -0.569566
O195  O     O_R   0.047110 0.045070 0.454900 -0.518007
O196  O     O_R   0.047110 0.045070 0.545100 -0.561346
O197  O     O_R   0.952890 0.545070 0.954900 -0.578644
O198  O     O_R   0.500000 0.678810 0.268990 -0.594988
O199  O     O_R   0.952890 0.545070 0.045100 -0.572887
O200  O     O_R   0.047110 0.545070 0.954900 -0.516517
O201  O     O_R   0.047110 0.545070 0.045100 -0.575371
O202  O     O_R   0.452890 0.045070 0.954900 -0.547589
O203  O     O_R   0.452890 0.045070 0.045100 -0.511738
O204  O     O_R   0.547110 0.045070 0.954900 -0.581735
O205  O     O_R   0.547110 0.045070 0.045100 -0.591700
O206  O     O_2   0.400710 0.586372 0.286252 -0.511232
O207  O     O_R   0.382873 0.658253 0.295412 -0.776902
O208  O     O_2   0.618988 0.670108 0.689994 -0.627431

loop_
_geom_bond_atom_site_label_1
_geom_bond_atom_site_label_2
_ccdc_geom_bond_type
Cu17  O186  S    
C223  O146  A    
C3    O148  A    
Cu11  Cu13  S    
H53   O71   S    
C127  O7    S    
C2    C36   S    
C56   C218  S    
C139  O84   S    
C48   O167  A    
C40   C46   S    
C148  O132  A    
Cu18  O125  S    
C16   O102  S    
C217  O139  A    
H77   O103  S    
C35   C124  A    
C34   O189  A    
Cu2   O2    S    
H78   O16   S    
C184  C193  A    
C125  O208  D    
C193  C201  A    
C105  C123  S    
H73   O98   S    
C2    C90   A    
C26   C197  S    
C112  O2    A    
Cu11  O175  S    
C133  C188  S    
C149  O38   S    
C137  C191  S    
C2    C116  A    
C162  C171  A    
H61   O86   S    
Cu12  O113  S    
C33   O188  A    
C6    O151  A    
H72   O97   S    
C22   O116  S    
C10   O92   S    
C129  O11   S    
C126  O5    S    
C20   O114  S    
C100  C109  A    
C150  O41   S    
C79   C87   A    
Cu8   O68   S    
C102  C181  S    
C161  C205  A    
C197  C206  A    
C149  O36   S    
H51   O67   S    
C221  O144  A    
H45   O9    S    
C31   C200  S    
Cu20  O158  S    
C190  C199  A    
H64   O89   S    
Cu5   O145  S    
C124  C147  S    
C11   C20   S    
C67   C85   T    
C32   O186  A    
C117  O19   S    
C100  C170  S    
H4    O20   S    
C115  O17   S    
C7    O152  A    
Cu2   O139  S    
H94   O120  S    
C97   C112  S    
C179  C188  A    
C123  O206  D    
C177  C186  A    
H13   O29   S    
C154  O50   S    
C113  C146  S    
Cu11  O177  S    
C54   C216  S    
C159  O24   A    
C222  O145  A    
H7    O23   S    
Cu24  O138  S    
C138  O82   S    
C29   O177  A    
H42   O59   S    
C111  C130  S    
C17   O105  S    
C45   O156  A    
H76   O102  S    
C204  C212  A    
C164  C173  A    
C43   O153  A    
C163  C172  A    
C1    O198  A    
C181  O165  A    
C23   C167  S    
Cu17  O188  S    
H2    O18   S    
C173  C182  A    
C122  O25   S    
Cu4   O166  S    
H86   O111  S    
C53   C71   T    
C45   C172  S    
C49   C175  S    
H75   O100  S    
Cu7   O151  S    
C138  C193  S    
C16   C25   S    
C148  O13   A    
C16   O104  S    
C89   C101  A    
Cu16  O189  S    
C93   C102  A    
H59   O82   S    
C8    C17   S    
C152  O45   S    
C200  C209  A    
C156  O52   S    
C38   O196  A    
C59   C220  S    
C128  O8    D    
C166  C210  A    
Cu8   O150  S    
H8    O25   S    
C145  O30   S    
C219  O141  A    
Cu3   O13   S    
C8    C205  S    
C70   C82   S    
C160  O58   S    
C22   C166  S    
C144  O27   S    
C11   O95   S    
C95   C142  A    
C49   O168  A    
C27   C196  S    
C182  C190  A    
C203  O68   A    
H46   O62   S    
Cu13  O178  S    
C20   C164  S    
Cu5   O147  S    
H90   O116  S    
Cu14  O194  S    
C99   C159  S    
H36   O52   S    
C202  C211  A    
C34   O191  A    
Cu2   O137  S    
C12   O98   S    
C60   C221  S    
Cu22  O176  S    
C3    C64   S    
C91   C155  S    
C99   C108  A    
C106  C125  S    
C101  C145  S    
C150  O39   S    
C49   O159  A    
Cu20  O127  S    
Cu19  O124  S    
C62   C80   T    
C51   O170  A    
C12   C209  S    
C180  C189  A    
Cu21  O159  S    
C31   O183  A    
C216  O101  A    
C29   O179  A    
H44   O61   S    
C17   O107  S    
C118  O20   S    
Cu4   O144  S    
Cu2   Cu12  S    
C110  C129  S    
C163  C207  A    
C21   O115  S    
C61   C222  S    
Cu4   O141  S    
C182  O64   S    
H70   O95   S    
C79   C143  S    
C151  O40   S    
C133  O73   S    
Cu21  O128  S    
Cu6   O46   S    
C68   C142  A    
C50   O169  A    
H79   O104  S    
C28   O175  A    
Cu15  O196  S    
C40   O199  A    
C220  O142  A    
Cu7   O149  S    
C161  C169  A    
Cu16  O184  S    
Cu14  O180  S    
Cu12  O90   S    
H96   O122  S    
H81   O106  S    
C43   O162  A    
C171  C179  A    
C12   O96   S    
C33   O185  A    
H28   O44   S    
H29   O45   S    
C75   C85   S    
C141  C150  S    
C48   C174  S    
C25   C168  S    
H27   O43   S    
C51   O161  A    
C28   C199  S    
C156  O54   S    
C38   O194  A    
H25   O41   S    
H15   O31   S    
Cu10  O174  S    
C191  C200  A    
C140  O86   S    
C164  C208  A    
Cu8   O152  S    
Cu5   Cu20  S    
Cu9   O202  S    
C145  O32   S    
C165  C174  A    
C44   O155  A    
Cu18  O132  S    
Cu3   O164  S    
C131  O16   S    
C5    O133  A    
C160  O60   S    
C196  C205  A    
C11   O93   S    
C123  O207  S    
C8    O87   S    
C46   C120  A    
Cu9   O171  S    
C26   O173  A    
C19   C163  S    
C39   O197  A    
H24   O40   S    
C17   C161  S    
C145  C154  S    
C6    C67   S    
C170  O35   A    
C87   C152  S    
C45   O164  A    
H6    O22   S    
H16   O32   S    
C9    O88   S    
C15   O100  S    
C21   O117  S    
H34   O7    S    
Cu20  O129  S    
C105  C115  A    
C88   C97   A    
C5    C66   S    
C93   C135  A    
C31   O181  A    
Cu11  O199  S    
C139  O83   D    
Cu10  O204  S    
C192  O57   A    
H19   O36   S    
C89   C98   A    
C133  O72   D    
H33   O50   S    
C158  O59   S    
C72   C80   S    
Cu8   O170  S    
C185  O67   S    
Cu17  O192  S    
C89   C154  S    
Cu15  O195  S    
C50   O160  A    
C125  O3    S    
Cu14  Cu15  S    
C199  C208  A    
H14   O30   S    
H39   O55   S    
C140  C195  S    
Cu22  O160  S    
H40   O56   S    
C18   O108  S    
C55   C73   T    
Cu10  O205  S    
C9    C18   S    
Cu21  O130  S    
C53   C215  S    
C29   C198  S    
C11   C208  S    
C23   O121  S    
C203  O187  A    
C51   C177  S    
C13   C101  A    
C59   C76   T    
C90   C144  S    
C134  O74   D    
C71   C81   S    
C129  O10   D    
C96   C105  A    
C187  C196  A    
C114  C131  S    
C169  C178  A    
Cu19  O143  S    
C185  C194  A    
C76   C84   S    
Cu3   Cu18  S    
Cu1   O101  S    
C43   C169  S    
C176  C185  A    
C55   C217  S    
C134  O75   S    
C22   O118  S    
C166  C175  A    
H31   O48   S    
H3    O19   S    
C134  C189  S    
C9    C206  S    
C92   C124  A    
C10   O94   S    
H88   O115  S    
Cu23  O187  S    
C168  C177  A    
C194  C202  A    
C37   O193  A    
C33   C202  S    
Cu22  O131  S    
C21   C165  S    
H48   O64   S    
C103  C111  A    
Cu15  O182  S    
C46   C135  A    
C146  O31   S    
C170  O154  A    
C79   C214  A    
C146  C155  S    
Cu21  O165  S    
Cu19  O126  S    
Cu18  O123  S    
Cu12  O112  S    
H17   O33   S    
H12   O3    S    
C157  O53   S    
C172  C180  A    
Cu1   Cu24  S    
Cu23  O135  S    
C198  C207  A    
C220  O125  A    
C94   C158  S    
H93   O119  S    
C162  C206  A    
Cu24  O198  S    
H52   O69   S    
C94   C141  A    
C8    O89   S    
C132  C187  S    
Cu11  O197  S    
Cu6   O146  S    
H49   O65   S    
Cu1   O79   S    
H89   O17   S    
C56   C74   T    
C104  C203  S    
Cu3   O142  S    
C34   C214  S    
C68   C122  A    
C183  O65   S    
C130  O14   S    
C195  C204  A    
Cu19  O157  S    
C221  O126  A    
C98   C107  A    
C106  C116  A    
C219  O124  A    
C32   C204  S    
C35   C39   S    
H23   O5    S    
C18   O106  S    
C109  C128  S    
Cu18  O156  S    
C30   O182  A    
C10   C19   S    
H37   O53   S    
C130  O12   D    
C41   O202  A    
Cu6   O148  S    
C147  C156  S    
Cu7   O169  S    
C152  O43   S    
C47   C173  S    
Cu6   Cu21  S    
C180  O63   S    
C97   C106  A    
C143  C152  S    
C224  O147  A    
C126  O4    D    
C94   C103  A    
C153  O47   S    
C213  O136  A    
Cu1   O1    S    
C102  C110  A    
C154  O48   S    
C28   O178  A    
Cu16  O185  S    
C109  C119  A    
C30   C201  S    
H82   O107  S    
C48   O158  A    
C150  C158  S    
H67   O14   S    
C120  O22   S    
H18   O34   S    
C174  C183  A    
C13   C117  A    
C4    O149  A    
Cu22  O134  S    
C25   O120  S    
C37   O195  A    
C9    O91   S    
C57   C141  A    
H84   O109  S    
H47   O63   S    
C44   C171  S    
C41   C57   S    
H91   O117  S    
C151  C160  S    
C138  O81   D    
C18   C162  S    
C14   C22   S    
Cu4   Cu19  S    
C98   C148  S    
C188  C197  A    
C218  O140  A    
C137  O78   D    
Cu5   O167  S    
Cu4   O24   S    
Cu16  O190  S    
Cu2   O163  S    
H63   O88   S    
C132  O71   S    
C32   O184  A    
C5    O150  A    
C181  O46   A    
C224  O129  A    
C157  O55   S    
H92   O118  S    
Cu23  O133  S    
C158  O56   S    
H66   O92   S    
C127  O6    D    
C27   O174  A    
C149  C157  S    
C107  C117  A    
C179  O62   S    
C175  C184  A    
C159  O143  A    
C189  C198  A    
C142  C151  S    
Cu14  O181  S    
C192  O176  A    
C111  C121  A    
C7    O135  A    
C168  C212  A    
C44   O163  A    
C35   C119  A    
Cu3   O140  S    
C42   O205  A    
C4    O131  A    
H60   O84   S    
C40   O201  A    
Cu24  O136  S    
C144  O29   S    
C223  O128  A    
C20   O110  S    
H69   O94   S    
C63   C81   T    
C184  O66   S    
H50   O66   S    
H11   O28   S    
C4    C65   S    
Cu20  O154  S    
C65   C83   T    
C30   O180  A    
C77   C83   S    
C146  O33   S    
C213  O79   A    
C47   O157  A    
Cu12  O155  S    
C50   C176  S    
C136  O76   D    
C41   O204  A    
C144  C153  S    
C15   O103  S    
C143  O28   S    
Cu16  Cu17  S    
C15   C211  S    
C23   O119  S    
C42   O203  A    
H30   O47   S    
C119  O21   S    
C151  O42   S    
Cu24  O162  S    
H54   O73   S    
C1    O1    A    
C73   C78   S    
C147  O34   S    
C39   O200  A    
H85   O110  S    
C13   C37   S    
C139  C194  S    
Cu15  O183  S    
Cu13  O179  S    
H55   O75   S    
H83   O108  S    
C15   C23   S    
C24   C113  A    
Cu14  O193  S    
Cu13  O201  S    
H74   O99   S    
C42   C68   S    
C14   O99   S    
H95   O121  S    
Cu5   O35   S    
C3    O130  A    
C58   C75   T    
C25   O122  S    
C155  O51   S    
C60   C77   T    
C14   C210  S    
C95   C160  S    
C108  C118  A    
C186  C195  A    
C16   C212  S    
C52   C70   T    
Cu7   O57   S    
C110  C120  A    
H80   O105  S    
H65   O91   S    
H20   O37   S    
C135  C149  S    
Cu13  O200  S    
C66   C84   T    
C12   C21   S    
C112  O112  A    
C137  O80   S    
H35   O51   S    
H22   O39   S    
C91   C113  A    
C115  C214  A    
C136  C190  S    
C6    O134  A    
C186  O69   S    
H62   O87   S    
C10   C207  S    
H57   O77   S    
C58   C219  S    
Cu17  O191  S    
C24   C38   S    
C61   C78   T    
H87   O114  S    
C87   C96   A    
C92   C156  S    
C62   C223  S    
C74   C86   S    
C215  O90   A    
C93   C157  S    
C27   O172  A    
C178  O61   S    
C64   C82   T    
C104  C114  A    
H21   O38   S    
Cu6   O168  S    
H58   O80   S    
Cu7   Cu22  S    
C136  O77   S    
C178  C187  A    
Cu1   O153  S    
C201  C210  A    
H5    O21   S    
C95   C104  A    
C92   C100  A    
Cu9   Cu10  S    
C116  O18   S    
H68   O93   S    
H56   O11   S    
C36   O192  A    
H71   O96   S    
C121  O23   S    
C153  O44   S    
C19   O111  S    
C63   C224  S    
C147  O37   S    
Cu10  O173  S    
C26   O171  A    
C107  C126  S    
C88   C90   A    
C140  O85   D    
C183  C191  A    
C7    C69   S    
C217  O113  A    
Cu9   O203  S    
H32   O49   S    
C24   C118  A    
H38   O54   S    
Cu8   Cu23  S    
C91   C99   A    
C88   C153  S    
C143  O26   S    
C167  C211  A    
C222  O127  A    
C155  O49   S    
C1    C96   S    
C52   C213  S    
Cu9   O172  S    
H43   O60   S    
Cu23  O161  S    
C108  C127  S    
C218  O123  A    
H1    O207  S    
C216  O138  A    
C19   O109  S    
H26   O42   S    
H41   O58   S    
C57   C121  A    
C114  C122  A    
C165  C209  A    
C54   C72   T    
C36   O190  A    
C47   O166  A    
H9    O26   S    
C131  O15   D    
C14   O97   S    
C128  O9    S    
C103  C192  S    
H10   O27   S    
C132  O70   D    
C69   C86   T    
C167  C176  A    
C215  O137  A    
