data_mof_unit_60961.cif
_audit_creation_date              2012-10-26T19:34:59-0400
_audit_creation_method            fapswitch 2.2
_symmetry_space_group_name_H-M    P1
_symmetry_Int_Tables_number       1
_space_group_crystal_system       triclinic
_cell_length_a                    13.89326
_cell_length_b                    18.178801
_cell_length_c                    19.434597
_cell_angle_alpha                 89.910101
_cell_angle_beta                  89.996102
_cell_angle_gamma                 84.870957
_cell_volume                      4888.79631343

loop_
_atom_site_label
_atom_site_type_symbol
_atom_type_description
_atom_site_fract_x
_atom_site_fract_y
_atom_site_fract_z
_atom_type_partial_charge
C1    C     C_R   0.499999 0.499912 0.632504 0.553002
C2    C     C_R   0.425270 0.540329 0.035682 0.425878
C3    C     C_R   0.499847 0.499431 0.927967 -0.068248
C4    C     C_R   0.500231 0.500574 0.072080 -0.067121
C5    C     C_R   0.557277 0.274561 0.544885 0.477238
C6    C     C_R   0.442492 0.725318 0.544761 0.474039
C7    C     C_R   0.557495 0.197319 0.545705 -0.079952
C8    C     C_R   0.442294 0.802555 0.545572 -0.084032
C9    C     C_R   0.499381 0.161414 0.499614 -0.017322
C10   C     C_R   0.500641 0.838583 0.499625 -0.016972
C11   C     C_R   0.441435 0.205616 0.453021 0.067049
C12   C     C_R   0.500005 0.500088 0.367498 0.554807
C13   C     C_R   0.558792 0.794508 0.453178 0.067860
C14   C     C_R   0.442463 0.283221 0.454698 0.481555
C15   C     C_R   0.557738 0.716899 0.454865 0.484171
C16   C     C_R   0.683163 0.488130 0.499973 0.555095
C17   C     C_R   0.316837 0.511870 0.500013 0.555446
C18   C     C_R   0.412847 0.044555 0.501313 -0.084037
C19   C     C_R   0.587174 0.955437 0.501513 -0.085284
C20   C     C_R   0.412554 0.967256 0.500899 0.388704
C21   C     C_R   0.587469 0.032738 0.501104 0.388020
C22   C     C_R   0.499988 0.921419 0.500604 0.007475
C23   C     C_R   0.499287 0.433804 0.255323 -0.119849
C24   C     C_R   0.500036 0.078575 0.500606 0.007822
C25   C     C_1   0.213736 0.519044 0.500004 0.045064
C26   C     C_1   0.786264 0.480956 0.499942 0.044582
C27   C     C_2   0.023350 0.530485 0.499985 -0.094807
C28   C     C_2   0.976650 0.469516 0.499894 -0.094779
C29   C     C_1   0.873064 0.475247 0.499917 0.000097
C30   C     C_1   0.126936 0.524753 0.499994 0.000400
C31   C     C_R   0.501293 0.567121 0.255578 -0.061219
C32   C     C_R   0.499904 0.432797 0.744430 -0.061114
C33   C     C_R   0.501412 0.567487 0.183887 0.460574
C34   C     C_R   0.499567 0.566272 0.744684 -0.120271
C35   C     C_R   0.499740 0.432428 0.816122 0.460974
C36   C     C_R   0.500315 0.500885 0.147612 0.103866
C37   C     C_R   0.499747 0.499110 0.852413 0.102597
C38   C     C_R   0.499506 0.434141 0.183666 -0.101447
C39   C     C_R   0.499426 0.565930 0.816340 -0.101178
C40   C     C_R   0.500119 0.500318 0.291886 -0.047716
C41   C     C_R   0.499901 0.499680 0.708120 -0.047989
C42   C     C_R   0.574897 0.460139 0.036098 0.365401
C43   C     C_R   0.425168 0.539860 0.963968 0.365144
C44   C     C_R   0.574846 0.459714 0.964383 0.426410
Cu1   Cu    Cu3+1 0.500030 0.426640 0.500000 1.139598
Cu2   Cu    Cu3+1 0.499970 0.573360 0.500000 1.139315
F1    F     F_    0.385798 0.325271 0.410315 -0.612697
F2    F     F_    0.351244 0.578248 0.069687 -0.502006
F3    F     F_    0.614738 0.307519 0.589515 -0.585577
F4    F     F_    0.384814 0.692242 0.589255 -0.590131
F5    F     F_    0.614494 0.674965 0.410565 -0.608234
F6    F     F_    0.326452 0.937439 0.499133 -0.592059
F7    F     F_    0.673577 0.062562 0.499541 -0.593057
F8    F     F_    0.504358 0.632576 0.149934 -0.552102
F9    F     F_    0.497782 0.367236 0.850050 -0.551335
F10   F     F_    0.648769 0.422384 0.070506 -0.538014
F11   F     F_    0.351234 0.577570 0.929587 -0.536770
F12   F     F_    0.648971 0.421885 0.930406 -0.499806
H1    H     H_    0.015912 0.415060 0.499815 0.161512
H2    H     H_    0.499519 0.618631 0.718013 0.187762
H3    H     H_    0.602470 0.165747 0.582742 0.200057
H4    H     H_    0.397149 0.834025 0.582491 0.197176
H5    H     H_    0.311988 0.192793 0.409575 0.272065
H6    H     H_    0.405975 0.188146 0.353972 0.282170
H7    H     H_    0.688428 0.807441 0.410024 0.272062
H8    H     H_    0.594681 0.812256 0.354206 0.290604
H9    H     H_    0.984088 0.584941 0.500065 0.161342
H10   H     H_    0.344343 0.077991 0.502320 0.180707
H11   H     H_    0.655674 0.921997 0.502678 0.179911
H12   H     H_    0.502449 0.619128 0.282550 0.193021
H13   H     H_    0.499703 0.380719 0.717457 0.192112
H14   H     H_    0.498327 0.382394 0.156232 0.179299
H15   H     H_    0.499764 0.617752 0.843758 0.180199
H16   H     H_    0.498345 0.381515 0.281992 0.188943
N1    N     N_R   0.500010 0.316380 0.499980 -0.231736
N2    N     N_R   0.499990 0.683620 0.500020 -0.231466
N3    N     N_3   0.383995 0.172054 0.402766 -0.588726
N4    N     N_3   0.616454 0.828207 0.403048 -0.585570
O1    O     O_R   0.500040 0.438020 0.599820 -0.471141
O2    O     O_R   0.499960 0.561980 0.400180 -0.466973
O3    O     O_R   0.500000 0.561930 0.599810 -0.467109
O4    O     O_R   0.500000 0.438070 0.400190 -0.462215
O5    O     O_R   0.637870 0.429290 0.499990 -0.456207
O6    O     O_R   0.362130 0.570710 0.500010 -0.454966
O7    O     O_R   0.637830 0.553200 0.499980 -0.465332
O8    O     O_R   0.362170 0.446800 0.500020 -0.464557

loop_
_geom_bond_atom_site_label_1
_geom_bond_atom_site_label_2
_ccdc_geom_bond_type
Cu2   O2    S    
C4    C36   S    
C12   C40   S    
H6    N3    S    
Cu1   O4    S    
Cu2   N2    S    
Cu1   Cu2   S    
C10   C22   S    
C3    C43   A    
C18   C24   A    
C28   C29   S    
C35   C37   A    
C11   C14   A    
C1    O3    A    
C23   C40   A    
C33   F8    S    
C33   C36   A    
C31   C40   A    
C7    H3    S    
C11   N3    S    
C42   F10   S    
C31   H12   S    
C44   F12   S    
C32   C41   A    
C31   C33   A    
C15   F5    S    
Cu2   O7    S    
C15   N2    A    
C27   C30   S    
C34   H2    S    
C5    F3    S    
Cu1   O5    S    
C34   C41   A    
C42   C44   A    
C32   H13   S    
C16   C26   S    
H8    N4    S    
C38   H14   S    
C3    C44   A    
C35   F9    S    
C17   O8    A    
C32   C35   A    
C19   C22   A    
C5    C7    A    
C6    C8    A    
C2    F2    S    
C16   O5    A    
C34   C39   A    
C5    N1    A    
C2    C4    A    
Cu2   O3    S    
C2    C43   A    
C12   O4    A    
Cu1   O1    S    
C6    F4    S    
C9    C11   A    
Cu2   O6    S    
C1    C41   S    
C20   C22   A    
C13   C15   A    
C16   O7    A    
C1    O1    A    
C19   H11   S    
C23   H16   S    
H5    N3    S    
C28   H1    S    
C25   C30   T    
C7    C9    A    
C13   N4    S    
H7    N4    S    
C19   C21   A    
C10   C13   A    
C9    C24   S    
C6    N2    A    
C14   F1    S    
C23   C38   A    
Cu1   N1    S    
C17   O6    A    
C17   C25   S    
C14   N1    A    
C36   C38   A    
Cu1   O8    S    
C20   F6    S    
C21   F7    S    
C4    C42   A    
C12   O2    A    
C18   C20   A    
C39   H15   S    
C27   H9    S    
C43   F11   S    
C37   C39   A    
C3    C37   S    
C26   C29   T    
C8    C10   A    
C21   C24   A    
C27   C28   D    
C18   H10   S    
C8    H4    S    
