data_mof_unit_13032.cif
_audit_creation_date              2012-12-10T21:07:41-0500
_audit_creation_method            fapswitch 2.2
_symmetry_space_group_name_H-M    P1
_symmetry_Int_Tables_number       1
_space_group_crystal_system       triclinic
_cell_length_a                    8.531063
_cell_length_b                    17.366025
_cell_length_c                    16.765911
_cell_angle_alpha                 89.920022
_cell_angle_beta                  99.006243
_cell_angle_gamma                 89.837309
_cell_volume                      2453.24347377

loop_
_atom_site_label
_atom_site_type_symbol
_atom_type_description
_atom_site_fract_x
_atom_site_fract_y
_atom_site_fract_z
_atom_type_partial_charge
C1    C     C_R   0.505379 0.352944 0.500382 0.863800
C2    C     C_R   0.498146 0.647002 0.500023 0.870991
C3    C     C_1   0.606117 0.965509 0.531863 -0.064171
C4    C     C_1   0.613453 0.033794 0.532652 -0.054804
C5    C     C_R   0.433291 0.440616 0.828190 0.087935
C6    C     C_R   0.640545 0.522577 0.180281 0.073364
C7    C     C_R   0.433648 0.441060 0.743794 -0.047223
C8    C     C_R   0.633681 0.521776 0.263834 -0.022545
C9    C     C_R   0.565753 0.560718 0.751516 -0.054271
C10   C     C_R   0.367979 0.479051 0.240592 -0.074487
C11   C     C_R   0.565826 0.564766 0.835598 -0.111302
C12   C     C_R   0.365232 0.480803 0.155936 -0.097399
C13   C     C_R   0.501236 0.503279 0.875553 0.058173
C14   C     C_R   0.503770 0.502943 0.124683 0.058103
C15   C     C_1   0.505398 0.503850 0.963847 -0.031548
C16   C     C_1   0.506501 0.503425 0.036872 -0.036708
C17   C     C_R   0.200567 0.500696 0.478911 0.973718
C18   C     C_R   0.799471 0.499542 0.521119 0.968530
C19   C     C_2   0.035447 0.502222 0.467543 -0.396291
C20   C     C_2   0.964665 0.498401 0.532611 -0.390108
C21   C     C_R   0.455632 0.852636 0.563136 -0.017742
C22   C     C_R   0.684352 0.156774 0.476392 -0.020744
C23   C     C_R   0.422667 0.773704 0.551886 -0.069473
C24   C     C_R   0.646807 0.235110 0.461879 -0.075702
C25   C     C_R   0.511062 0.730091 0.503225 -0.085410
C26   C     C_R   0.532908 0.270293 0.503544 -0.085221
C27   C     C_R   0.629190 0.764453 0.466269 -0.233581
C28   C     C_R   0.457162 0.227528 0.557018 -0.223733
C29   C     C_R   0.664325 0.841590 0.479117 -0.176536
C30   C     C_R   0.490601 0.150116 0.568781 -0.190719
C31   C     C_R   0.579387 0.885141 0.527578 0.091236
C32   C     C_R   0.603117 0.115042 0.528895 0.088594
H1    H     H_    0.972804 0.506117 0.405975 0.170287
H2    H     H_    0.027456 0.494729 0.594230 0.181509
H3    H     H_    0.698709 0.730734 0.430057 0.146392
H4    H     H_    0.370771 0.254171 0.589364 0.143591
H5    H     H_    0.756824 0.867599 0.450549 0.145057
H6    H     H_    0.426252 0.117089 0.607994 0.153857
H7    H     H_    0.381122 0.393777 0.707081 0.128647
H8    H     H_    0.736884 0.538495 0.305982 0.132919
H9    H     H_    0.615817 0.607369 0.720917 0.139819
H10   H     H_    0.263010 0.461749 0.264761 0.132921
N1    N     N_R   0.500040 0.500030 0.707230 -0.099543
N2    N     N_R   0.499960 0.499970 0.292770 -0.097569
O1    O     O_R   0.500000 0.389130 0.566570 -0.622070
O2    O     O_R   0.500000 0.610870 0.433430 -0.614694
O3    O     O_R   0.499990 0.389100 0.433480 -0.610741
O4    O     O_R   0.500010 0.610900 0.566520 -0.615968
O5    O     O_R   0.271750 0.500010 0.550980 -0.601536
O6    O     O_R   0.728250 0.499990 0.449020 -0.615205
O7    O     O_R   0.271740 0.499980 0.417890 -0.639963
O8    O     O_R   0.728260 0.500020 0.582110 -0.627046
Zn1   Zn    Zn3+2 0.500010 0.500020 0.588860 0.938401
Zn2   Zn    Zn3+2 0.499990 0.499980 0.411140 0.935098
C33   C     C_R   0.357420 0.901410 0.609133 0.115797
C34   C     C_R   0.426042 0.937099 0.681266 -0.155956
C35   C     C_R   0.333216 0.982811 0.724321 -0.151072
C36   C     C_R   0.171457 0.992876 0.695908 -0.130726
C37   C     C_R   0.102236 0.957314 0.624344 -0.138173
C38   C     C_R   0.194848 0.912090 0.580784 -0.137495
H11   H     H_    0.551042 0.929342 0.704091 0.128201
H12   H     H_    0.386644 0.010339 0.779798 0.127470
H13   H     H_    0.099756 0.028220 0.729336 0.123159
H14   H     H_    0.976997 0.965137 0.602349 0.142298
H15   H     H_    0.140125 0.885645 0.524878 0.127906
C39   C     C_R   0.808876 0.118758 0.437597 0.125360
C40   C     C_R   0.779606 0.099558 0.355349 -0.133877
C41   C     C_R   0.899065 0.065441 0.318875 -0.141245
C42   C     C_R   0.048123 0.050601 0.364205 -0.120370
C43   C     C_R   0.077937 0.069759 0.446112 -0.128664
C44   C     C_R   0.958551 0.103490 0.482893 -0.170056
H16   H     H_    0.664788 0.111208 0.319682 0.117594
H17   H     H_    0.876258 0.050718 0.255411 0.122710
H18   H     H_    0.140595 0.024401 0.335841 0.124162
H19   H     H_    0.193598 0.058583 0.481031 0.149256
H20   H     H_    0.983031 0.118487 0.546311 0.124535
C45   C     C_R   0.296833 0.737178 0.590985 0.132925
C46   C     C_R   0.319410 0.726390 0.675074 -0.093860
C47   C     C_R   0.199554 0.693331 0.711894 -0.136534
C48   C     C_R   0.056014 0.671842 0.665198 -0.109457
C49   C     C_R   0.032588 0.682907 0.581565 -0.104978
C50   C     C_R   0.153137 0.714663 0.544327 -0.177092
H21   H     H_    0.429751 0.743365 0.711855 0.122834
H22   H     H_    0.217642 0.684712 0.776641 0.119312
H23   H     H_    0.962872 0.646711 0.693774 0.118435
H24   H     H_    0.921063 0.666722 0.545557 0.124620
H25   H     H_    0.133776 0.722885 0.479480 0.113911
C51   C     C_R   0.730922 0.279138 0.405519 0.136402
C52   C     C_R   0.890378 0.300165 0.428587 -0.130658
C53   C     C_R   0.973079 0.336082 0.373184 -0.127352
C54   C     C_R   0.896585 0.352402 0.295025 -0.138720
C55   C     C_R   0.738009 0.331473 0.271618 -0.134797
C56   C     C_R   0.655593 0.294406 0.326403 -0.096276
H26   H     H_    0.951009 0.287606 0.488915 0.115674
H27   H     H_    0.096564 0.351273 0.390851 0.130908
H28   H     H_    0.960343 0.380924 0.252521 0.123019
H29   H     H_    0.679209 0.343604 0.210881 0.128285
H30   H     H_    0.533518 0.277305 0.307250 0.113296
C57   C     C_3   0.357638 0.373648 0.865547 -0.406731
C58   C     C_3   0.482844 0.318112 0.907910 -0.869630
H31   H     H_    0.558932 0.296548 0.864653 0.254123
H32   H     H_    0.558448 0.346689 0.959193 0.258473
H33   H     H_    0.423390 0.268274 0.931855 0.247018
H34   H     H_    0.281973 0.395041 0.909110 0.229826
H35   H     H_    0.278363 0.341198 0.818375 0.191658
C59   C     C_3   0.796066 0.542253 0.152793 -0.426614
C60   C     C_3   0.797537 0.625502 0.124165 -0.825479
H36   H     H_    0.698848 0.635819 0.073973 0.279382
H37   H     H_    0.785180 0.665336 0.174600 0.247146
H38   H     H_    0.911372 0.637591 0.102341 0.251433
H39   H     H_    0.897004 0.533549 0.202678 0.194978
H40   H     H_    0.816712 0.502951 0.103530 0.238508
C61   C     C_R   0.628821 0.635134 0.878741 0.138046
C62   C     C_R   0.784208 0.659732 0.874803 -0.177351
C63   C     C_R   0.841601 0.727819 0.912930 -0.137876
C64   C     C_R   0.743639 0.772414 0.954111 -0.110897
C65   C     C_R   0.588069 0.749001 0.957188 -0.159813
C66   C     C_R   0.530663 0.680567 0.919753 -0.162571
H41   H     H_    0.860751 0.626216 0.842263 0.108923
H42   H     H_    0.961750 0.746217 0.910149 0.122919
H43   H     H_    0.788070 0.825245 0.983380 0.119843
H44   H     H_    0.512034 0.783794 0.988713 0.129006
H45   H     H_    0.409416 0.663456 0.921976 0.118676
C67   C     C_R   0.218253 0.457357 0.101836 0.134751
C68   C     C_R   0.148296 0.385665 0.112621 -0.182360
C69   C     C_R   0.013408 0.362082 0.059961 -0.153910
C70   C     C_R   0.947450 0.409687 0.996093 -0.138208
C71   C     C_R   0.014540 0.481563 0.985656 -0.156756
C72   C     C_R   0.148375 0.505735 0.038643 -0.144299
H46   H     H_    0.199540 0.347558 0.161023 0.121108
H47   H     H_    0.960552 0.306674 0.068410 0.132305
H48   H     H_    0.843561 0.391265 0.955143 0.139688
H49   H     H_    0.962367 0.518652 0.936716 0.140084
H50   H     H_    0.197840 0.561970 0.030136 0.125010

loop_
_geom_bond_atom_site_label_1
_geom_bond_atom_site_label_2
_ccdc_geom_bond_type
C33   C34   A    
C69   C70   A    
C10   H10   S    
C19   C20   D    
C71   C72   A    
C17   O7    A    
C62   C63   A    
C35   C36   A    
C18   O8    A    
C53   H27   S    
C59   H40   S    
C45   C46   A    
C2    O2    A    
C21   C31   A    
C37   H14   S    
O6    Zn2   S    
C22   C32   A    
C69   H47   S    
C24   C26   A    
C44   H20   S    
C27   C29   A    
C59   C60   S    
C15   C16   T    
C64   C65   A    
C30   H6    S    
C18   C20   S    
C40   H16   S    
C52   H26   S    
C70   H48   S    
C22   C39   S    
C54   H28   S    
C68   H46   S    
N1    Zn1   S    
C57   C58   S    
C41   C42   A    
C60   H36   S    
C43   C44   A    
C7    N1    A    
C5    C13   A    
C62   H41   S    
C20   H2    S    
C61   C66   A    
C39   C40   A    
O1    Zn1   S    
C37   C38   A    
C33   C38   A    
C60   H37   S    
C46   H21   S    
C55   H29   S    
C49   C50   A    
C59   H39   S    
O4    Zn1   S    
C57   H35   S    
C9    N1    A    
C64   H43   S    
C10   N2    A    
C40   C41   A    
C5    C57   S    
C35   H12   S    
C19   H1    S    
C17   O5    A    
C54   C55   A    
C5    C7    A    
C46   C47   A    
C1    O3    A    
C6    C8    A    
C27   H3    S    
C41   H17   S    
C58   H33   S    
C72   H50   S    
C65   H44   S    
C48   H23   S    
C6    C14   A    
C24   C51   S    
C39   C44   A    
C12   C67   S    
O2    Zn2   S    
C58   H32   S    
C6    C59   S    
C49   H24   S    
C42   H18   S    
C23   C45   S    
C3    C31   S    
C9    C11   A    
C4    C32   S    
C10   C12   A    
O3    Zn2   S    
C12   C14   A    
C38   H15   S    
C21   C23   A    
C68   C69   A    
C60   H38   S    
C14   C16   S    
C34   C35   A    
C3    C4    T    
O8    Zn1   S    
C18   O6    A    
C21   C33   S    
C61   C62   A    
C36   H13   S    
C51   C56   A    
C47   H22   S    
C9    H9    S    
C8    N2    A    
C48   C49   A    
C70   C71   A    
C25   C27   A    
C26   C28   A    
O7    Zn2   S    
C2    O4    A    
C13   C15   S    
C36   C37   A    
C29   C31   A    
C65   C66   A    
C30   C32   A    
C11   C13   A    
C1    O1    A    
C53   C54   A    
C1    C26   S    
C45   C50   A    
O5    Zn1   S    
C28   C30   A    
C55   C56   A    
C17   C19   S    
C67   C72   A    
C57   H34   S    
C2    C25   S    
C22   C24   A    
C66   H45   S    
C23   C25   A    
C42   C43   A    
C11   C61   S    
C47   C48   A    
N2    Zn2   S    
C51   C52   A    
C28   H4    S    
C63   H42   S    
C29   H5    S    
C43   H19   S    
C7    H7    S    
C34   H11   S    
C58   H31   S    
C8    H8    S    
C63   C64   A    
C52   C53   A    
C71   H49   S    
C56   H30   S    
C50   H25   S    
C67   C68   A    
