data_mof_unit_10832.cif
_audit_creation_date              2012-12-10T18:47:41-0500
_audit_creation_method            fapswitch 2.2
_symmetry_space_group_name_H-M    P1
_symmetry_Int_Tables_number       1
_space_group_crystal_system       triclinic
_cell_length_a                    9.841449
_cell_length_b                    10.691532
_cell_length_c                    15.276652
_cell_angle_alpha                 90.194177
_cell_angle_beta                  68.427978
_cell_angle_gamma                 90.148561
_cell_volume                      1494.81237814

loop_
_atom_site_label
_atom_site_type_symbol
_atom_type_description
_atom_site_fract_x
_atom_site_fract_y
_atom_site_fract_z
_atom_type_partial_charge
C1    C     C_R   0.499786 0.740037 0.500880 0.957047
C2    C     C_R   0.500121 0.259984 0.499260 0.938930
C3    C     C_R   0.381854 0.304211 0.079510 0.289197
C4    C     C_R   0.703940 0.421215 0.882770 0.294899
C5    C     C_R   0.280697 0.290989 0.035225 -0.281516
C6    C     C_R   0.803260 0.438365 0.927933 -0.295204
C7    C     C_R   0.583565 0.937416 0.543327 0.660097
C8    C     C_R   0.415786 0.062666 0.457291 0.634355
C9    C     C_R   0.583390 0.065649 0.542070 -0.351568
C10   C     C_R   0.416119 0.934464 0.458448 -0.345914
C11   C     C_R   0.499693 0.127643 0.499218 -0.252665
C12   C     C_R   0.499979 0.872430 0.501163 -0.262200
C13   C     C_R   0.961269 0.422196 0.441410 -0.101065
C14   C     C_R   0.038629 0.577575 0.558743 -0.111017
C15   C     C_R   0.105104 0.422147 0.441480 0.025767
C16   C     C_R   0.894780 0.577575 0.558704 -0.000329
C17   C     C_R   0.409303 0.497821 0.676641 0.923621
C18   C     C_R   0.590841 0.497646 0.323178 0.903822
C19   C     C_R   0.357053 0.466740 0.776595 -0.183463
C20   C     C_R   0.648153 0.479592 0.220807 -0.199577
C21   C     C_R   0.201494 0.340574 0.906215 -0.196808
C22   C     C_R   0.850489 0.475760 0.070731 -0.181260
C23   C     C_R   0.229473 0.396132 0.818702 -0.305981
C24   C     C_R   0.798101 0.491315 0.168083 -0.281687
C25   C     C_R   0.454385 0.482554 0.822972 0.617422
C26   C     C_R   0.552488 0.444763 0.175836 0.605553
C27   C     C_R   0.440396 0.409735 0.901655 -0.046343
C28   C     C_R   0.606551 0.414868 0.079788 -0.032635
C29   C     C_R   0.306430 0.347195 0.948265 0.063855
C30   C     C_R   0.754574 0.441822 0.025895 0.057563
C31   C     C_R   0.552956 0.403017 0.938060 0.001161
C32   C     C_R   0.512879 0.373691 0.034094 -0.004347
H1    H     H_    0.180935 0.238377 0.069503 0.145178
H2    H     H_    0.917410 0.454674 0.886367 0.147156
H3    H     H_    0.873909 0.517225 0.201549 0.194815
H4    H     H_    0.154440 0.380602 0.782713 0.181250
H5    H     H_    0.100847 0.288726 0.939204 0.160884
H6    H     H_    0.965004 0.493167 0.030450 0.171331
H7    H     H_    0.646605 0.116382 0.575666 0.202578
H8    H     H_    0.352759 0.883788 0.424946 0.210244
H9    H     H_    0.933324 0.360067 0.394533 0.139534
H10   H     H_    0.066461 0.639478 0.605789 0.147129
H11   H     H_    0.186092 0.359844 0.394699 0.203251
H12   H     H_    0.813617 0.639478 0.605757 0.211200
N1    N     N_R   0.142780 0.500030 0.500020 -0.090980
N2    N     N_R   0.857220 0.499970 0.499980 -0.093912
O1    O     O_R   0.385370 0.683250 0.500010 -0.631558
O2    O     O_R   0.614630 0.316750 0.499990 -0.642307
O3    O     O_R   0.614700 0.683220 0.500000 -0.562007
O4    O     O_R   0.385300 0.316780 0.500000 -0.568414
O5    O     O_R   0.319830 0.500020 0.632250 -0.639655
O6    O     O_R   0.680170 0.499980 0.367750 -0.634902
O7    O     O_R   0.549160 0.499990 0.632240 -0.558782
O8    O     O_R   0.450840 0.500010 0.367760 -0.539660
Zn1   Zn    Zn3+2 0.346870 0.500020 0.500000 0.996131
Zn2   Zn    Zn3+2 0.653130 0.499980 0.500000 0.989261
F1    F     F_    0.405755 0.453057 0.223078 -0.663742
F2    F     F_    0.559730 0.572088 0.792288 -0.652754
N3    N     N_2   0.355886 0.238695 0.165441 -0.251696
H13   H     H_    0.248807 0.214275 0.203351 0.235464
C33   C     C_3   0.461517 0.143984 0.164767 -0.691551
H14   H     H_    0.498252 0.161355 0.224253 0.270341
H15   H     H_    0.558965 0.144225 0.098215 0.214615
H16   H     H_    0.410265 0.049846 0.173399 0.236380
N4    N     N_2   0.759048 0.413041 0.782505 -0.252912
H17   H     H_    0.858747 0.456244 0.749739 0.225605
C34   C     C_3   0.754455 0.289287 0.745051 -0.742535
H18   H     H_    0.793263 0.293918 0.667051 0.247432
H19   H     H_    0.641214 0.251932 0.771421 0.238515
H20   H     H_    0.826469 0.224824 0.765120 0.232899
F3    F     F_    0.661947 0.877456 0.587380 -0.649671
F4    F     F_    0.336633 0.122583 0.413751 -0.673868

loop_
_geom_bond_atom_site_label_1
_geom_bond_atom_site_label_2
_ccdc_geom_bond_type
C33   H16   S    
C19   C23   A    
C3    N3    S    
C27   C29   A    
O3    Zn2   S    
C22   C30   A    
O6    Zn2   S    
C16   H12   S    
C2    O2    A    
C26   C28   A    
O4    Zn1   S    
N4    C34   S    
C28   C32   A    
C14   H10   S    
C34   H20   S    
C6    H2    S    
C20   C24   A    
C17   O5    A    
C13   H9    S    
O1    Zn1   S    
C18   O6    A    
N3    H13   S    
C33   H15   S    
O5    Zn1   S    
C9    C11   A    
N1    Zn1   S    
C4    N4    S    
C1    C12   S    
C20   C26   A    
C8    C11   A    
C22   H6    S    
C2    C11   S    
C10   C12   A    
C22   C24   A    
C28   C30   A    
C17   C19   S    
C23   H4    S    
C14   N1    A    
C5    C29   A    
C13   C15   A    
C21   C23   A    
C7    F3    S    
C7    C12   A    
C19   C25   A    
C26   F1    S    
C14   C16   A    
N3    C33   S    
C24   H3    S    
C8    F4    S    
C33   H14   S    
C15   N1    A    
C16   N2    A    
C34   H18   S    
C4    C31   A    
C17   O7    A    
C9    H7    S    
C21   H5    S    
C27   C31   A    
C18   C20   S    
C7    C9    A    
N4    H17   S    
C25   F2    S    
O7    Zn2   S    
N2    Zn2   S    
O2    Zn2   S    
C18   O8    A    
C13   N2    A    
C1    O1    A    
C10   H8    S    
C15   H11   S    
C2    O4    A    
C3    C32   A    
C34   H19   S    
O8    Zn1   S    
C4    C6    A    
C21   C29   A    
C6    C30   A    
C8    C10   A    
C31   C32   A    
C5    H1    S    
C3    C5    A    
C25   C27   A    
C1    O3    A    
