data_mof_unit_65855.cif
_audit_creation_date              2012-12-10T17:58:27-0500
_audit_creation_method            fapswitch 2.2
_symmetry_space_group_name_H-M    P1
_symmetry_Int_Tables_number       1
_space_group_crystal_system       triclinic
_cell_length_a                    18.375229
_cell_length_b                    25.974536
_cell_length_c                    18.219327
_cell_angle_alpha                 89.999617
_cell_angle_beta                  89.999989
_cell_angle_gamma                 89.947178
_cell_volume                      8695.86330891

loop_
_atom_site_label
_atom_site_type_symbol
_atom_type_description
_atom_site_fract_x
_atom_site_fract_y
_atom_site_fract_z
_atom_type_partial_charge
C1    C     C_R   0.639174 0.750560 0.359009 0.518196
C2    C     C_R   0.860826 0.749440 0.140991 0.518196
C3    C     C_R   0.677383 0.742194 0.227978 0.082772
C4    C     C_R   0.677384 0.742192 0.772022 0.082766
C5    C     C_R   0.322617 0.257804 0.227978 0.082766
C6    C     C_R   0.284875 0.703072 0.266441 0.088776
C7    C     C_R   0.715128 0.296928 0.733555 0.088775
C8    C     C_R   0.215127 0.796928 0.766443 0.088777
C9    C     C_R   0.784873 0.203072 0.233557 0.088777
C10   C     C_R   0.822617 0.757806 0.272022 0.082772
C11   C     C_R   0.177383 0.242195 0.727978 0.082772
C12   C     C_R   0.177383 0.242196 0.272022 0.082766
C13   C     C_R   0.859402 0.249142 0.139560 0.530939
C14   C     C_R   0.822616 0.757808 0.727978 0.082766
C15   C     C_R   0.784872 0.203072 0.766444 0.088775
C16   C     C_R   0.215125 0.796928 0.233558 0.088775
C17   C     C_R   0.140598 0.750858 0.860440 0.530938
C18   C     C_R   0.140598 0.750858 0.139560 0.530936
C19   C     C_R   0.859402 0.249142 0.860440 0.530936
C20   C     C_R   0.860826 0.749440 0.859009 0.518199
C21   C     C_R   0.139174 0.250560 0.140991 0.518199
C22   C     C_R   0.696641 0.251449 0.304286 0.026233
C23   C     C_R   0.303359 0.748551 0.695714 0.026233
C24   C     C_R   0.305252 0.249509 0.697633 0.020744
C25   C     C_R   0.360826 0.249440 0.640991 0.518196
C26   C     C_R   0.694748 0.750491 0.302367 0.020744
C27   C     C_R   0.694748 0.750491 0.697633 0.020743
C28   C     C_R   0.305252 0.249509 0.302367 0.020745
C29   C     C_R   0.303358 0.748551 0.304286 0.026232
C30   C     C_R   0.696642 0.251449 0.695714 0.026234
C31   C     C_R   0.196641 0.751449 0.804286 0.026233
C32   C     C_R   0.803359 0.248551 0.195714 0.026233
C33   C     C_R   0.805252 0.749509 0.197633 0.020744
C34   C     C_R   0.194748 0.250491 0.802367 0.020744
C35   C     C_R   0.194748 0.250491 0.197633 0.020745
C36   C     C_R   0.359402 0.749142 0.639560 0.530938
C37   C     C_R   0.805252 0.749509 0.802367 0.020743
C38   C     C_R   0.803358 0.248551 0.804286 0.026234
C39   C     C_R   0.196642 0.751449 0.195714 0.026232
C40   C     C_R   0.433922 0.973343 0.500000 -0.121283
C41   C     C_R   0.566078 0.026657 0.500000 -0.121283
C42   C     C_R   0.566054 0.973248 0.500000 -0.119295
C43   C     C_R   0.433946 0.026752 0.500000 -0.119295
C44   C     C_R   0.933922 0.473343 0.000000 -0.121283
C45   C     C_R   0.066078 0.526657 1.000000 -0.121283
C46   C     C_R   0.066054 0.473248 1.000000 -0.119295
C47   C     C_R   0.640598 0.250858 0.360440 0.530939
C48   C     C_R   0.933946 0.526752 0.000000 -0.119295
C49   C     C_R   0.500025 0.053710 0.500000 0.038149
C50   C     C_R   0.499975 0.946290 0.500000 0.038149
C51   C     C_R   0.000025 0.553710 1.000000 0.038149
C52   C     C_R   0.999975 0.446290 0.000000 0.038149
C53   C     C_R   0.499979 0.890163 0.500000 0.511377
C54   C     C_R   0.500021 0.109837 0.500000 0.511378
C55   C     C_R   0.999979 0.390163 0.000000 0.511378
C56   C     C_R   0.000021 0.609837 1.000000 0.511377
C57   C     C_R   0.506904 0.609841 0.500001 0.500845
C58   C     C_R   0.640598 0.250858 0.639560 0.530936
C59   C     C_R   0.493096 0.390159 0.499999 0.500845
C60   C     C_R   0.006904 0.109841 0.000001 0.500846
C61   C     C_R   0.993096 0.890159 0.999999 0.500845
C62   C     C_R   0.534613 0.547338 0.365002 -0.076546
C63   C     C_R   0.465387 0.452662 0.634998 -0.076546
C64   C     C_R   0.534567 0.547335 0.635012 -0.076543
C65   C     C_R   0.465433 0.452665 0.364988 -0.076544
C66   C     C_R   0.034615 0.047338 0.865002 -0.076546
C67   C     C_R   0.965385 0.952661 0.134998 -0.076546
C68   C     C_R   0.034565 0.047335 0.135012 -0.076544
C69   C     C_R   0.359402 0.749142 0.360440 0.530936
C70   C     C_R   0.965434 0.952665 0.864988 -0.076543
C71   C     C_R   0.518988 0.523331 0.298368 0.128523
C72   C     C_R   0.481012 0.476669 0.701632 0.128523
C73   C     C_R   0.518919 0.523326 0.701639 0.128525
C74   C     C_R   0.481081 0.476674 0.298361 0.128525
C75   C     C_R   0.018991 0.023331 0.798369 0.128522
C76   C     C_R   0.981009 0.976669 0.201631 0.128523
C77   C     C_R   0.018916 0.023326 0.201639 0.128525
C78   C     C_R   0.981083 0.976674 0.798361 0.128525
C79   C     C_R   0.487409 0.474437 0.432719 -0.010949
C80   C     C_R   0.360826 0.249440 0.359009 0.518199
C81   C     C_R   0.512591 0.525563 0.567280 -0.010949
C82   C     C_R   0.487386 0.474436 0.567276 -0.010951
C83   C     C_R   0.512614 0.525564 0.432724 -0.010951
C84   C     C_R   0.987410 0.974437 0.932719 -0.010949
C85   C     C_R   0.012590 0.025563 0.067281 -0.010949
C86   C     C_R   0.987385 0.974436 0.067276 -0.010951
C87   C     C_R   0.012615 0.025564 0.932724 -0.010951
C88   C     C_R   0.483878 0.446991 0.499997 -0.001759
C89   C     C_R   0.516122 0.553010 0.500003 -0.001759
C90   C     C_R   0.983878 0.946990 0.999997 -0.001759
C91   C     C_R   0.639174 0.750560 0.640991 0.518198
C92   C     C_R   0.016122 0.053009 0.000003 -0.001759
C93   C     C_R   0.268097 0.794917 0.712270 -0.116917
C94   C     C_R   0.731903 0.205083 0.287730 -0.116917
C95   C     C_R   0.767073 0.758479 0.323609 -0.123093
C96   C     C_R   0.232927 0.241522 0.676391 -0.123093
C97   C     C_R   0.232927 0.241524 0.323609 -0.123095
C98   C     C_R   0.767072 0.758481 0.676391 -0.123096
C99   C     C_R   0.731903 0.205083 0.712271 -0.116918
C100  C     C_R   0.268095 0.794917 0.287732 -0.116919
C101  C     C_R   0.768097 0.294917 0.212269 -0.116917
C102  C     C_R   0.139174 0.250560 0.859009 0.518196
C103  C     C_R   0.231903 0.705083 0.787730 -0.116917
C104  C     C_R   0.267073 0.258478 0.823609 -0.123093
C105  C     C_R   0.732927 0.741521 0.176391 -0.123093
C106  C     C_R   0.732928 0.741519 0.823609 -0.123096
C107  C     C_R   0.267073 0.258476 0.176391 -0.123095
C108  C     C_R   0.231905 0.705083 0.212268 -0.116919
C109  C     C_R   0.768098 0.294917 0.787729 -0.116918
C110  C     C_R   0.715127 0.296928 0.266443 0.088777
C111  C     C_R   0.284873 0.703072 0.733557 0.088777
C112  C     C_R   0.322617 0.257805 0.772022 0.082772
H1    H     H_    0.566333 0.582294 0.362887 0.164289
H2    H     H_    0.717093 0.169925 0.316039 0.162351
H3    H     H_    0.780674 0.764173 0.380917 0.162219
H4    H     H_    0.219326 0.235830 0.619083 0.162218
H5    H     H_    0.219326 0.235832 0.380918 0.162216
H6    H     H_    0.780673 0.764176 0.619083 0.162220
H7    H     H_    0.717092 0.169925 0.683963 0.162349
H8    H     H_    0.282903 0.830074 0.316042 0.162351
H9    H     H_    0.782907 0.330075 0.183961 0.162351
H10   H     H_    0.217093 0.669925 0.816039 0.162351
H11   H     H_    0.280674 0.264170 0.880917 0.162218
H12   H     H_    0.433667 0.417706 0.637113 0.164288
H13   H     H_    0.719326 0.735827 0.119083 0.162219
H14   H     H_    0.719327 0.735824 0.880916 0.162220
H15   H     H_    0.280674 0.264167 0.119082 0.162216
H16   H     H_    0.217097 0.669926 0.183958 0.162351
H17   H     H_    0.782908 0.330075 0.816037 0.162349
H18   H     H_    0.382238 0.953326 0.500001 0.156282
H19   H     H_    0.617762 0.046674 0.499999 0.156282
H20   H     H_    0.617731 0.953156 0.499999 0.158406
H21   H     H_    0.382269 0.046844 0.500001 0.158406
H22   H     H_    0.882238 0.453326 0.000000 0.156282
H23   H     H_    0.566289 0.582289 0.637140 0.164306
H24   H     H_    0.117762 0.546674 0.999999 0.156282
H25   H     H_    0.117731 0.453156 0.999999 0.158406
H26   H     H_    0.882269 0.546844 0.000000 0.158406
H27   H     H_    0.433711 0.417711 0.362860 0.164305
H28   H     H_    0.066335 0.082294 0.862888 0.164287
H29   H     H_    0.933665 0.917706 0.137112 0.164288
H30   H     H_    0.066287 0.082289 0.137141 0.164306
H31   H     H_    0.933712 0.917711 0.862859 0.164306
H32   H     H_    0.282907 0.830075 0.683961 0.162351
I1    I     I_    0.551867 0.560746 0.799559 -0.180070
I2    I     I_    0.329123 0.629018 0.710014 -0.251992
I3    I     I_    0.430559 0.265651 0.812994 -0.237593
I4    I     I_    0.569442 0.734345 0.187006 -0.237590
I5    I     I_    0.569443 0.734340 0.812994 -0.237598
I6    I     I_    0.430559 0.265648 0.187007 -0.237606
I7    I     I_    0.329129 0.629018 0.289982 -0.251984
I8    I     I_    0.670878 0.370983 0.710010 -0.251988
I9    I     I_    0.170877 0.870982 0.789986 -0.251992
I10   I     I_    0.829124 0.129018 0.210015 -0.251990
I11   I     I_    0.930558 0.765654 0.312994 -0.237590
I12   I     I_    0.448135 0.439253 0.200440 -0.180071
I13   I     I_    0.069441 0.234349 0.687006 -0.237593
I14   I     I_    0.069441 0.234352 0.312993 -0.237606
I15   I     I_    0.930557 0.765661 0.687006 -0.237598
I16   I     I_    0.829122 0.129017 0.789989 -0.251988
I17   I     I_    0.170871 0.870982 0.210018 -0.251984
I18   I     I_    0.551968 0.560754 0.200460 -0.180111
I19   I     I_    0.448033 0.439246 0.799539 -0.180112
I20   I     I_    0.051860 0.060746 0.299560 -0.180069
I21   I     I_    0.948138 0.939254 0.700440 -0.180068
I22   I     I_    0.051971 0.060754 0.700461 -0.180114
I23   I     I_    0.948028 0.939246 0.299539 -0.180112
I24   I     I_    0.670876 0.370982 0.289985 -0.251990
O1    O     O_3   0.500000 0.750040 0.500000 -0.461907
O2    O     O_R   0.414580 0.719700 0.353880 -0.492301
O3    O     O_R   0.414580 0.280300 0.353880 -0.514007
O4    O     O_R   0.585420 0.719700 0.646120 -0.514007
O5    O     O_R   0.085420 0.219700 0.853880 -0.514005
O6    O     O_R   0.914580 0.780300 0.146120 -0.514004
O7    O     O_R   0.914580 0.219700 0.146120 -0.492303
O8    O     O_R   0.085420 0.780300 0.853880 -0.492303
O9    O     O_R   0.085420 0.780300 0.146120 -0.492301
O10   O     O_R   0.914580 0.219700 0.853880 -0.492302
O11   O     O_R   0.914580 0.780300 0.853880 -0.514007
O12   O     O_3   0.500000 0.249960 0.500000 -0.461907
O13   O     O_R   0.085420 0.219700 0.146120 -0.514007
O14   O     O_R   0.646120 0.780390 0.585510 -0.545207
O15   O     O_R   0.353880 0.219610 0.414490 -0.545206
O16   O     O_R   0.353880 0.780390 0.414490 -0.543423
O17   O     O_R   0.646120 0.219610 0.585510 -0.543422
O18   O     O_R   0.646120 0.219610 0.414490 -0.543422
O19   O     O_R   0.353880 0.780390 0.585510 -0.543422
O20   O     O_R   0.353880 0.219610 0.585510 -0.545206
O21   O     O_R   0.646120 0.780390 0.414490 -0.545207
O22   O     O_R   0.146120 0.280390 0.085510 -0.545205
O23   O     O_3   0.000000 0.250040 0.000000 -0.461907
O24   O     O_R   0.853880 0.719610 0.914490 -0.545207
O25   O     O_R   0.853880 0.280390 0.914490 -0.543422
O26   O     O_R   0.146120 0.719610 0.085510 -0.543423
O27   O     O_R   0.146120 0.719610 0.914490 -0.543422
O28   O     O_R   0.853880 0.280390 0.085510 -0.543422
O29   O     O_R   0.853880 0.719610 0.085510 -0.545207
O30   O     O_R   0.146120 0.280390 0.914490 -0.545206
O31   O     O_R   0.560660 0.865840 0.500000 -0.539527
O32   O     O_R   0.439340 0.134160 0.500000 -0.539527
O33   O     O_R   0.439340 0.865840 0.500000 -0.546046
O34   O     O_3   1.000000 0.749960 0.000000 -0.461907
O35   O     O_R   0.560660 0.134160 0.500000 -0.546046
O36   O     O_R   0.060660 0.365840 0.000000 -0.539527
O37   O     O_R   0.939340 0.634160 0.000000 -0.539527
O38   O     O_R   0.939340 0.365840 0.000000 -0.546046
O39   O     O_R   0.060660 0.634160 0.000000 -0.546046
O40   O     O_R   0.500000 0.634240 0.439310 -0.537353
O41   O     O_R   0.500000 0.365760 0.560690 -0.537352
O42   O     O_R   0.500000 0.634240 0.560690 -0.537368
O43   O     O_R   0.500000 0.365760 0.439310 -0.537369
O44   O     O_R   1.000000 0.134240 0.939310 -0.537352
O45   O     O_R   0.585420 0.719700 0.353880 -0.514005
O46   O     O_R   0.000000 0.865760 0.060690 -0.537352
O47   O     O_R   1.000000 0.134240 0.060690 -0.537370
O48   O     O_R   0.000000 0.865760 0.939310 -0.537369
O49   O     O_R   0.414580 0.280300 0.646120 -0.514005
O50   O     O_R   0.414580 0.719700 0.646120 -0.492303
O51   O     O_R   0.585420 0.280300 0.353880 -0.492303
O52   O     O_R   0.585420 0.280300 0.646120 -0.492302
Zn1   Zn    Zn3+2 0.500000 0.706650 0.586810 0.994953
Zn2   Zn    Zn3+2 0.413290 0.206580 0.500000 0.955570
Zn3   Zn    Zn3+2 0.413290 0.793420 0.500000 0.968141
Zn4   Zn    Zn3+2 0.586710 0.206580 0.500000 0.968143
Zn5   Zn    Zn3+2 0.086710 0.293420 0.000000 0.955570
Zn6   Zn    Zn3+2 0.913290 0.706580 0.000000 0.955569
Zn7   Zn    Zn3+2 0.913290 0.293420 0.000000 0.968142
Zn8   Zn    Zn3+2 0.086710 0.706580 0.000000 0.968141
Zn9   Zn    Zn3+2 0.500000 0.293350 0.413190 0.994953
Zn10  Zn    Zn3+2 0.500000 0.706650 0.413190 0.994960
Zn11  Zn    Zn3+2 0.500000 0.293350 0.586810 0.994960
Zn12  Zn    Zn3+2 0.000000 0.206650 0.086810 0.994953
Zn13  Zn    Zn3+2 1.000000 0.793350 0.913190 0.994953
Zn14  Zn    Zn3+2 0.000000 0.206650 0.913190 0.994960
Zn15  Zn    Zn3+2 1.000000 0.793350 0.086810 0.994961
Zn16  Zn    Zn3+2 0.586710 0.793420 0.500000 0.955569

loop_
_geom_bond_atom_site_label_1
_geom_bond_atom_site_label_2
_ccdc_geom_bond_type
C28   C97   A    
C11   C96   A    
O16   Zn3   S    
C55   O36   A    
C62   C83   A    
O3    Zn9   S    
O12   Zn11  S    
C65   C79   A    
O1    Zn16  S    
C70   C78   A    
O22   Zn5   S    
C41   C42   A    
C13   C32   S    
C25   O49   A    
O46   Zn15  S    
C24   C112  A    
C84   C87   A    
O5    Zn14  S    
O11   Zn13  S    
O6    Zn15  S    
C63   H12   S    
C94   H2    S    
O34   Zn6   S    
C104  H11   S    
C85   C86   A    
C3    C105  A    
C102  O5    A    
C21   O13   A    
C4    I5    S    
C57   O40   A    
C70   H31   S    
C34   C102  S    
C57   C89   S    
O27   Zn8   S    
C71   I18   S    
C60   O47   A    
C102  O30   A    
C40   C50   A    
C18   O26   A    
C45   C51   A    
O13   Zn12  S    
C54   O35   A    
C2    O29   A    
C46   C52   A    
C68   C77   A    
C54   O32   A    
O1    Zn10  S    
C76   I23   S    
C103  C111  A    
C51   C56   S    
O41   Zn11  S    
C80   O15   A    
O26   Zn8   S    
C43   H21   S    
O21   Zn16  S    
C59   C88   S    
C40   H18   S    
O4    Zn1   S    
C9    C32   A    
O34   Zn15  S    
C110  I24   S    
C40   C43   A    
O1    Zn1   S    
C56   O37   A    
C18   O9    A    
C95   H3    S    
O23   Zn12  S    
C78   I21   S    
C13   O28   A    
O35   Zn4   S    
C64   C73   A    
O12   Zn2   S    
C100  H8    S    
C61   O48   A    
C20   C37   S    
O20   Zn2   S    
C10   C33   A    
C70   C84   A    
O52   Zn11  S    
O30   Zn5   S    
O14   Zn16  S    
C72   C73   A    
C81   C89   A    
O29   Zn6   S    
C44   C52   A    
C77   I20   S    
O24   Zn6   S    
C22   C47   S    
O28   Zn7   S    
C3    I4    S    
O23   Zn5   S    
C7    C30   A    
C27   C98   A    
C58   O17   A    
C68   C85   A    
C22   C94   A    
C58   O52   A    
O2    Zn10  S    
O51   Zn9   S    
C41   C49   A    
C79   C88   A    
C85   C92   A    
C59   O43   A    
C14   C98   A    
C20   O11   A    
C29   C69   S    
C60   C92   S    
C44   H22   S    
C39   C108  A    
C83   C89   A    
C12   C35   A    
O12   Zn9   S    
C48   C51   A    
C50   C53   S    
C63   C82   A    
O47   Zn12  S    
C53   O31   A    
C45   H24   S    
C33   C105  A    
C24   C25   S    
O25   Zn7   S    
C62   H1    S    
O9    Zn15  S    
C86   C90   A    
C111  I2    S    
C36   O50   A    
C66   C87   A    
C41   H19   S    
C16   C100  A    
O34   Zn8   S    
C81   C82   A    
C22   C110  A    
C101  C110  A    
C45   C46   A    
C47   O51   A    
C30   C99   A    
O17   Zn4   S    
C101  H9    S    
C65   C74   A    
C23   C93   A    
C73   I1    S    
O23   Zn14  S    
C31   C103  A    
C6    C29   A    
C18   C39   S    
C15   C38   A    
C25   O20   A    
C5    C28   A    
O8    Zn13  S    
O19   Zn3   S    
C69   O16   A    
C74   I12   S    
O37   Zn6   S    
C76   C77   A    
C47   O18   A    
C68   H30   S    
C8    I9    S    
C60   O44   A    
C19   O10   A    
C12   C97   A    
C93   H32   S    
O48   Zn13  S    
C42   C50   A    
C46   H25   S    
C6    I7    S    
C91   O4    A    
C2    C33   S    
C9    I10   S    
C19   O25   A    
C1    O45   A    
C1    C26   S    
C17   C31   S    
C17   O27   A    
C27   C91   S    
C61   O46   A    
O33   Zn3   S    
C67   H29   S    
C4    C27   A    
C61   C90   S    
C11   I13   S    
O50   Zn1   S    
C104  C112  A    
C5    C107  A    
C84   C90   A    
C26   C95   A    
C13   O7    A    
C55   O38   A    
O18   Zn4   S    
C57   O42   A    
C67   C86   A    
O23   Zn7   S    
O7    Zn12  S    
O43   Zn9   S    
C29   C100  A    
C8    C31   A    
C53   O33   A    
C3    C26   A    
C43   C49   A    
C8    C93   A    
C38   C109  A    
O10   Zn14  S    
C10   I11   S    
C20   O24   A    
C71   C74   A    
O44   Zn14  S    
C17   O8    A    
C21   C35   S    
C105  H13   S    
C16   I17   S    
C23   C111  A    
C106  H14   S    
C59   O41   A    
C112  I3    S    
C48   H26   S    
C14   I15   S    
C36   O19   A    
O32   Zn2   S    
C24   C96   A    
C107  H15   S    
C37   C106  A    
C44   C48   A    
O31   Zn16  S    
C2    O6    A    
O34   Zn13  S    
C79   C83   A    
C52   C55   S    
C103  H10   S    
C11   C34   A    
C21   O22   A    
O1    Zn3   S    
C56   O39   A    
C4    C106  A    
C10   C95   A    
O15   Zn2   S    
C82   C88   A    
C66   C75   A    
C30   C58   S    
C98   H6    S    
C72   I19   S    
C62   C71   A    
O12   Zn4   S    
C75   I22   S    
C69   O2    A    
C97   H5    S    
C28   C80   S    
C75   C78   A    
C34   C104  A    
C64   C81   A    
C64   H23   S    
C35   C107  A    
C5    I6    S    
C16   C39   A    
C99   H7    S    
C7    I8    S    
C65   H27   S    
C7    C109  A    
O39   Zn8   S    
C15   I16   S    
C19   C38   S    
C66   H28   S    
C63   C72   A    
C23   C36   S    
C15   C99   A    
C91   O14   A    
O38   Zn7   S    
O42   Zn1   S    
C6    C108  A    
C32   C101  A    
C96   H4    S    
C42   H20   S    
C67   C76   A    
C108  H16   S    
C80   O3    A    
C12   I14   S    
O36   Zn5   S    
C87   C92   A    
C109  H17   S    
C9    C94   A    
O49   Zn11  S    
O45   Zn10  S    
C49   C54   S    
O40   Zn10  S    
C14   C37   A    
C1    O21   A    
