data_mof_unit_26130.cif
_audit_creation_date              2012-12-10T17:56:43-0500
_audit_creation_method            fapswitch 2.2
_symmetry_space_group_name_H-M    P1
_symmetry_Int_Tables_number       1
_space_group_crystal_system       triclinic
_cell_length_a                    10.825635
_cell_length_b                    9.51947
_cell_length_c                    10.837519
_cell_angle_alpha                 89.109725
_cell_angle_beta                  91.288265
_cell_angle_gamma                 89.626453
_cell_volume                      1116.40956994

loop_
_atom_site_label
_atom_site_type_symbol
_atom_type_description
_atom_site_fract_x
_atom_site_fract_y
_atom_site_fract_z
_atom_type_partial_charge
C1    C     C_R   0.262035 0.500348 0.497789 0.788763
C2    C     C_R   0.737552 0.499619 0.497401 0.811011
C3    C     C_R   0.932546 0.601977 0.419746 0.410577
C4    C     C_R   0.060901 0.603194 0.421232 0.410193
C5    C     C_R   0.412654 0.076238 0.433805 0.001637
C6    C     C_R   0.586925 0.072614 0.566837 -0.004662
C7    C     C_R   0.412250 0.927521 0.434467 -0.011848
C8    C     C_R   0.587058 0.923790 0.566655 0.019976
C9    C     C_R   0.493547 0.501815 0.261927 0.774011
C10   C     C_R   0.494327 0.499018 0.737163 0.794845
C11   C     C_R   0.342570 0.713433 0.113937 -0.406331
C12   C     C_R   0.318753 0.680520 0.860474 -0.377698
C13   C     C_R   0.263018 0.803103 0.044490 0.479488
C14   C     C_R   0.249117 0.784545 0.917740 0.464562
C15   C     C_R   0.404393 0.595240 0.928520 0.060463
C16   C     C_R   0.411541 0.605711 0.058347 0.069076
C17   C     C_R   0.485476 0.505840 0.127154 -0.059962
C18   C     C_R   0.481249 0.497192 0.869945 -0.057232
C19   C     C_R   0.551912 0.402478 0.066104 -0.187447
C20   C     C_R   0.551523 0.399657 0.938912 -0.193762
C21   C     C_R   0.065436 0.396220 0.557014 -0.208052
C22   C     C_R   0.937662 0.395475 0.556374 -0.209555
C23   C     C_R   0.870842 0.499009 0.490146 -0.218212
C24   C     C_R   0.127822 0.500698 0.491711 -0.216088
Cu1   Cu    Cu3+1 0.500000 0.640660 0.500000 0.956988
Cu2   Cu    Cu3+1 0.500000 0.359340 0.500000 0.959419
H1    H     H_    0.608220 0.326002 0.117244 0.167058
H2    H     H_    0.608916 0.322906 0.894028 0.156252
H3    H     H_    0.348871 0.731071 0.210846 0.167562
H4    H     H_    0.302738 0.665305 0.762859 0.172374
H5    H     H_    0.342693 0.133623 0.380578 0.136768
H6    H     H_    0.656413 0.127210 0.620586 0.120641
H7    H     H_    0.341127 0.873269 0.383170 0.127751
H8    H     H_    0.656680 0.866334 0.620263 0.135666
N1    N     N_R   0.500000 0.852070 0.500000 -0.167651
N2    N     N_R   0.500000 0.147940 0.500000 -0.166932
O1    O     O_R   0.319640 0.618740 0.499990 -0.587763
O2    O     O_R   0.680360 0.618740 0.500010 -0.568871
O3    O     O_R   0.319620 0.381170 0.499990 -0.578555
O4    O     O_R   0.680380 0.381170 0.500010 -0.579820
O5    O     O_R   0.500000 0.618810 0.319650 -0.591112
O6    O     O_R   0.500000 0.618810 0.680350 -0.581665
O7    O     O_R   0.499970 0.381240 0.319640 -0.576290
O8    O     O_R   0.500030 0.381240 0.680360 -0.581054
O9    O     O_3   0.195992 0.908618 0.098601 -0.656492
H9    H     H_    0.216746 0.910193 0.188089 0.326104
O10   O     O_3   0.166971 0.870030 0.851840 -0.676871
H10   H     H_    0.168235 0.844661 0.763456 0.318147
H11   H     H_    0.115730 0.316812 0.610833 0.186688
H12   H     H_    0.890869 0.315809 0.610065 0.173916
O11   O     O_3   0.871353 0.698605 0.343597 -0.660544
H13   H     H_    0.793241 0.656673 0.313003 0.322185
O12   O     O_3   0.117286 0.700852 0.346817 -0.688721
H14   H     H_    0.191787 0.655853 0.314221 0.301071

loop_
_geom_bond_atom_site_label_1
_geom_bond_atom_site_label_2
_ccdc_geom_bond_type
Cu1   O6    S    
C5    H5    S    
C15   C18   A    
C6    H6    S    
C6    N2    A    
O12   H14   S    
C14   O10   S    
C2    O4    A    
C4    O12   S    
C10   O6    A    
C19   H1    S    
C11   C16   A    
C2    O2    A    
C9    O5    A    
C19   C20   A    
C12   C15   A    
C1    O1    A    
C22   H12   S    
Cu1   O1    S    
C21   H11   S    
Cu2   O8    S    
C8    H8    S    
C13   C14   A    
C13   O9    S    
C7    H7    S    
Cu2   O4    S    
C7    N1    A    
Cu1   N1    S    
C4    C24   A    
C9    C17   S    
C17   C19   A    
C10   C18   S    
Cu2   O7    S    
C18   C20   A    
Cu1   O2    S    
Cu2   O3    S    
C9    O7    A    
C1    O3    A    
C10   O8    A    
C15   C16   A    
C5    N2    A    
O9    H9    S    
C11   C13   A    
C11   H3    S    
C1    C24   S    
Cu1   O5    S    
C21   C24   A    
Cu2   N2    S    
C2    C23   S    
C5    C7    A    
C3    O11   S    
C22   C23   A    
C6    C8    A    
C20   H2    S    
C12   H4    S    
Cu1   Cu2   S    
C21   C22   A    
C3    C23   A    
C3    C4    A    
O11   H13   S    
C12   C14   A    
C16   C17   A    
O10   H10   S    
C8    N1    A    
