data_mof_unit_67780.cif
_audit_creation_date              2013-03-05T15:41:21-0500
_audit_creation_method            fapswitch 2.2
_symmetry_space_group_name_H-M    P1
_symmetry_Int_Tables_number       1
_space_group_crystal_system       triclinic
_cell_length_a                    7.930435
_cell_length_b                    8.690106
_cell_length_c                    10.730869
_cell_angle_alpha                 90.35521
_cell_angle_beta                  86.611718
_cell_angle_gamma                 93.033423
_cell_volume                      737.201365735

loop_
_atom_site_label
_atom_site_type_symbol
_atom_site_description
_atom_site_fract_x
_atom_site_fract_y
_atom_site_fract_z
_atom_type_partial_charge
O1    O     O_R   0.389250 0.738570 0.508370 -0.678887
O2    O     O_R   0.678390 0.711620 0.486510 -0.555578
C1    C     C_R   0.546179 0.793168 0.493146 0.757622
O3    O     O_R   0.355430 0.513500 0.696140 -0.589981
O4    O     O_R   0.644580 0.486550 0.674270 -0.577926
C2    C     C_R   0.503508 0.502964 0.741017 0.878945
Zn1   Zn    Zn3+2 0.306940 0.517990 0.514600 0.975021
Zn2   Zn    Zn3+2 0.693060 0.482010 0.485400 1.137800
O5    O     O_R   0.321610 0.288380 0.513490 -0.636040
O6    O     O_R   0.610750 0.261430 0.491630 -0.487075
O7    O     O_R   0.355420 0.513450 0.325730 -0.651980
O8    O     O_R   0.644570 0.486500 0.303860 -0.525538
C3    C     C_R   0.457030 0.206372 0.498757 0.987358
C4    C     C_R   0.500765 0.507573 0.258504 0.864581
C5    C     C_3   0.346303 0.576938 0.939990 0.328681
H1    H     H_    0.262458 0.473969 0.943424 0.133323
C6    C     C_3   0.365158 0.612373 0.078687 0.165436
H2    H     H_    0.244756 0.575040 0.128471 0.189648
H3    H     H_    0.401776 0.273018 0.893822 0.061181
H4    H     H_    0.350272 0.302646 0.097938 0.130559
C7    C     C_3   0.513793 0.337516 0.928069 0.319908
C8    C     C_3   0.664182 0.607444 0.918803 -0.458430
C9    C     C_3   0.510285 0.507713 0.876566 -0.248325
H5    H     H_    0.780912 0.583608 0.862704 0.276503
H6    H     H_    0.644747 0.730598 0.899322 0.144357
C10   C     C_3   0.507378 0.511477 0.121136 -0.189035
C11   C     C_3   0.483180 0.342638 0.072364 -0.561575
C12   C     C_3   0.679055 0.587164 0.061418 0.424441
H7    H     H_    0.698400 0.704684 0.101616 0.147467
H8    H     H_    0.559529 0.261032 0.120122 0.288361
C13   C     C_2   0.578762 0.954620 0.482441 0.320206
C14   C     C_2   0.442240 0.042810 0.493650 -0.552993
H9    H     H_    0.314172 0.993031 0.504077 0.152458
N1    N     N_2   0.950330 0.457950 0.465890 -0.084890
H10   H     H_    0.012795 0.385554 0.404879 0.245753
N2    N     N_2   0.049670 0.542050 0.534110 -0.153703
H11   H     H_    0.987371 0.614538 0.595157 0.200799
S1    S     S_3+6 0.869471 0.495266 0.095562 0.020414
O9    O     O_2   0.963544 0.603341 0.179550 -0.349527
O10   O     O_2   0.838698 0.343637 0.160973 -0.266317
O11   O     O_3   0.984772 0.464583 0.964113 -0.541697
H12   H     H_    0.015239 0.355729 0.968617 0.384112
S2    S     S_3+6 0.684676 0.217469 0.871942 0.035532
O12   O     O_2   0.822024 0.305805 0.796430 -0.234278
O13   O     O_2   0.760837 0.139349 0.978118 -0.301281
O14   O     O_3   0.604848 0.079141 0.779194 -0.613064
H13   H     H_    0.685989 0.996255 0.778507 0.375273
S3    S     S_3+6 0.798313 0.019986 0.453184 0.017273
O15   O     O_2   0.809989 0.128867 0.344826 -0.283272
O16   O     O_2   0.858496 0.103625 0.566519 -0.290235
O17   O     O_3   0.929347 0.877141 0.419297 -0.563904
H14   H     H_    0.041965 0.916918 0.443686 0.348821
O18   O     O_3   0.242923 0.676318 0.877265 -0.582865
C15   C     C_3   0.318561 0.812743 0.824389 0.183487
H15   H     H_    0.417679 0.789492 0.750904 0.116724
H16   H     H_    0.379349 0.886153 0.894541 0.202304
C16   C     C_3   0.174314 0.894100 0.765425 -0.344733
H17   H     H_    0.166994 0.857475 0.666705 0.217556
H18   H     H_    0.050353 0.857445 0.813204 0.251518
C17   C     C_3   0.189825 0.069079 0.773064 -0.835829
H19   H     H_    0.172072 0.107558 0.871282 0.245022
H20   H     H_    0.089829 0.118464 0.720384 0.323329
H21   H     H_    0.313127 0.113642 0.731849 0.285951
O19   O     O_3   0.414308 0.770286 0.095767 -0.670613
C18   C     C_3   0.305796 0.849781 0.179425 0.156325
H22   H     H_    0.385853 0.914175 0.245638 0.146458
H23   H     H_    0.213403 0.776266 0.237416 0.191049
C19   C     C_3   0.217253 0.965133 0.103956 -0.456385
H24   H     H_    0.314346 0.043456 0.055527 0.229108
H25   H     H_    0.141583 0.902304 0.034369 0.280319
C20   C     C_3   0.098400 0.059508 0.182977 -0.730957
H26   H     H_    0.982448 0.985801 0.204194 0.340345
H27   H     H_    0.065124 0.159532 0.127918 0.284686
H28   H     H_    0.156554 0.101662 0.269398 0.250897

loop_
_geom_bond_atom_site_label_1
_geom_bond_atom_site_label_2
_geom_bond_distance
_ccdc_geom_bond_type
O1    C1    1.309603 A    
O4    Zn2   2.040968 S    
S1    O10   1.498566 D    
S2    O12   1.499068 D    
O6    C3    1.283978 A    
O14   H13   0.990638 S    
C6    C10   1.555214 S    
H4    C11   1.111432 S    
C20   H28   1.111470 S    
Zn1   N2    2.060179 S    
C3    C14   1.420988 S    
C10   C12   1.582473 S    
C13   C14   1.358412 D    
C18   H23   1.110741 S    
C12   S1    1.802505 S    
Zn2   O8    2.008856 S    
C18   C19   1.518401 S    
O19   C18   1.409812 S    
S3    O16   1.502032 D    
O2    C1    1.294520 A    
C10   C11   1.560780 S    
C20   H26   1.105616 S    
C18   H22   1.109897 S    
Zn2   N1    2.060178 S    
O18   C15   1.407172 S    
C4    C10   1.472445 S    
C11   H8    1.103986 S    
C1    C13   1.417249 S    
S2    O13   1.502716 D    
C16   H17   1.108167 S    
O4    C2    1.306097 A    
N2    H11   1.029370 S    
C19   C20   1.502927 S    
O1    Zn1   1.992217 S    
C2    C9    1.458977 S    
C5    O18   1.420714 S    
C17   H20   1.106622 S    
C12   H7    1.112821 S    
H3    C7    1.105314 S    
N1    N2    1.300492 D    
O8    C4    1.288348 A    
C6    H2    1.100658 S    
C8    H5    1.102328 S    
C13   S3    1.812656 S    
C7    C9    1.584309 S    
C6    O19   1.420355 S    
C7    C11   1.553822 S    
S1    O9    1.498588 D    
C19   H24   1.108073 S    
S2    O14   1.677930 S    
C15   H16   1.100206 S    
C16   H18   1.113580 S    
O3    C2    1.303112 A    
C17   H21   1.101210 S    
C5    C9    1.577772 S    
O17   H14   0.989681 S    
Zn1   O5    2.004782 S    
S1    O11   1.662988 S    
Zn2   O6    1.992216 S    
N1    H10   1.029255 S    
O11   H12   0.990804 S    
C20   H27   1.106043 S    
O7    C4    1.326309 A    
C5    C6    1.532338 S    
C19   H25   1.108633 S    
O5    C3    1.321270 A    
C15   H15   1.105483 S    
S3    O15   1.499181 D    
Zn1   O7    2.040967 S    
C8    C12   1.553678 S    
O3    Zn1   2.008857 S    
C7    S2    1.825630 S    
C8    H6    1.112153 S    
S3    O17   1.685012 S    
O2    Zn2   2.004782 S    
C8    C9    1.547469 S    
C5    H1    1.085684 S    
C14   H9    1.082509 S    
C17   H19   1.107050 S    
C16   C17   1.521144 S    
C15   C16   1.544504 S    
