data_mof_unit_24000.cif
_audit_creation_date              2012-12-10T20:26:24-0500
_audit_creation_method            fapswitch 2.2
_symmetry_space_group_name_H-M    P1
_symmetry_Int_Tables_number       1
_space_group_crystal_system       triclinic
_cell_length_a                    10.585665
_cell_length_b                    10.662161
_cell_length_c                    9.849174
_cell_angle_alpha                 90.915329
_cell_angle_beta                  90.370438
_cell_angle_gamma                 89.380827
_cell_volume                      1111.40874222

loop_
_atom_site_label
_atom_site_type_symbol
_atom_type_description
_atom_site_fract_x
_atom_site_fract_y
_atom_site_fract_z
_atom_type_partial_charge
C1    C     C_R   0.502160 0.259805 0.498848 0.921183
C2    C     C_R   0.492970 0.127643 0.497013 -0.254628
C3    C     C_R   0.422877 0.065838 0.394904 0.532891
C4    C     C_R   0.411296 0.935834 0.398490 -0.167002
C5    C     C_R   0.470215 0.871198 0.506426 -0.240139
C6    C     C_R   0.515792 0.937115 0.619150 0.097378
C7    C     C_3   0.633299 0.917383 0.701889 -0.482832
C8    C     C_3   0.658181 0.056793 0.684898 -0.179409
C9    C     C_R   0.434380 0.411241 0.069343 0.268087
C10   C     C_R   0.573211 0.580716 0.073956 -0.097682
C11   C     C_R   0.573221 0.580727 0.929873 -0.148687
C12   C     C_R   0.261889 0.499886 0.499229 0.944444
C13   C     C_R   0.434266 0.411386 0.926676 0.211866
C14   C     C_3   0.295203 0.391110 0.919732 -0.526575
C15   C     C_3   0.295409 0.390565 0.073786 -0.498602
C16   C     C_R   0.491289 0.739558 0.501170 0.913011
C17   C     C_R   0.737057 0.486130 0.499953 0.909763
C18   C     C_2   0.934972 0.420705 0.389885 0.050979
C19   C     C_2   0.867773 0.451390 0.501695 -0.389846
C20   C     C_2   0.071905 0.423948 0.401113 -0.212688
C21   C     C_2   0.128524 0.495830 0.495525 -0.373640
C22   C     C_R   0.533760 0.062756 0.610357 0.016627
H1    H     H_    0.630540 0.647339 0.129979 0.143671
H2    H     H_    0.630594 0.647315 0.876962 0.144174
H3    H     H_    0.242697 0.472419 0.876921 0.214912
H4    H     H_    0.271557 0.298606 0.873110 0.208618
H5    H     H_    0.242927 0.471226 0.119769 0.211842
H6    H     H_    0.271864 0.297700 0.115846 0.251635
H7    H     H_    0.911496 0.453733 0.601694 0.146087
H8    H     H_    0.127220 0.369994 0.327568 0.180483
H9    H     H_    0.078823 0.554288 0.569156 0.137307
H10   H     H_    0.610822 0.892761 0.808274 0.178735
H11   H     H_    0.702435 0.852354 0.652234 0.196115
H12   H     H_    0.654751 0.109479 0.783181 0.143985
N1    N     N_R   0.499170 0.499140 0.142800 -0.106585
N2    N     N_R   0.499170 0.499180 0.857150 -0.109853
O1    O     O_R   0.500020 0.316790 0.614690 -0.627861
O2    O     O_R   0.500000 0.316760 0.385350 -0.574696
O3    O     O_R   0.319080 0.500020 0.614640 -0.625292
O4    O     O_R   0.319070 0.499980 0.385300 -0.602003
O5    O     O_R   0.500000 0.683240 0.614650 -0.615955
O6    O     O_R   0.499980 0.683210 0.385310 -0.619912
O7    O     O_R   0.680930 0.500020 0.614700 -0.626030
O8    O     O_R   0.680920 0.499980 0.385360 -0.609361
Zn1   Zn    Zn3+2 0.500010 0.500020 0.653130 0.926351
Zn2   Zn    Zn3+2 0.499990 0.499980 0.346870 0.968708
C23   C     C_R   0.878516 0.384095 0.255931 0.159713
C24   C     C_R   0.920467 0.439391 0.135864 -0.180457
C25   C     C_R   0.865073 0.407611 0.010880 -0.134778
C26   C     C_R   0.768417 0.319520 0.004454 -0.136271
C27   C     C_R   0.728967 0.260838 0.122338 -0.150656
C28   C     C_R   0.784214 0.292281 0.247333 -0.062408
H13   H     H_    0.994374 0.508570 0.139044 0.119098
H14   H     H_    0.896117 0.452290 0.919167 0.128159
H15   H     H_    0.723160 0.297747 0.908384 0.124312
H16   H     H_    0.654340 0.192278 0.117207 0.140256
H17   H     H_    0.751264 0.247620 0.338039 0.127969
C29   C     C_R   0.775792 0.079925 0.600937 0.170899
C30   C     C_R   0.793580 0.022667 0.472100 -0.181895
C31   C     C_R   0.907910 0.035192 0.403472 -0.168353
C32   C     C_R   0.005492 0.105178 0.461804 -0.103436
C33   C     C_R   0.988830 0.162974 0.588782 -0.125867
C34   C     C_R   0.874744 0.150625 0.657896 -0.172063
H18   H     H_    0.720080 0.966529 0.425511 0.136691
H19   H     H_    0.920893 0.990388 0.305065 0.145258
H20   H     H_    0.093961 0.114731 0.408606 0.163911
H21   H     H_    0.064606 0.217139 0.634012 0.140120
H22   H     H_    0.865120 0.193914 0.757285 0.121962
F1    F     F_    0.366443 0.130827 0.293056 -0.699466
C35   C     C_R   0.338346 0.870286 0.290563 0.222033
C36   C     C_R   0.378583 0.871730 0.154949 -0.073873
C37   C     C_R   0.310529 0.807127 0.054244 -0.147890
C38   C     C_R   0.201450 0.742093 0.088106 -0.132097
C39   C     C_R   0.160487 0.741273 0.222763 -0.141077
C40   C     C_R   0.228908 0.804578 0.323869 -0.138252
H23   H     H_    0.463319 0.921291 0.127775 0.119323
H24   H     H_    0.342481 0.807285 0.950051 0.137483
H25   H     H_    0.148800 0.692204 0.010104 0.119193
H26   H     H_    0.075847 0.691569 0.249191 0.133298
H27   H     H_    0.196597 0.802695 0.427952 0.109586

loop_
_geom_bond_atom_site_label_1
_geom_bond_atom_site_label_2
_ccdc_geom_bond_type
C38   C39   A    
C18   C23   S    
C4    C35   S    
C7    C8    S    
C20   H8    S    
O4    Zn2   S    
C21   H9    S    
C30   H18   S    
C33   C34   A    
C33   H21   S    
C11   N2    A    
C3    F1    S    
C1    C2    S    
C36   H23   S    
C25   H14   S    
C6    C22   A    
C11   H2    S    
C27   H16   S    
O6    Zn2   S    
C9    C13   A    
C5    C16   S    
C8    C29   S    
C32   H20   S    
C2    C22   A    
C8    C22   S    
C38   H25   S    
C10   N1    A    
C40   H27   S    
C1    O1    A    
O3    Zn1   S    
C30   C31   A    
C13   C14   S    
C7    H11   S    
O8    Zn2   S    
C24   H13   S    
C39   C40   A    
C27   C28   A    
C13   N2    A    
C28   H17   S    
C18   C19   D    
C29   C30   A    
C12   C21   S    
C31   C32   A    
C12   O4    A    
C23   C28   A    
C17   O7    A    
C37   H24   S    
C15   H5    S    
C23   C24   A    
C26   C27   A    
N2    Zn1   S    
C8    H12   S    
C14   H4    S    
O7    Zn1   S    
C35   C36   A    
C1    O2    A    
C24   C25   A    
C31   H19   S    
C39   H26   S    
O1    Zn1   S    
C3    C4    A    
C19   H7    S    
C16   O6    A    
C29   C34   A    
C34   H22   S    
C7    H10   S    
C37   C38   A    
C6    C7    S    
C10   H1    S    
C26   H15   S    
C12   O3    A    
C2    C3    A    
C9    C15   S    
C17   O8    A    
C36   C37   A    
C15   H6    S    
C5    C6    A    
C17   C19   S    
C18   C20   S    
C14   H3    S    
C32   C33   A    
O2    Zn2   S    
C10   C11   A    
C4    C5    A    
C20   C21   D    
C25   C26   A    
C35   C40   A    
C9    N1    A    
O5    Zn1   S    
C14   C15   S    
N1    Zn2   S    
C16   O5    A    
