data_mof_unit_13785.cif
_audit_creation_date              2012-10-26T21:20:12-0400
_audit_creation_method            fapswitch 2.2
_symmetry_space_group_name_H-M    P1
_symmetry_Int_Tables_number       1
_space_group_crystal_system       triclinic
_cell_length_a                    13.010805
_cell_length_b                    10.810452
_cell_length_c                    9.566298
_cell_angle_alpha                 89.476973
_cell_angle_beta                  95.224637
_cell_angle_gamma                 91.120571
_cell_volume                      1339.6425364

loop_
_atom_site_label
_atom_site_type_symbol
_atom_type_description
_atom_site_fract_x
_atom_site_fract_y
_atom_site_fract_z
_atom_type_partial_charge
C1    C     C_R   0.499887 0.262251 0.500330 0.566095
C2    C     C_R   0.698781 0.498867 0.525232 0.572801
C3    C     C_R   0.810764 0.503834 0.538066 0.011961
C4    C     C_R   0.189236 0.496166 0.461933 0.011960
C5    C     C_R   0.034943 0.391690 0.362402 -0.102902
C6    C     C_R   0.965057 0.608311 0.637597 -0.102901
C7    C     C_R   0.140193 0.412558 0.366612 -0.143775
C8    C     C_R   0.859807 0.587443 0.633387 -0.143775
C9    C     C_R   0.132511 0.563911 0.552784 0.073516
C10   C     C_R   0.867489 0.436090 0.447216 0.073518
C11   C     C_R   0.024713 0.543468 0.548373 0.013854
C12   C     C_R   0.500113 0.737749 0.499670 0.566095
C13   C     C_R   0.975287 0.456533 0.451627 0.013854
C14   C     C_R   0.472750 0.064498 0.375262 -0.137164
C15   C     C_R   0.527249 0.935502 0.624738 -0.137163
C16   C     C_R   0.472631 0.936515 0.374898 -0.101555
C17   C     C_R   0.527368 0.063484 0.625102 -0.101553
C18   C     C_2   0.813235 0.343075 0.351588 0.587724
C19   C     C_2   0.186765 0.656926 0.648412 0.587725
C20   C     C_2   0.355245 0.344581 0.843131 0.602956
C21   C     C_2   0.644753 0.655423 0.156869 0.602954
C22   C     C_R   0.500124 0.871660 0.499535 0.029775
C23   C     C_R   0.499876 0.128340 0.500465 0.029776
C24   C     C_R   0.431925 0.427334 0.068074 0.009806
C25   C     C_R   0.568075 0.572666 0.931926 0.009807
C26   C     C_R   0.431436 0.426763 0.919915 0.182588
C27   C     C_R   0.568564 0.573237 0.080085 0.182589
C28   C     C_R   0.301219 0.501133 0.474768 0.572801
Cu1   Cu    Cu3+1 0.500000 0.500020 0.640660 1.032199
Cu2   Cu    Cu3+1 0.500000 0.499980 0.359340 1.032200
H1    H     H_    0.815612 0.640978 0.701310 0.135032
H2    H     H_    0.622211 0.630897 0.880628 0.120995
H3    H     H_    0.718081 0.193377 0.332159 0.342486
H4    H     H_    0.281921 0.806621 0.667842 0.342486
H5    H     H_    0.321986 0.174774 0.764233 0.336101
H6    H     H_    0.678009 0.825234 0.235757 0.336101
H7    H     H_    0.184388 0.359022 0.298689 0.135032
H8    H     H_    0.001872 0.322576 0.289923 0.169790
H9    H     H_    0.998127 0.677426 0.710076 0.169790
H10   H     H_    0.450696 0.113269 0.278031 0.140491
H11   H     H_    0.549304 0.886731 0.721969 0.140492
H12   H     H_    0.450036 0.888538 0.277707 0.180236
H13   H     H_    0.549963 0.111461 0.722293 0.180235
H14   H     H_    0.377788 0.369104 0.119372 0.120996
N1    N     N_R   0.500030 0.500030 0.852080 -0.270910
N2    N     N_R   0.499970 0.499970 0.147920 -0.270911
O1    O     O_R   0.499990 0.319660 0.618740 -0.476793
O2    O     O_R   0.753148 0.249395 0.407223 -0.697751
O3    O     O_2   0.181825 0.648943 0.775238 -0.483820
O4    O     O_R   0.246855 0.750603 0.592778 -0.697749
O5    O     O_2   0.266791 0.379155 0.815466 -0.487855
O6    O     O_R   0.381461 0.223362 0.814635 -0.714266
O7    O     O_2   0.733206 0.620849 0.184543 -0.487853
O8    O     O_R   0.618535 0.776644 0.185353 -0.714270
O9    O     O_R   0.500010 0.680340 0.381260 -0.476797
O10   O     O_R   0.499990 0.319630 0.381170 -0.517158
O11   O     O_R   0.500010 0.680370 0.618830 -0.517157
O12   O     O_R   0.349000 0.499990 0.599490 -0.457140
O13   O     O_R   0.651000 0.500010 0.400510 -0.457138
O14   O     O_R   0.348990 0.499960 0.361920 -0.517322
O15   O     O_R   0.651010 0.500040 0.638080 -0.517323
O16   O     O_2   0.818173 0.351058 0.224762 -0.483821

loop_
_geom_bond_atom_site_label_1
_geom_bond_atom_site_label_2
_ccdc_geom_bond_type
C14   C23   A    
C6    C8    A    
C17   H13   S    
Cu1   Cu2   S    
C28   O12   A    
C25   C27   A    
C9    C11   A    
Cu2   O9    S    
C19   O3    D    
C5    C13   A    
C2    O15   A    
C24   N2    A    
Cu2   O13   S    
C25   H2    S    
C2    C3    S    
C21   C27   S    
C20   O6    S    
C3    C10   A    
C5    H8    S    
C21   O7    D    
C11   C13   A    
C19   O4    S    
C17   C23   A    
C20   C26   S    
Cu1   O1    S    
C4    C7    A    
C12   O11   A    
C27   N2    A    
C4    C28   S    
C1    O10   A    
C10   C18   S    
C1    C23   S    
C20   O5    D    
C14   C16   A    
C16   H12   S    
C28   O14   A    
C7    H7    S    
C21   O8    S    
C24   H14   S    
Cu1   O15   S    
H4    O4    S    
C12   O9    A    
H6    O8    S    
C25   N1    A    
C14   H10   S    
C12   C22   S    
H5    O6    S    
Cu2   O14   S    
Cu1   O12   S    
C15   H11   S    
C15   C17   A    
C3    C8    A    
Cu1   N1    S    
C6    C11   A    
C5    C7    A    
H3    O2    S    
C6    H9    S    
C18   O16   D    
C16   C22   A    
C26   N1    A    
C4    C9    A    
C2    O13   A    
C8    H1    S    
Cu2   O10   S    
Cu2   N2    S    
C15   C22   A    
C1    O1    A    
C24   C26   A    
C9    C19   S    
Cu1   O11   S    
C10   C13   A    
C18   O2    S    
