data_mof_unit_32470.cif
_audit_creation_date              2012-10-26T19:05:07-0400
_audit_creation_method            fapswitch 2.2
_symmetry_space_group_name_H-M    P1
_symmetry_Int_Tables_number       1
_space_group_crystal_system       triclinic
_cell_length_a                    15.869949
_cell_length_b                    10.77515
_cell_length_c                    9.616625
_cell_angle_alpha                 89.839686
_cell_angle_beta                  90.082112
_cell_angle_gamma                 92.793658
_cell_volume                      1642.49108689

loop_
_atom_site_label
_atom_site_type_symbol
_atom_type_description
_atom_site_fract_x
_atom_site_fract_y
_atom_site_fract_z
_atom_type_partial_charge
C1    C     C_R   0.497933 0.262775 0.500244 0.568793
C2    C     C_R   0.289453 0.048789 0.678985 -0.066335
C3    C     C_R   0.289066 0.919408 0.682603 0.281664
C4    C     C_R   0.340376 0.499323 0.499970 0.520360
C5    C     C_R   0.356574 0.859736 0.620226 -0.092688
C6    C     C_R   0.426144 0.928962 0.562441 -0.083387
C7    C     C_R   0.426282 0.059898 0.562806 -0.054579
C8    C     C_R   0.494728 0.128627 0.501034 -0.042437
C9    C     C_R   0.561810 0.069061 0.439443 0.263248
C10   C     C_R   0.560589 0.940369 0.437133 0.342670
C11   C     C_R   0.494421 0.870684 0.499806 -0.033793
C12   C     C_3   0.949442 0.440130 0.637857 0.761929
C13   C     C_R   0.611270 0.666614 0.143341 -0.105553
C14   C     C_R   0.664580 0.750011 0.071484 -0.089910
C15   C     C_R   0.663221 0.753179 0.927947 0.242735
C16   C     C_R   0.498766 0.737125 0.499850 0.575002
C17   C     C_R   0.610636 0.667932 0.855957 -0.064533
C18   C     C_R   0.554332 0.582547 0.925134 0.112543
C19   C     C_R   0.554422 0.582290 0.074485 0.132056
C20   C     C_R   0.448120 0.421664 0.073945 0.016653
C21   C     C_R   0.448173 0.421635 0.926165 0.009519
C22   C     C_R   0.659650 0.500627 0.500063 0.551596
C23   C     C_3   0.917261 0.500652 0.501708 0.012390
C24   C     C_3   0.047509 0.439860 0.636729 0.291534
C25   C     C_3   0.046128 0.426144 0.374959 -0.148137
C26   C     C_3   0.948575 0.427900 0.373966 0.233055
C27   C     C_1   0.749368 0.501255 0.500464 0.031067
C28   C     C_3   0.082943 0.500667 0.500799 -0.032035
C29   C     C_3   0.693943 0.154237 0.471654 -0.034238
C30   C     C_3   0.238746 0.748398 0.811230 -0.114814
C31   C     C_3   0.672741 0.932075 0.802932 -0.085260
C32   C     C_3   0.101817 0.823469 0.392109 -0.084817
C33   C     C_3   0.955715 0.635606 0.491945 -0.306161
C34   C     C_3   0.053918 0.636580 0.493028 0.082407
C35   C     C_1   0.824965 0.501361 0.501043 0.068059
C36   C     C_1   0.175197 0.499835 0.500274 0.013846
C37   C     C_1   0.250738 0.499421 0.499889 -0.009758
C38   C     C_R   0.356708 0.118449 0.620412 -0.147102
Cu1   Cu    Cu3+1 0.499990 0.499990 0.640660 0.927797
Cu2   Cu    Cu3+1 0.500010 0.500010 0.359340 0.983926
F1    F     F_    0.915337 0.319585 0.650568 -0.487594
F2    F     F_    0.923529 0.506642 0.752163 -0.621959
F3    F     F_    0.625941 0.883336 0.377841 -0.656681
F4    F     F_    0.073887 0.319395 0.649481 -0.585967
F5    F     F_    0.913909 0.307231 0.373347 -0.582040
H1    H     H_    0.073124 0.493079 0.727786 0.122505
H2    H     H_    0.405683 0.357281 0.871187 0.117296
H3    H     H_    0.071445 0.466491 0.275959 0.143559
H4    H     H_    0.065999 0.328580 0.379788 0.215028
H5    H     H_    0.927960 0.473806 0.276658 0.152447
H6    H     H_    0.077570 0.684966 0.589374 0.140463
H7    H     H_    0.933781 0.691795 0.580586 0.171945
H8    H     H_    0.721481 0.064272 0.498527 0.170708
H9    H     H_    0.673492 0.201957 0.567580 0.098282
H10   H     H_    0.744477 0.214282 0.422944 0.217147
H11   H     H_    0.296527 0.763651 0.876164 0.126689
H12   H     H_    0.933027 0.680473 0.395327 0.165951
H13   H     H_    0.245296 0.669353 0.738977 0.117611
H14   H     H_    0.185947 0.722316 0.882653 0.163234
H15   H     H_    0.637569 0.979980 0.885571 0.136158
H16   H     H_    0.628868 0.898484 0.719487 0.107161
H17   H     H_    0.717964 0.001776 0.755966 0.167440
H18   H     H_    0.155636 0.840668 0.464737 0.160099
H19   H     H_    0.044642 0.867805 0.431418 0.154036
H20   H     H_    0.119201 0.867831 0.291275 0.159753
H21   H     H_    0.352791 0.218362 0.619229 0.137134
H22   H     H_    0.236770 0.096112 0.721897 0.174299
H23   H     H_    0.353363 0.759724 0.613828 0.130403
H24   H     H_    0.405569 0.357362 0.129038 0.120370
H25   H     H_    0.617548 0.672242 0.252832 0.231327
H26   H     H_    0.707198 0.813178 0.128134 0.202600
H27   H     H_    0.617233 0.672612 0.746385 0.198528
N1    N     N_R   0.500800 0.501210 0.147910 -0.237321
N2    N     N_R   0.500820 0.501290 0.852040 -0.241362
O1    O     O_R   0.499990 0.319640 0.618810 -0.511863
O2    O     O_3   0.218035 0.856160 0.737288 -0.574687
O3    O     O_3   0.718505 0.834272 0.858018 -0.529095
O4    O     O_3   0.086630 0.694868 0.370492 -0.562018
O5    O     O_R   0.500000 0.319660 0.381240 -0.460995
O6    O     O_R   0.379430 0.499990 0.618840 -0.520208
O7    O     O_R   0.379440 0.500020 0.381260 -0.498841
O8    O     O_R   0.500000 0.680340 0.618760 -0.544909
O9    O     O_R   0.500010 0.680360 0.381190 -0.488040
O10   O     O_R   0.620560 0.499980 0.618740 -0.501884
O11   O     O_R   0.620570 0.500010 0.381160 -0.504445
O12   O     O_3   0.627159 0.137171 0.375647 -0.519579

loop_
_geom_bond_atom_site_label_1
_geom_bond_atom_site_label_2
_ccdc_geom_bond_type
Cu2   O11   S    
C1    C8    S    
C14   H26   S    
C31   H16   S    
Cu2   O9    S    
C7    C8    A    
C33   H7    S    
C12   C23   S    
C34   H6    S    
C36   C37   T    
Cu1   O10   S    
C4    O6    A    
C26   H5    S    
C5    C6    A    
C22   O11   A    
C13   H25   S    
Cu2   N1    S    
C18   C19   A    
C23   C26   S    
C12   F2    S    
C26   F5    S    
C4    O7    A    
C38   H21   S    
C8    C9    A    
C23   C33   S    
Cu1   O1    S    
C9    C10   A    
C28   C34   S    
C18   N2    A    
C13   C14   A    
C31   H17   S    
C5    H23   S    
C31   O3    S    
C13   C19   A    
C1    O1    A    
C19   N1    A    
C32   H19   S    
C2    H22   S    
C6    C11   A    
C29   H10   S    
C27   C35   T    
C25   C26   S    
C30   H11   S    
C21   N2    A    
C16   O9    A    
C25   C28   S    
C22   O10   A    
C31   H15   S    
C12   F1    S    
C9    O12   S    
C30   O2    S    
C11   C16   S    
C2    C38   A    
C30   H14   S    
C16   O8    A    
C17   C18   A    
Cu2   O5    S    
C4    C37   S    
C3    O2    S    
C25   H3    S    
C29   O12   S    
C23   C35   S    
C22   C27   S    
C24   F4    S    
C20   H24   S    
Cu1   Cu2   S    
C15   C17   A    
C33   H12   S    
Cu1   O8    S    
C10   F3    S    
Cu2   O7    S    
C24   C28   S    
C32   H18   S    
C3    C5    A    
C6    C7    A    
C12   C24   S    
C24   H1    S    
Cu1   O6    S    
C2    C3    A    
C34   O4    S    
C15   O3    S    
C29   H8    S    
C1    O5    A    
C30   H13   S    
C7    C38   A    
C33   C34   S    
C20   N1    A    
Cu1   N2    S    
C25   H4    S    
C10   C11   A    
C32   O4    S    
C20   C21   A    
C28   C36   S    
C17   H27   S    
C29   H9    S    
C14   C15   A    
C32   H20   S    
C21   H2    S    
