data_mof_unit_46236.cif
_audit_creation_date              2012-12-10T16:58:28-0500
_audit_creation_method            fapswitch 2.2
_symmetry_space_group_name_H-M    P1
_symmetry_Int_Tables_number       1
_space_group_crystal_system       triclinic
_cell_length_a                    7.770757
_cell_length_b                    8.559175
_cell_length_c                    23.396242
_cell_angle_alpha                 91.417646
_cell_angle_beta                  85.48837
_cell_angle_gamma                 93.54946
_cell_volume                      1548.00737952

loop_
_atom_site_label
_atom_site_type_symbol
_atom_type_description
_atom_site_fract_x
_atom_site_fract_y
_atom_site_fract_z
_atom_type_partial_charge
C1    C     C_R   0.545690 0.794706 0.498538 0.945943
C2    C     C_R   0.454310 0.205294 0.501462 0.945944
C3    C     C_R   0.666576 0.497486 0.757014 -0.099748
C4    C     C_R   0.333423 0.502510 0.242986 -0.099748
C5    C     C_R   0.663855 0.498274 0.697766 -0.183658
C6    C     C_R   0.336144 0.501722 0.302234 -0.183659
C7    C     C_R   0.505314 0.499058 0.672804 -0.040329
C8    C     C_R   0.494686 0.500942 0.327196 -0.040329
C9    C     C_R   0.349886 0.498719 0.707743 -0.193856
C10   C     C_R   0.650115 0.501285 0.292257 -0.193856
C11   C     C_R   0.353124 0.497436 0.766889 -0.098702
C12   C     C_R   0.646876 0.502569 0.233111 -0.098702
C13   C     C_R   0.511238 0.496923 0.791355 0.320588
C14   C     C_R   0.488762 0.503077 0.208645 0.320588
C15   C     C_2   0.569877 0.958109 0.497675 -0.349700
C16   C     C_2   0.430123 0.041891 0.502325 -0.349700
C17   C     C_R   0.501680 0.500022 0.610631 0.853102
C18   C     C_R   0.498320 0.499978 0.389369 0.853101
C19   C     C_R   0.448972 0.365287 0.119712 0.507334
C20   C     C_R   0.551028 0.634714 0.880288 0.507335
C21   C     C_R   0.527642 0.640131 0.119961 0.506888
C22   C     C_R   0.472358 0.359869 0.880038 0.506888
C23   C     C_R   0.533772 0.641911 0.060207 -0.014142
C24   C     C_R   0.466228 0.358089 0.939793 -0.014142
C25   C     C_R   0.496689 0.500748 0.030075 -0.019940
C26   C     C_R   0.503311 0.499253 0.969925 -0.019940
C27   C     C_R   0.453249 0.361032 0.059949 -0.014615
C28   C     C_R   0.546751 0.638969 0.940051 -0.014616
C29   C     C_R   0.576888 0.780445 0.030070 -0.165182
C30   C     C_R   0.423112 0.219555 0.969930 -0.165182
C31   C     C_R   0.583364 0.778979 0.970451 -0.167930
C32   C     C_R   0.416636 0.221021 0.029548 -0.167930
H1    H     H_    0.606102 0.890105 0.052393 0.196118
H2    H     H_    0.393898 0.109896 0.947607 0.196118
H3    H     H_    0.617103 0.887601 0.948331 0.194385
H4    H     H_    0.382897 0.112400 0.051669 0.194385
H5    H     H_    0.788757 0.497204 0.776312 0.138505
H6    H     H_    0.211242 0.502790 0.223688 0.138506
H7    H     H_    0.785353 0.498820 0.671664 0.188429
H8    H     H_    0.214647 0.501173 0.328336 0.188430
H9    H     H_    0.226048 0.499020 0.689498 0.174737
H10   H     H_    0.773952 0.500987 0.310502 0.174736
H11   H     H_    0.233194 0.497268 0.793826 0.138629
H12   H     H_    0.766806 0.502740 0.206174 0.138629
H13   H     H_    0.701966 0.008914 0.493220 0.206742
H14   H     H_    0.298034 0.991085 0.506780 0.206742
N1    N     N_R   0.486557 0.503170 0.148040 -0.363970
N2    N     N_R   0.513443 0.496831 0.851960 -0.363970
N3    N     N_2   0.950330 0.457950 0.484560 0.250742
N4    N     N_2   0.049670 0.542050 0.515440 0.250742
O1    O     O_R   0.389250 0.738570 0.503790 -0.608587
O2    O     O_R   0.610750 0.261430 0.496210 -0.608587
O3    O     O_R   0.678390 0.711620 0.493890 -0.581200
O4    O     O_R   0.321610 0.288380 0.506110 -0.581201
O5    O     O_R   0.355400 0.513520 0.588790 -0.616635
O6    O     O_R   0.644600 0.486480 0.411210 -0.616635
O7    O     O_R   0.644550 0.486570 0.578900 -0.588730
O8    O     O_R   0.355450 0.513430 0.421100 -0.588730
O9    O     O_2   0.409358 0.232965 0.149413 -0.525249
O10   O     O_2   0.590642 0.767035 0.850587 -0.525249
O11   O     O_2   0.562578 0.773592 0.149941 -0.525463
O12   O     O_2   0.437422 0.226409 0.850059 -0.525463
Zn1   Zn    Zn3+2 0.306930 0.518000 0.506610 1.110096
Zn2   Zn    Zn3+2 0.693070 0.482000 0.493390 1.110096
F1    F     F_    0.030426 0.358085 0.448349 -0.574603
F2    F     F_    0.969574 0.641915 0.551651 -0.574603

loop_
_geom_bond_atom_site_label_1
_geom_bond_atom_site_label_2
_ccdc_geom_bond_type
C13   N2    S    
C22   N2    A    
O6    Zn2   S    
C11   H11   S    
C14   N1    S    
C1    C15   S    
O2    Zn2   S    
C22   O12   S    
C2    C16   S    
C17   O5    A    
C21   O11   S    
C3    C13   A    
C18   O6    A    
C9    C11   A    
C1    O3    A    
C23   C25   A    
C32   H4    S    
C25   C26   A    
O1    Zn1   S    
C12   H12   S    
N3    Zn2   S    
C21   N1    A    
C30   C32   A    
N4    Zn1   S    
C1    O1    A    
C20   N2    A    
O5    Zn1   S    
C2    O2    A    
C29   C31   A    
C6    C8    A    
C23   C29   A    
C8    C10   A    
C26   C28   A    
C4    H6    S    
C31   H3    S    
C21   C23   A    
C4    C14   A    
C10   C12   A    
O3    Zn2   S    
C22   C24   A    
C20   O10   S    
C24   C30   A    
C25   C27   A    
O4    Zn1   S    
C30   H2    S    
C15   C16   D    
C29   H1    S    
C12   C14   A    
C11   C13   A    
C6    H8    S    
C19   C27   A    
C3    H5    S    
O7    Zn2   S    
C4    C6    A    
N3    N4    D    
C2    O4    A    
C19   N1    A    
C16   H14   S    
O8    Zn1   S    
C7    C9    A    
C5    H7    S    
C15   H13   S    
C5    C7    A    
C10   H10   S    
N4    F2    S    
C20   C28   A    
C19   O9    S    
C27   C32   A    
N3    F1    S    
C9    H9    S    
C18   O8    A    
C28   C31   A    
C8    C18   S    
C24   C26   A    
C17   O7    A    
C3    C5    A    
C7    C17   S    
