data_mof_unit_11803.cif
_audit_creation_date              2012-12-10T17:55:07-0500
_audit_creation_method            fapswitch 2.2
_symmetry_space_group_name_H-M    P1
_symmetry_Int_Tables_number       1
_space_group_crystal_system       triclinic
_cell_length_a                    8.800826
_cell_length_b                    10.811592
_cell_length_c                    9.519197
_cell_angle_alpha                 89.729122
_cell_angle_beta                  97.7975
_cell_angle_gamma                 89.940505
_cell_volume                      897.374345437

loop_
_atom_site_label
_atom_site_type_symbol
_atom_type_description
_atom_site_fract_x
_atom_site_fract_y
_atom_site_fract_z
_atom_type_partial_charge
C1    C     C_R   0.496427 0.262258 0.499937 0.877329
C2    C     C_R   0.413641 0.061230 0.592513 0.392393
C3    C     C_R   0.504611 0.871561 0.499537 -0.172986
C4    C     C_R   0.495389 0.128439 0.500463 -0.172987
C5    C     C_R   0.391700 0.435563 0.061132 0.026114
C6    C     C_R   0.608299 0.564437 0.938868 0.026115
C7    C     C_R   0.391598 0.435769 0.912349 0.045883
C8    C     C_R   0.608402 0.564231 0.087651 0.045883
C9    C     C_2   0.976306 0.399611 0.328218 0.882817
C10   C     C_2   0.023694 0.600389 0.671782 0.882818
C11   C     C_R   0.503573 0.737742 0.500063 0.877328
C12   C     C_R   0.204242 0.499155 0.464236 0.856750
C13   C     C_R   0.795758 0.500845 0.535764 0.856749
C14   C     C_2   0.040573 0.481032 0.447899 -0.244659
C15   C     C_2   0.959427 0.518968 0.552100 -0.244659
C16   C     C_R   0.580123 0.066806 0.408033 -0.213975
C17   C     C_R   0.419877 0.933194 0.591967 -0.213975
C18   C     C_R   0.586359 0.938770 0.407487 0.392393
Cl1   Cl    Cl    0.705135 0.867783 0.296245 -0.596413
Cl2   Cl    Cl    0.294865 0.132217 0.703754 -0.596413
Cu1   Cu    Cu3+1 0.500000 0.500020 0.640660 1.027662
Cu2   Cu    Cu3+1 0.500000 0.499980 0.359340 1.027662
H1    H     H_    0.644254 0.118423 0.338053 0.205478
H2    H     H_    0.355746 0.881577 0.661947 0.205477
H3    H     H_    0.305207 0.383576 0.106495 0.169199
H4    H     H_    0.694793 0.616424 0.893505 0.169199
H5    H     H_    0.304615 0.384397 0.845788 0.183946
H6    H     H_    0.695385 0.615603 0.154212 0.183946
H7    H     H_    0.855759 0.246578 0.265302 0.342518
H8    H     H_    0.144242 0.753421 0.734697 0.342519
N1    N     N_R   0.500040 0.500030 0.852080 -0.192894
N2    N     N_R   0.499960 0.499970 0.147920 -0.192894
O1    O     O_R   0.499990 0.319660 0.618740 -0.541958
O2    O     O_R   0.891925 0.294564 0.354829 -0.742158
O3    O     O_2   0.999780 0.576754 0.792626 -0.568855
O4    O     O_R   0.108075 0.705436 0.645171 -0.742158
O5    O     O_R   0.500010 0.680340 0.381260 -0.541958
O6    O     O_R   0.499990 0.319630 0.381170 -0.592373
O7    O     O_R   0.500010 0.680370 0.618830 -0.592373
O8    O     O_R   0.274840 0.500010 0.591370 -0.577056
O9    O     O_R   0.725160 0.499990 0.408630 -0.577056
O10   O     O_R   0.274830 0.499980 0.353800 -0.566760
O11   O     O_R   0.725170 0.500020 0.646200 -0.566760
O12   O     O_2   0.000220 0.423246 0.207374 -0.568855

loop_
_geom_bond_atom_site_label_1
_geom_bond_atom_site_label_2
_ccdc_geom_bond_type
C12   O8    A    
C2    C4    A    
C9    C14   S    
C4    C16   A    
C10   O3    D    
C7    H5    S    
Cu1   O7    S    
H8    O4    S    
C1    C4    S    
C5    N2    A    
C13   O9    A    
C6    N1    A    
C1    O1    A    
C6    H4    S    
Cu1   Cu2   S    
C12   O10   A    
C2    C17   A    
C11   O7    A    
Cu1   N1    S    
Cu2   O10   S    
Cu1   O8    S    
Cu2   N2    S    
C1    O6    A    
C5    H3    S    
C7    N1    A    
C10   O4    S    
C3    C17   A    
C16   H1    S    
C5    C7    A    
C10   C15   S    
C13   C15   S    
C9    O2    S    
C8    H6    S    
Cu2   O9    S    
Cu1   O1    S    
C2    Cl2   S    
C17   H2    S    
C13   O11   A    
C3    C11   S    
C3    C18   A    
C16   C18   A    
C18   Cl1   S    
C11   O5    A    
C8    N2    A    
C14   C15   D    
C9    O12   D    
C6    C8    A    
Cu1   O11   S    
Cu2   O5    S    
H7    O2    S    
C12   C14   S    
Cu2   O6    S    
