data_mof_unit_45588.cif
_audit_creation_date              2012-12-11T15:21:35-0500
_audit_creation_method            fapswitch 2.2
_symmetry_space_group_name_H-M    P1
_symmetry_Int_Tables_number       1
_space_group_crystal_system       triclinic
_cell_length_a                    8.239176
_cell_length_b                    12.653295
_cell_length_c                    18.969371
_cell_angle_alpha                 94.723359
_cell_angle_beta                  94.177793
_cell_angle_gamma                 98.118264
_cell_volume                      1943.97565524

loop_
_atom_site_label
_atom_site_type_symbol
_atom_type_description
_atom_site_fract_x
_atom_site_fract_y
_atom_site_fract_z
_atom_type_partial_charge
Ba1   Ba    Ba6+2 0.160910 0.552960 0.466220 1.682211
Ba2   Ba    Ba6+2 0.649260 0.447030 0.533730 1.666087
C1    C     C_3   0.416282 0.838006 0.198536 -0.149667
C2    C     C_3   0.476352 0.824762 0.275017 0.268328
C3    C     C_3   0.556226 0.773939 0.630253 0.283602
C4    C     C_3   0.557790 0.894199 0.641744 -0.329451
C5    C     C_3   0.878800 0.153740 0.695282 0.338548
C6    C     C_3   0.935158 0.065525 0.736671 -0.403534
C7    C     C_3   0.384510 0.212107 0.728012 0.352208
C8    C     C_3   0.411073 0.181934 0.803445 -0.345104
C9    C     C_R   0.077168 0.183626 0.526614 -0.272877
C10   C     C_R   0.734002 0.815456 0.472558 -0.278807
C11   C     C_R   0.703834 0.996587 0.447925 -0.073821
C12   C     C_3   0.961929 0.838434 0.262977 0.299062
C13   C     C_R   0.640480 0.887728 0.444050 -0.033189
C14   C     C_R   0.887474 0.850056 0.509451 0.068266
C15   C     C_R   0.951186 0.962540 0.516500 -0.046326
C16   C     C_R   0.858088 0.036966 0.484635 0.003456
C17   C     C_R   0.922858 0.149275 0.490400 0.090633
C18   C     C_R   0.170435 0.111546 0.555596 -0.008252
C19   C     C_R   0.106024 0.002851 0.552923 -0.097096
C20   C     C_R   0.609703 0.554048 0.301073 -0.292634
C21   C     C_R   0.454376 0.497767 0.279105 0.085970
C22   C     C_R   0.395034 0.490805 0.207402 -0.111971
C23   C     C_3   0.884212 0.870088 0.194106 -0.361805
C24   C     C_R   0.493003 0.537239 0.156889 0.018791
C25   C     C_R   0.653109 0.589417 0.179743 -0.088533
C26   C     C_R   0.711162 0.596646 0.251483 -0.033056
C27   C     C_R   0.474797 0.604887 0.035906 -0.086810
C28   C     C_R   0.426039 0.590072 0.963151 -0.028011
C29   C     C_R   0.337649 0.491938 0.932022 0.067343
C30   C     C_R   0.297230 0.409558 0.975926 -0.088089
C31   C     C_R   0.345663 0.424515 0.048859 -0.034904
C32   C     C_R   0.435575 0.522361 0.079785 0.076108
C33   C     C_R   0.129954 0.422085 0.828041 -0.097967
C34   C     C_3   0.755173 0.319720 0.320461 0.251630
C35   C     C_R   0.079172 0.415986 0.755417 0.013564
C36   C     C_R   0.340868 0.514699 0.733425 0.023970
C37   C     C_R   0.391975 0.522904 0.805869 -0.116987
C38   C     C_R   0.287285 0.476536 0.854232 0.024976
C39   C     C_R   0.186854 0.459140 0.708447 -0.298170
C40   C     C_3   0.684593 0.283322 0.243224 -0.248242
C41   C     C_3   0.046295 0.692355 0.683512 0.260669
C42   C     C_3   0.089877 0.734546 0.762649 -0.246164
C43   C     C_3   0.233036 0.211301 0.354933 0.325762
C44   C     C_3   0.345152 0.128805 0.372129 -0.352230
H1    H     H_    0.474269 0.737816 0.279590 0.013137
H2    H     H_    0.556309 0.300415 0.235295 0.050791
H3    H     H_    0.937417 0.628425 0.676888 0.073000
H4    H     H_    0.067315 0.821159 0.771855 0.101720
H5    H     H_    0.202886 0.254200 0.404735 -0.078133
H6    H     H_    0.289152 0.795544 0.186284 0.119892
H7    H     H_    0.322476 0.057553 0.332286 0.129138
H8    H     H_    0.474220 0.163118 0.368236 0.148538
H9    H     H_    0.603889 0.867237 0.286922 -0.040863
H10   H     H_    0.493920 0.800600 0.161402 -0.022741
H11   H     H_    0.683324 0.757639 0.623990 0.016560
H12   H     H_    0.476388 0.744792 0.580763 0.053608
H13   H     H_    0.626363 0.926043 0.693205 0.127266
H14   H     H_    0.617571 0.934201 0.598443 0.061959
H15   H     H_    0.429717 0.912022 0.642428 0.136542
H16   H     H_    0.836207 0.947418 0.203907 0.158630
H17   H     H_    0.780676 0.117704 0.653471 0.075676
H18   H     H_    0.985823 0.190549 0.668747 -0.058875
H19   H     H_    0.834534 0.029107 0.766807 0.137793
H20   H     H_    0.972821 0.002559 0.699668 0.090855
H21   H     H_    0.253417 0.221970 0.717629 -0.074621
H22   H     H_    0.463639 0.289637 0.724027 0.089671
H23   H     H_    0.374707 0.244668 0.841357 0.065612
H24   H     H_    0.543230 0.175525 0.816334 0.158828
H25   H     H_    0.060296 0.904310 0.284455 0.146561
H26   H     H_    0.630022 0.048480 0.422698 0.090673
H27   H     H_    0.180188 0.950915 0.578341 0.103323
H28   H     H_    0.128508 0.267612 0.529950 0.069023
H29   H     H_    0.682791 0.731434 0.469098 0.062646
H30   H     H_    0.512013 0.566637 0.824347 0.119935
H31   H     H_    0.456008 0.656282 0.931401 0.090224
H32   H     H_    0.542516 0.681465 0.057909 0.067027
H33   H     H_    0.274747 0.446280 0.190909 0.105406
H34   H     H_    0.230913 0.332663 0.953672 0.069898
H35   H     H_    0.870819 0.829986 0.303414 -0.052565
H36   H     H_    0.316178 0.358310 0.080662 0.085415
H37   H     H_    0.736365 0.617261 0.141350 0.082060
H38   H     H_    0.147235 0.454514 0.652469 0.065916
H39   H     H_    0.657281 0.556420 0.355964 0.067822
H40   H     H_    0.977260 0.879280 0.154117 0.179853
H41   H     H_    0.781280 0.807048 0.172080 0.074348
H42   H     H_    0.868435 0.378925 0.322163 0.082608
O1    O     O_2   0.160820 0.763040 0.533820 -0.461805
O2    O     O_3   0.313767 0.280333 0.310176 -0.639558
O3    O     O_3   0.037695 0.747529 0.248241 -0.577163
O4    O     O_2   0.649470 0.236890 0.466160 -0.474504
O5    O     O_3   0.919320 0.371390 0.464540 -0.496006
O6    O     O_3   0.424350 0.301430 0.591880 -0.479372
O7    O     O_3   0.790295 0.228772 0.352767 -0.628653
O8    O     O_3   0.382770 0.553920 0.582990 -0.488720
O9    O     O_3   0.848220 0.355290 0.626830 -0.485956
O10   O     O_2   0.739893 0.420448 0.750256 -0.461456
O11   O     O_3   0.814343 0.226382 0.742033 -0.594066
O12   O     O_3   0.890970 0.628600 0.535400 -0.494098
O13   O     O_3   0.427530 0.446070 0.416950 -0.492022
O14   O     O_2   0.637430 0.550200 0.669460 -0.431156
O15   O     O_3   0.497163 0.726802 0.689669 -0.624634
O16   O     O_2   0.509223 0.113408 0.550518 -0.493324
O17   O     O_3   0.426951 0.131319 0.680493 -0.600528
O18   O     O_3   0.385950 0.698560 0.408070 -0.472345
O19   O     O_2   0.303582 0.885620 0.452798 -0.470216
O20   O     O_3   0.012522 0.779753 0.646488 -0.650354
O21   O     O_3   0.372024 0.867098 0.321380 -0.592367
O22   O     O_2   0.172860 0.449730 0.330520 -0.439769
O23   O     O_3   0.962080 0.644700 0.373110 -0.470571
O24   O     O_2   0.017878 0.544376 0.250788 -0.457576
P1    P     P_3+3 0.986780 0.745970 0.554690 0.977615
P2    P     P_3+3 0.341450 0.417130 0.341310 1.019869
P3    P     P_3+3 0.929557 0.635521 0.280415 0.980293
P4    P     P_3+3 0.823520 0.254020 0.445250 0.989868
P5    P     P_3+3 0.870038 0.357068 0.719433 0.974827
P6    P     P_3+3 0.427790 0.837293 0.407315 0.970925
P7    P     P_3+3 0.463571 0.587381 0.671048 0.985310
P8    P     P_3+3 0.381911 0.162702 0.593726 0.953243
C45   C     C_2   0.784263 0.332447 0.187574 0.876901
O25   O     O_2   0.715245 0.369193 0.138021 -0.627213
O26   O     O_R   0.953079 0.329741 0.189553 -0.680510
H43   H     H_    0.003720 0.360496 0.147072 0.306021
H44   H     H_    0.678137 0.195165 0.233167 0.174473
H45   H     H_    0.152973 0.659179 0.662204 -0.011706
H46   H     H_    0.225925 0.734542 0.777455 0.070528
C46   C     C_2   0.986649 0.671782 0.812641 0.812738
O27   O     O_2   0.835217 0.652337 0.801172 -0.595316
O28   O     O_R   0.063761 0.643199 0.875141 -0.761129
H47   H     H_    0.982411 0.602830 0.905307 0.310364
C47   C     C_2   0.078551 0.150564 0.315373 0.868498
O29   O     O_2   0.039349 0.166432 0.254184 -0.536737
O30   O     O_R   0.984782 0.070893 0.347754 -0.826255
H48   H     H_    0.878878 0.039879 0.318475 0.302520
H49   H     H_    0.327390 0.102230 0.425767 0.109597
C48   C     C_2   0.421231 0.953784 0.186421 0.884297
O31   O     O_2   0.554051 0.010429 0.184954 -0.640890
O32   O     O_R   0.274178 0.996138 0.176491 -0.756487
H50   H     H_    0.294034 0.075249 0.169471 0.331715
H51   H     H_    0.041234 0.099599 0.775112 0.113373
H52   H     H_    0.335321 0.103581 0.809228 0.113500
H53   H     H_    0.044442 0.389208 0.864080 0.073522
H54   H     H_    0.662647 0.357598 0.349028 -0.009183

loop_
_geom_bond_atom_site_label_1
_geom_bond_atom_site_label_2
_ccdc_geom_bond_type
C2    O21   S    
C3    O15   S    
C42   H46   S    
C6    H20   S    
Ba1   O13   S    
C12   H25   S    
O8    P7    S    
C34   C40   S    
C14   P1    S    
O26   H43   S    
C43   C44   S    
C34   H42   S    
C48   O32   S    
C9    C17   A    
C24   C25   A    
C5    O11   S    
C3    H12   S    
C4    H15   S    
C33   C35   A    
C22   C24   A    
Ba1   Ba2   S    
C28   C29   A    
O11   P5    S    
Ba2   O14   S    
C7    O17   S    
C19   H27   S    
C23   H41   S    
C29   C38   S    
Ba1   O12   S    
C16   C17   A    
C8    H52   S    
C20   H39   S    
C40   H44   S    
C28   H31   S    
O6    P8    S    
C24   C32   S    
C27   H32   S    
C10   C14   A    
Ba2   O9    S    
C14   C15   A    
C21   C22   A    
O17   P8    S    
C6    H51   S    
C1    C48   S    
C47   O29   D    
C7    C8    S    
O22   P2    D    
O19   P6    D    
Ba1   O18   S    
C23   H16   S    
Ba2   O12   S    
C6    H19   S    
C20   C26   A    
C46   O27   D    
O9    P5    S    
O13   P2    S    
Ba2   P4    S    
C41   H45   S    
O21   P6    S    
C31   C32   A    
C36   C37   A    
C12   O3    S    
O1    P1    D    
C9    C18   A    
C4    H14   S    
Ba2   O6    S    
C36   C39   A    
C37   C38   A    
C41   H3    S    
Ba2   O13   S    
C39   H38   S    
C27   C32   A    
C15   C19   A    
O5    P4    S    
O20   P1    S    
C41   C42   S    
C7    H21   S    
C27   C28   A    
C26   P3    S    
Ba1   O22   S    
C30   H34   S    
C1    H10   S    
C22   H33   S    
C29   C30   A    
C10   C13   A    
O7    P4    S    
O32   H50   S    
C44   H8    S    
C15   C16   A    
C40   H2    S    
C37   H30   S    
Ba2   O4    S    
C43   O2    S    
O4    P4    D    
C5    H17   S    
C45   O25   D    
C36   P7    S    
C11   C16   A    
C47   O30   S    
C11   C13   A    
C2    H9    S    
Ba1   P2    S    
C1    C2    S    
C8    H24   S    
C18   P8    S    
O10   P5    D    
C31   H36   S    
C42   H4    S    
C42   C46   S    
Ba1   O1    S    
C4    H13   S    
Ba2   O5    S    
O15   P7    S    
O12   P1    S    
C9    H28   S    
C46   O28   S    
C1    H6    S    
O30   H48   S    
C11   H26   S    
C48   O31   D    
C13   P6    S    
C3    H11   S    
C30   C31   A    
Ba2   O8    S    
O28   H47   S    
C34   H54   S    
C7    H22   S    
Ba1   O23   S    
C21   P2    S    
C34   O7    S    
C3    C4    S    
C17   P4    S    
Ba1   O8    S    
C44   H7    S    
C25   H37   S    
C23   H40   S    
O3    P3    S    
C33   C38   A    
C41   O20   S    
O2    P2    S    
C12   C23   S    
C35   C39   A    
C5    H18   S    
C45   O26   S    
C5    C6    S    
Ba1   P1    S    
C44   H49   S    
C8    H23   S    
C35   P5    S    
C18   C19   A    
C43   C47   S    
Ba1   O5    S    
C10   H29   S    
C25   C26   A    
C43   H5    S    
C20   C21   A    
O23   P3    S    
C12   H35   S    
O24   P3    D    
O18   P6    S    
O14   P7    D    
C40   C45   S    
C33   H53   S    
O16   P8    D    
C2    H1    S    
