data_mof_unit_55353.cif
_audit_creation_date              2012-12-10T16:55:45-0500
_audit_creation_method            fapswitch 2.2
_symmetry_space_group_name_H-M    P1
_symmetry_Int_Tables_number       1
_space_group_crystal_system       triclinic
_cell_length_a                    7.846037
_cell_length_b                    8.56099
_cell_length_c                    10.487836
_cell_angle_alpha                 91.532213
_cell_angle_beta                  86.20949
_cell_angle_gamma                 93.173532
_cell_volume                      701.658926216

loop_
_atom_site_label
_atom_site_type_symbol
_atom_type_description
_atom_site_fract_x
_atom_site_fract_y
_atom_site_fract_z
_atom_type_partial_charge
C1    C     C_R   0.545112 0.794238 0.496913 1.002222
C2    C     C_R   0.454888 0.205762 0.503086 1.002078
C3    C     C_R   0.501893 0.497815 0.741932 0.922480
C4    C     C_R   0.498109 0.502187 0.258065 0.922319
C5    C     C_3   0.446176 0.635662 0.959443 -0.256539
C6    C     C_3   0.553844 0.364345 0.040548 -0.256564
C7    C     C_3   0.602610 0.618519 0.037736 0.045072
C8    C     C_3   0.397409 0.381488 0.962255 0.045004
C9    C     C_3   0.495638 0.504155 0.123390 0.014211
C10   C     C_3   0.504376 0.495852 0.876603 0.014171
C11   C     C_3   0.337872 0.519845 0.047120 -0.223501
C12   C     C_3   0.662148 0.480163 0.952868 -0.223426
C13   C     C_2   0.568911 0.957632 0.494867 -0.328526
C14   C     C_2   0.431088 0.042368 0.505132 -0.328686
H1    H     H_    0.403673 0.746544 0.922572 0.158774
H2    H     H_    0.596347 0.253464 0.077418 0.158837
H3    H     H_    0.205511 0.536996 0.086469 0.149489
H4    H     H_    0.794494 0.463021 0.913470 0.149487
H5    H     H_    0.699485 0.007658 0.484785 0.211461
H6    H     H_    0.300515 0.992341 0.515214 0.211392
N1    N     N_2   0.950320 0.457950 0.465730 -0.170146
N2    N     N_2   0.049680 0.542050 0.534270 -0.170395
O1    O     O_R   0.389250 0.738570 0.508410 -0.635235
O2    O     O_R   0.610750 0.261430 0.491590 -0.635041
O3    O     O_R   0.678390 0.711620 0.486450 -0.568867
O4    O     O_R   0.321610 0.288380 0.513550 -0.569220
O5    O     O_R   0.355460 0.513510 0.697030 -0.628088
O6    O     O_R   0.644540 0.486490 0.302970 -0.627945
O7    O     O_R   0.644600 0.486560 0.675070 -0.653205
O8    O     O_R   0.355400 0.513440 0.324930 -0.653584
Zn1   Zn    Zn3+2 0.306940 0.517990 0.514670 1.000485
Zn2   Zn    Zn3+2 0.693060 0.482010 0.485330 1.000847
C15   C     C_2   0.717980 0.754710 0.075978 0.354860
H7    H     H_    0.789515 0.822639 0.002625 0.090119
O9    O     O_2   0.731890 0.790447 0.188313 -0.569845
C16   C     C_2   0.282039 0.245294 0.924017 0.354810
H8    H     H_    0.210581 0.177321 0.997370 0.090171
O10   O     O_2   0.268047 0.209602 0.811685 -0.569881
C17   C     C_2   0.020365 0.409042 0.344986 0.697910
H9    H     H_    0.018672 0.485188 0.264322 -0.006107
O11   O     O_2   0.073029 0.278034 0.329489 -0.606481
C18   C     C_2   0.979680 0.590998 0.655028 0.697356
H10   H     H_    0.982269 0.515196 0.735873 -0.005971
O12   O     O_2   0.926194 0.721735 0.670361 -0.606301

loop_
_geom_bond_atom_site_label_1
_geom_bond_atom_site_label_2
_ccdc_geom_bond_type
O2    Zn2   S    
C1    O1    A    
C7    C15   S    
C18   H10   S    
N1    C17   S    
C6    C9    S    
C16   O10   D    
C15   H7    S    
C5    C10   S    
C2    O4    A    
C3    C10   S    
C13   C14   D    
C1    O3    A    
C9    C11   S    
N2    C18   S    
C18   O12   D    
O3    Zn2   S    
C8    C11   S    
C10   C12   S    
C6    C12   S    
C3    O5    A    
C16   H8    S    
C4    O6    A    
C5    C11   S    
O7    Zn2   S    
C7    C9    S    
O5    Zn1   S    
C2    O2    A    
O8    Zn1   S    
C2    C14   S    
N1    Zn2   S    
C7    C12   S    
C5    H1    S    
C1    C13   S    
N2    Zn1   S    
C13   H5    S    
C6    H2    S    
C14   H6    S    
O6    Zn2   S    
C17   O11   D    
C5    C7    S    
C8    C16   S    
C12   H4    S    
C17   H9    S    
C3    O7    A    
C11   H3    S    
C6    C8    S    
C15   O9    D    
C4    C9    S    
N1    N2    D    
O4    Zn1   S    
C8    C10   S    
C4    O8    A    
O1    Zn1   S    
