data_mof_unit_16429.cif
_audit_creation_date              2012-12-10T18:13:49-0500
_audit_creation_method            fapswitch 2.2
_symmetry_space_group_name_H-M    P1
_symmetry_Int_Tables_number       1
_space_group_crystal_system       triclinic
_cell_length_a                    11.131817
_cell_length_b                    9.732992
_cell_length_c                    23.511142
_cell_angle_alpha                 89.048679
_cell_angle_beta                  90.924664
_cell_angle_gamma                 88.457024
_cell_volume                      2545.71034481

loop_
_atom_site_label
_atom_site_type_symbol
_atom_type_description
_atom_site_fract_x
_atom_site_fract_y
_atom_site_fract_z
_atom_type_partial_charge
C1    C     C_R   0.261981 0.501716 0.495200 0.921867
C2    C     C_R   0.310717 0.307422 0.973095 0.177561
C3    C     C_R   0.303064 0.313214 0.032317 0.190931
C4    C     C_R   0.354680 0.422966 0.062548 -0.104330
C5    C     C_R   0.406438 0.532607 0.031609 -0.039859
C6    C     C_R   0.453553 0.646304 0.061028 -0.095256
C7    C     C_R   0.501375 0.757488 0.029470 -0.052991
C8    C     C_R   0.505583 0.753198 0.969703 0.089723
C9    C     C_R   0.358882 0.426072 0.122749 0.581333
C10   C     C_R   0.452932 0.643095 0.121300 0.578328
C11   C     C_R   0.535257 0.450850 0.231165 0.189196
C12   C     C_R   0.496348 0.501395 0.391335 0.824283
C13   C     C_R   0.559685 0.443121 0.290137 0.115271
C14   C     C_R   0.478978 0.506475 0.328502 -0.018903
C15   C     C_R   0.376837 0.576939 0.306314 -0.265372
C16   C     C_R   0.352994 0.584357 0.247989 -0.164752
C17   C     C_R   0.431824 0.521250 0.210357 0.343421
C18   C     C_R   0.356837 0.551386 0.756650 0.092110
C19   C     C_R   0.373259 0.552583 0.697002 -0.137725
C20   C     C_R   0.482838 0.501630 0.673418 -0.122200
C21   C     C_R   0.577643 0.463514 0.712016 0.083561
C22   C     C_R   0.559604 0.461769 0.771399 0.088163
C23   C     C_R   0.740699 0.498779 0.497598 0.931754
C24   C     C_R   0.449569 0.505036 0.793113 0.357020
C25   C     C_3   0.073748 0.640841 0.512526 -0.489843
C26   C     C_3   0.083219 0.385457 0.530099 -0.531117
C27   C     C_3   0.933657 0.646370 0.514880 0.061985
C28   C     C_3   0.944866 0.373424 0.532039 0.055160
C29   C     C_3   0.078853 0.482655 0.427853 0.213087
C30   C     C_3   0.125230 0.503219 0.490625 0.065422
C31   C     C_3   0.882552 0.497810 0.493168 -0.121879
C32   C     C_3   0.930899 0.478404 0.426799 -0.106462
C33   C     C_3   0.609014 0.074268 0.531781 -0.120192
C34   C     C_3   0.597717 0.912152 0.538881 -0.146682
C35   C     C_3   0.390479 0.084646 0.530238 0.016508
C36   C     C_3   0.383270 0.921890 0.521274 0.071930
C37   C     C_3   0.500102 0.086161 0.440160 0.050816
C38   C     C_3   0.513367 0.915959 0.440681 0.057278
C39   C     C_R   0.499701 0.499636 0.609420 0.960404
C40   C     C_R   0.473604 0.626643 0.880837 0.611932
C41   C     C_R   0.382382 0.407963 0.882114 0.594130
C42   C     C_R   0.367932 0.412751 0.941869 -0.123799
C43   C     C_R   0.412363 0.527750 0.971331 -0.080482
C44   C     C_R   0.464000 0.637231 0.940476 -0.013164
Cu1   Cu    Cu3+1 0.499860 0.642410 0.500030 1.049135
Cu2   Cu    Cu3+1 0.499860 0.357590 0.500030 1.025400
H1    H     H_    0.108395 0.729330 0.487972 0.205161
H2    H     H_    0.125480 0.285868 0.517957 0.181370
H3    H     H_    0.114139 0.656465 0.554942 0.217536
H4    H     H_    0.123523 0.398825 0.572370 0.261943
H5    H     H_    0.687905 0.089319 0.505118 0.120227
H6    H     H_    0.684315 0.866917 0.525481 0.146969
H7    H     H_    0.308169 0.132121 0.511070 0.156257
H8    H     H_    0.315018 0.918744 0.487482 0.177763
H9    H     H_    0.315192 0.627057 0.334338 0.203243
H10   H     H_    0.273626 0.640033 0.231996 0.166133
N1    N     N_R   0.434928 0.513025 0.853695 -0.429798
N2    N     N_R   0.410283 0.532515 0.150033 -0.444770
N3    N     N_3   0.500250 0.143650 0.501250 -0.211388
N4    N     N_3   0.500250 0.856350 0.501250 -0.202725
O1    O     O_R   0.317570 0.620260 0.500030 -0.531028
O2    O     O_R   0.317570 0.379740 0.500030 -0.627031
O3    O     O_R   0.499840 0.620290 0.417900 -0.536034
O4    O     O_R   0.499840 0.379710 0.417900 -0.546380
O5    O     O_R   0.682190 0.620260 0.500010 -0.534107
O6    O     O_R   0.682190 0.379740 0.500010 -0.526359
O7    O     O_R   0.499920 0.620230 0.582140 -0.565487
O8    O     O_R   0.499920 0.379770 0.582140 -0.546026
O9    O     O_2   0.522080 0.728048 0.849632 -0.496123
O10   O     O_2   0.345752 0.299645 0.852059 -0.544603
O11   O     O_2   0.315096 0.322891 0.154486 -0.544868
O12   O     O_2   0.496583 0.747579 0.151643 -0.501277
N5    N     N_3   0.257716 0.191604 0.946295 -0.521195
H11   H     H_    0.191594 0.225968 0.916942 0.261411
H12   H     H_    0.324489 0.132335 0.926806 0.266939
C45   C     C_2   0.274450 0.605036 0.660001 0.846517
O13   O     O_2   0.252205 0.545315 0.616464 -0.663443
O14   O     O_R   0.206275 0.721400 0.674696 -0.771825
H13   H     H_    0.138370 0.743755 0.646748 0.353219
N6    N     N_3   0.695850 0.440426 0.691761 -0.493170
H14   H     H_    0.749984 0.515362 0.709153 0.227401
H15   H     H_    0.729013 0.345749 0.707552 0.216711
N7    N     N_3   0.653796 0.419096 0.810759 -0.573672
H16   H     H_    0.727005 0.482840 0.805640 0.230161
H17   H     H_    0.680375 0.317911 0.802074 0.230357
C46   C     C_2   0.906835 0.694998 0.575817 0.879080
O15   O     O_2   0.945050 0.806118 0.590657 -0.609320
O16   O     O_R   0.844258 0.620052 0.615297 -0.717118
H18   H     H_    0.852112 0.659209 0.654862 0.353983
C47   C     C_2   0.903680 0.373929 0.593109 0.961105
O17   O     O_2   0.796815 0.365656 0.601516 -0.546804
O18   O     O_R   0.983643 0.375796 0.639767 -0.768030
H19   H     H_    0.941856 0.371778 0.677690 0.333541
N8    N     N_3   0.886165 0.759686 0.477137 -0.556906
H20   H     H_    0.938729 0.776117 0.441803 0.209319
H21   H     H_    0.886553 0.855993 0.496190 0.225932
N9    N     N_3   0.913993 0.234308 0.512915 -0.520122
H22   H     H_    0.966337 0.201097 0.479428 0.214389
H23   H     H_    0.939893 0.160855 0.544119 0.247219
N10   N     N_3   0.126113 0.595314 0.392528 -0.568629
H24   H     H_    0.080792 0.688859 0.396879 0.231288
H25   H     H_    0.122917 0.571336 0.349433 0.268444
N11   N     N_3   0.138367 0.354965 0.407787 -0.552111
H26   H     H_    0.139192 0.350175 0.363466 0.271189
H27   H     H_    0.101037 0.265845 0.423551 0.242880
C48   C     C_2   0.870110 0.581404 0.383960 0.790079
O19   O     O_2   0.771134 0.631936 0.393454 -0.587796
O20   O     O_R   0.916882 0.600878 0.329592 -0.738364
H28   H     H_    0.864964 0.665196 0.304606 0.349613
C49   C     C_2   0.890073 0.347791 0.398093 0.766244
O21   O     O_2   0.810086 0.281621 0.418088 -0.622195
O22   O     O_R   0.933134 0.312027 0.344480 -0.730949
H29   H     H_    0.897127 0.224782 0.329571 0.338235
C50   C     C_2   0.658649 0.131304 0.587362 1.015601
O23   O     O_2   0.764210 0.104453 0.599135 -0.612354
O24   O     O_R   0.585850 0.179107 0.630774 -0.662858
H30   H     H_    0.628128 0.177473 0.669192 0.336040
C51   C     C_2   0.594710 0.863472 0.601599 0.922841
O25   O     O_2   0.664302 0.772824 0.617956 -0.560936
O26   O     O_R   0.525711 0.929696 0.642506 -0.754151
H31   H     H_    0.536773 0.887320 0.682019 0.345130
N12   N     N_3   0.240285 0.204622 0.060099 -0.513035
H32   H     H_    0.169550 0.246506 0.083489 0.253417
H33   H     H_    0.299909 0.146576 0.086169 0.305239
N13   N     N_3   0.380269 0.122698 0.590046 -0.439792
H34   H     H_    0.307845 0.073194 0.608131 0.212784
H35   H     H_    0.350371 0.224898 0.591617 0.263637
N14   N     N_3   0.324551 0.840784 0.565567 -0.509746
H36   H     H_    0.358025 0.852924 0.606153 0.284021
H37   H     H_    0.233667 0.871031 0.566961 0.196066
C52   C     C_2   0.384256 0.137126 0.405605 0.914156
O27   O     O_2   0.283844 0.101823 0.418698 -0.684166
O28   O     O_R   0.395230 0.208005 0.353580 -0.726197
H38   H     H_    0.315582 0.226005 0.332965 0.342419
C53   C     C_2   0.419656 0.864106 0.396521 0.892490
O29   O     O_2   0.332150 0.798584 0.410057 -0.599515
O30   O     O_R   0.434648 0.897349 0.338863 -0.764071
H39   H     H_    0.365258 0.868072 0.313841 0.345958
N15   N     N_3   0.599916 0.143468 0.407550 -0.492199
H40   H     H_    0.593168 0.114018 0.365098 0.232114
H41   H     H_    0.683475 0.104843 0.419854 0.236287
N16   N     N_3   0.629299 0.863715 0.418344 -0.488431
H42   H     H_    0.639992 0.888005 0.375282 0.244336
H43   H     H_    0.704463 0.899332 0.439379 0.208376
C54   C     C_2   0.551567 0.878987 0.057457 0.919090
O31   O     O_2   0.490683 0.984905 0.060589 -0.598235
O32   O     O_R   0.669039 0.872099 0.079417 -0.723558
H44   H     H_    0.693465 0.961409 0.097318 0.343558
N17   N     N_3   0.554356 0.866800 0.938614 -0.499483
H45   H     H_    0.643048 0.880345 0.952267 0.235376
H46   H     H_    0.503403 0.955864 0.946796 0.236705
N18   N     N_3   0.616750 0.390206 0.191513 -0.564976
H47   H     H_    0.623968 0.284606 0.200191 0.241278
H48   H     H_    0.701269 0.432401 0.197658 0.257773
N19   N     N_3   0.670234 0.378497 0.309016 -0.550395
H49   H     H_    0.680468 0.391786 0.352306 0.269518
H50   H     H_    0.664548 0.273231 0.302048 0.230919
N20   N     N_3   0.245313 0.593770 0.781712 -0.558001
H51   H     H_    0.174572 0.543233 0.762014 0.250826
H52   H     H_    0.233257 0.700039 0.776555 0.281241

loop_
_geom_bond_atom_site_label_1
_geom_bond_atom_site_label_2
_ccdc_geom_bond_type
C28   N9    S    
C34   C51   S    
C34   N4    S    
Cu1   N4    S    
Cu2   N3    S    
N19   H50   S    
C38   N16   S    
N5    H11   S    
C35   C36   S    
N14   H36   S    
C51   O26   S    
N9    H22   S    
C53   O29   D    
Cu1   Cu2   S    
O20   H28   S    
C33   C50   S    
C29   C30   S    
C32   C49   S    
Cu2   O2    S    
N7    H16   S    
C18   C24   A    
C23   O6    A    
C19   C45   S    
C10   N2    A    
C45   O14   S    
Cu2   O6    S    
C29   C32   S    
N17   H46   S    
C54   O31   D    
C5    C6    A    
C12   O4    A    
C46   O16   S    
C35   H7    S    
C48   O19   D    
C15   C16   A    
C11   C13   A    
O24   H30   S    
C29   N11   S    
C35   N3    S    
C9    N2    A    
C41   C42   A    
C35   N13   S    
C49   O21   D    
C1    C30   S    
C34   H6    S    
O32   H44   S    
N9    H23   S    
C51   O25   D    
C13   N19   S    
C19   C20   A    
C24   N1    S    
Cu1   O7    S    
C25   H1    S    
C3    N12   S    
C26   H2    S    
C17   N2    S    
C5    C43   A    
C33   N3    S    
C32   C48   S    
C21   C22   A    
C1    O2    A    
N20   H52   S    
N5    H12   S    
C36   N14   S    
O22   H29   S    
C54   O32   S    
C28   C47   S    
C50   O23   D    
C25   H3    S    
C40   O9    S    
C27   C31   S    
C8    C44   A    
C7    C8    A    
C45   O13   D    
N6    H15   S    
C12   O3    A    
O14   H13   S    
C18   C19   A    
C52   O28   S    
Cu1   O3    S    
C37   C52   S    
N14   H37   S    
C23   C31   S    
N20   H51   S    
C27   C46   S    
C43   C44   A    
C16   H10   S    
C39   O8    A    
Cu2   O8    S    
C37   C38   S    
C18   N20   S    
O28   H38   S    
C47   O18   S    
C31   C32   S    
C14   C15   A    
C40   C44   A    
N10   H25   S    
C33   C34   S    
N11   H27   S    
C38   C53   S    
O16   H18   S    
N8    H21   S    
C37   N3    S    
C2    N5    S    
C38   N4    S    
N7    H17   S    
N18   H48   S    
C26   C30   S    
Cu1   O5    S    
N13   H34   S    
N16   H43   S    
C33   H5    S    
C42   C43   A    
N12   H33   S    
C3    C4    A    
N11   H26   S    
O26   H31   S    
C25   C30   S    
C53   O30   S    
C11   C17   A    
C40   N1    A    
C29   N10   S    
C46   O15   D    
C39   O7    A    
C28   C31   S    
C9    O11   S    
C12   C14   S    
N6    H14   S    
C36   N4    S    
C1    O1    A    
C6    C10   A    
C50   O24   S    
N15   H40   S    
N12   H32   S    
C6    C7    A    
C25   C27   S    
O30   H39   S    
C26   C28   S    
C22   N7    S    
C23   O5    A    
C26   H4    S    
C8    N17   S    
C20   C39   S    
C41   N1    A    
N17   H45   S    
N15   H41   S    
C47   O17   D    
C16   C17   A    
C48   O20   S    
C2    C42   A    
C21   N6    S    
Cu1   O1    S    
O18   H19   S    
C2    C3    A    
C22   C24   A    
N8    H20   S    
C49   O22   S    
C36   H8    S    
C11   N18   S    
C4    C5    A    
C20   C21   A    
C37   N15   S    
Cu2   O4    S    
N19   H49   S    
N13   H35   S    
N16   H42   S    
C27   N8    S    
N10   H24   S    
N18   H47   S    
C4    C9    A    
C13   C14   A    
C52   O27   D    
C15   H9    S    
C41   O10   S    
C7    C54   S    
C10   O12   S    
