data_mof_unit_62443.cif
_audit_creation_date              2013-03-05T16:35:49-0500
_audit_creation_method            fapswitch 2.2
_symmetry_space_group_name_H-M    P1
_symmetry_Int_Tables_number       1
_space_group_crystal_system       triclinic
_cell_length_a                    21.729979
_cell_length_b                    21.741814
_cell_length_c                    21.266069
_cell_angle_alpha                 120.830885
_cell_angle_beta                  120.835503
_cell_angle_gamma                 89.767333
_cell_volume                      6937.0488607

loop_
_atom_site_label
_atom_site_type_symbol
_atom_site_description
_atom_site_fract_x
_atom_site_fract_y
_atom_site_fract_z
_atom_type_partial_charge
O1    O     O_R   0.061970 0.509790 0.623960 -0.561696
O2    O     O_R   0.061960 0.614160 0.623930 -0.560808
C1    C     C_R   0.084784 0.584606 0.669229 0.790022
O3    O     O_R   0.090190 0.447820 0.500020 -0.586270
O4    O     O_R   0.090170 0.552190 0.499990 -0.572119
C2    C     C_R   0.117717 0.499065 0.498372 0.800773
Cu1   Cu    Cu3+1 0.000010 0.438210 0.500020 0.965579
Cu2   Cu    Cu3+1 0.999990 0.561790 0.499980 0.972179
O5    O     O_R   0.938040 0.385840 0.376070 -0.557789
O6    O     O_R   0.938030 0.490210 0.376040 -0.563496
O7    O     O_R   0.909830 0.447810 0.500010 -0.569710
O8    O     O_R   0.909810 0.552180 0.499980 -0.581178
C3    C     C_R   0.915371 0.415402 0.330755 0.804827
C4    C     C_R   0.881956 0.500865 0.501524 0.782867
H1    H     H_    0.924271 0.191340 0.135374 0.190215
C5    C     C_R   0.022561 0.247099 0.274282 -0.134841
H2    H     H_    0.006796 0.202619 0.278111 0.142975
C6    C     C_R   0.089485 0.310870 0.349825 -0.101874
H3    H     H_    0.125327 0.315181 0.411774 0.131444
C7    C     C_R   0.109784 0.368899 0.345273 0.063053
C8    C     C_R   0.063098 0.362048 0.264267 -0.145013
H4    H     H_    0.078279 0.406416 0.260059 0.194037
C9    C     C_R   0.996483 0.298009 0.188665 -0.097280
H5    H     H_    0.960477 0.293009 0.126313 0.178897
C10   C     C_R   0.976080 0.240674 0.193758 -0.087649
C11   C     C_R   0.244935 0.439650 0.425844 -0.222459
H6    H     H_    0.242484 0.392020 0.369414 0.168739
C12   C     C_R   0.312971 0.502718 0.500250 -0.102599
C13   C     C_R   0.316043 0.564650 0.573763 0.036641
C14   C     C_R   0.250551 0.562402 0.570638 -0.238627
H7    H     H_    0.252008 0.610140 0.626144 0.144582
C15   C     C_R   0.183680 0.498532 0.497574 -0.065777
C16   C     C_R   0.180413 0.436344 0.424668 0.000145
C17   C     C_R   0.431869 0.643763 0.738443 0.143550
C18   C     C_R   0.497989 0.709956 0.812084 -0.256531
H8    H     H_    0.532911 0.721431 0.878288 0.201340
C19   C     C_R   0.519563 0.763747 0.802586 0.253952
C20   C     C_R   0.475404 0.750455 0.716854 0.305748
C21   C     C_R   0.408522 0.685833 0.644099 -0.288407
H9    H     H_    0.374473 0.675241 0.578217 0.169984
C22   C     C_R   0.386295 0.632915 0.654072 0.012645
C23   C     C_1   0.136221 0.635888 0.771758 -0.202282
C24   C     C_1   0.178720 0.678360 0.856713 -0.010743
C25   C     C_1   0.229034 0.728702 0.957479 0.004597
C26   C     C_1   0.271448 0.771167 0.042443 0.006436
C27   C     C_1   0.321759 0.821561 0.143224 0.003061
C28   C     C_1   0.364181 0.864061 0.228190 -0.186499
H10   H     H_    0.027175 0.434586 0.781775 0.133897
C29   C     C_R   0.910271 0.389830 0.665223 -0.125364
H11   H     H_    0.897223 0.336277 0.655359 0.137905
C30   C     C_R   0.853747 0.403604 0.606845 -0.144785
H12   H     H_    0.797124 0.360287 0.551997 0.123809
C31   C     C_R   0.870465 0.472830 0.618985 0.123203
C32   C     C_R   0.944092 0.528454 0.691067 -0.111693
H13   H     H_    0.957669 0.582587 0.702233 0.107606
C33   C     C_R   0.000341 0.514551 0.749548 -0.115715
H14   H     H_    0.056912 0.557580 0.805238 0.136329
C34   C     C_R   0.983527 0.445237 0.736476 -0.104857
C35   C     C_R   0.745133 0.489059 0.556310 -0.247525
H15   H     H_    0.739866 0.478245 0.598109 0.147994
C36   C     C_R   0.686572 0.503255 0.500467 -0.078338
C37   C     C_R   0.692808 0.518605 0.446882 -0.014042
C38   C     C_R   0.758164 0.518708 0.449601 -0.231435
H16   H     H_    0.763315 0.530531 0.408429 0.155426
C39   C     C_R   0.816231 0.502554 0.503796 -0.075349
C40   C     C_R   0.809993 0.487750 0.558077 0.000783
C41   C     C_R   0.575081 0.483222 0.297371 0.209703
C42   C     C_R   0.520489 0.506533 0.249131 -0.120677
H17   H     H_    0.474304 0.466681 0.177434 0.138199
C43   C     C_R   0.524635 0.582639 0.293071 -0.172909
H18   H     H_    0.482518 0.599742 0.255256 0.134021
C44   C     C_R   0.582780 0.636725 0.385448 -0.137931
H19   H     H_    0.585779 0.695611 0.418856 0.137266
C45   C     C_R   0.636886 0.614974 0.434709 -0.182954
H20   H     H_    0.681497 0.657640 0.506684 0.136867
C46   C     C_R   0.633803 0.538776 0.391575 0.051920
C47   C     C_1   0.863934 0.364221 0.228208 -0.170444
C48   C     C_1   0.821395 0.321827 0.143243 -0.001738
C49   C     C_1   0.771065 0.271531 0.042471 0.033475
C50   C     C_1   0.728630 0.229094 0.957509 0.089173
C51   C     C_1   0.678344 0.178545 0.856732 0.048420
C52   C     C_1   0.635923 0.135817 0.771778 -0.191231
O9    O     O_R   0.464140 0.554340 0.428270 -0.585538
O10   O     O_R   0.535870 0.626050 0.571740 -0.572960
C53   C     C_R   0.497883 0.619923 0.499798 0.828271
O11   O     O_R   0.373960 0.464160 0.428260 -0.584631
O12   O     O_R   0.445680 0.535880 0.571730 -0.583268
C54   C     C_R   0.379882 0.501701 0.500106 0.822905
Cu3   Cu    Cu3+1 0.457530 0.457560 0.415050 0.973002
Cu4   Cu    Cu3+1 0.542470 0.542480 0.584950 0.987941
O13   O     O_R   0.464130 0.373990 0.428260 -0.577795
O14   O     O_R   0.535860 0.445700 0.571730 -0.589482
O15   O     O_R   0.554320 0.464170 0.428270 -0.586593
O16   O     O_R   0.626040 0.535880 0.571740 -0.585090
C55   C     C_R   0.502376 0.380088 0.499975 0.819763
C56   C     C_R   0.619870 0.502254 0.500027 0.825510
O17   O     O_R   0.552180 0.090160 0.499970 -0.581810
O18   O     O_R   0.447790 0.090160 0.499970 -0.568965
C57   C     C_R   0.500765 0.119680 0.501864 0.783332
O19   O     O_R   0.490230 0.938030 0.376060 -0.564770
O20   O     O_R   0.385840 0.938030 0.376050 -0.562526
C58   C     C_R   0.415401 0.915363 0.330746 0.791792
Cu5   Cu    Cu3+1 0.561810 1.000000 0.500000 0.965352
Cu6   Cu    Cu3+1 0.438190 1.000000 0.500000 0.993274
O21   O     O_R   0.552210 0.909840 0.500030 -0.582211
O22   O     O_R   0.447820 0.909840 0.500030 -0.563988
O23   O     O_R   0.614160 0.061970 0.623950 -0.560625
O24   O     O_R   0.509770 0.061970 0.623940 -0.551860
C59   C     C_R   0.501091 0.882259 0.501899 0.795255
C60   C     C_R   0.584622 0.084455 0.669251 0.792299
C61   C     C_R   0.265918 0.504025 0.225541 -0.208113
H21   H     H_    0.253622 0.454915 0.162683 0.169227
C62   C     C_R   0.337577 0.562096 0.289669 -0.177286
H22   H     H_    0.379281 0.556966 0.275391 0.149378
C63   C     C_R   0.355196 0.626559 0.371607 0.103554
C64   C     C_R   0.299979 0.632996 0.388128 -0.224576
H23   H     H_    0.312323 0.683172 0.450359 0.181506
C65   C     C_R   0.228109 0.575178 0.323831 -0.210228
H24   H     H_    0.186410 0.581407 0.338152 0.179831
C66   C     C_R   0.210179 0.510249 0.241609 0.413052
C67   C     C_R   0.432436 0.755038 0.441419 -0.193348
H25   H     H_    0.380505 0.758081 0.394958 0.149660
C68   C     C_R   0.501599 0.816029 0.502709 -0.065148
C69   C     C_R   0.569363 0.812658 0.563228 0.030635
C70   C     C_R   0.566396 0.747990 0.561745 -0.152233
H26   H     H_    0.618296 0.745235 0.608606 0.158315
C71   C     C_R   0.497484 0.686301 0.499200 -0.071735
C72   C     C_R   0.429813 0.689361 0.437865 0.026455
C73   C     C_R   0.694353 0.877099 0.609016 -0.122176
H27   H     H_    0.679164 0.832107 0.542498 0.128923
C74   C     C_R   0.765231 0.936184 0.673448 -0.193103
H28   H     H_    0.804363 0.936787 0.656524 0.154185
C75   C     C_R   0.786161 0.994056 0.760057 -0.169639
H29   H     H_    0.841795 0.038753 0.809215 0.179752
C76   C     C_R   0.736045 0.993588 0.783112 0.371042
C77   C     C_R   0.664003 0.934753 0.717051 -0.180181
H30   H     H_    0.624211 0.933792 0.732999 0.224082
C78   C     C_R   0.643323 0.876336 0.630413 0.034025
H31   H     H_    0.581698 0.239883 0.228329 0.137332
C79   C     C_R   0.497812 0.194112 0.233174 -0.118722
H32   H     H_    0.457983 0.152636 0.159963 0.137544
C80   C     C_R   0.479930 0.197753 0.289202 -0.134726
H33   H     H_    0.426310 0.158470 0.258738 0.129506
C81   C     C_R   0.531377 0.251549 0.384211 0.117423
C82   C     C_R   0.600948 0.301449 0.422462 -0.135670
H34   H     H_    0.641692 0.342466 0.495669 0.105821
C83   C     C_R   0.618996 0.296946 0.366182 -0.150680
H35   H     H_    0.673051 0.334579 0.395615 0.141865
C84   C     C_R   0.567522 0.243303 0.271684 -0.110929
C85   C     C_R   0.514208 0.188968 0.446120 -0.222555
H36   H     H_    0.523747 0.141187 0.403104 0.155074
C86   C     C_R   0.501411 0.187182 0.503349 -0.072567
C87   C     C_R   0.488768 0.249005 0.559428 0.005728
C88   C     C_R   0.490089 0.311964 0.557371 -0.232335
H37   H     H_    0.480885 0.360026 0.600531 0.147200
C89   C     C_R   0.502891 0.313567 0.500104 -0.079882
C90   C     C_R   0.514784 0.251593 0.443525 -0.004214
C91   C     C_R   0.408187 0.257419 0.613224 -0.139687
H38   H     H_    0.363830 0.259095 0.558655 0.125372
C92   C     C_R   0.396951 0.261440 0.674156 -0.138211
H39   H     H_    0.344277 0.266103 0.666474 0.130960
C93   C     C_R   0.453828 0.259847 0.745250 -0.102736
H40   H     H_    0.445213 0.263306 0.792628 0.128599
C94   C     C_R   0.522027 0.254262 0.755531 -0.115024
H41   H     H_    0.566253 0.253928 0.811257 0.129597
C95   C     C_R   0.533327 0.249685 0.694367 -0.125122
H42   H     H_    0.586667 0.245945 0.703454 0.106630
C96   C     C_R   0.476276 0.250982 0.622554 0.121394
N1    N     N_R   0.584621 0.832699 0.881309 0.158238
O25   O     O_R   0.642371 0.831983 0.945166 -0.343795
O26   O     O_R   0.581829 0.898130 0.895670 -0.274056
N2    N     N_R   0.499565 0.799732 0.701566 0.146967
O27   O     O_R   0.571726 0.828271 0.739524 -0.323572
O28   O     O_R   0.449221 0.807511 0.640086 -0.379747
C97   C     C_3   0.572196 0.400754 0.251929 -0.418728
C98   C     C_3   0.505859 0.344101 0.150902 -0.854483
H43   H     H_    0.450178 0.341563 0.140733 0.253145
H44   H     H_    0.508976 0.360407 0.110653 0.252072
H45   H     H_    0.509514 0.286118 0.125629 0.248835
H46   H     H_    0.626525 0.399110 0.259327 0.202989
H47   H     H_    0.568219 0.380380 0.288465 0.230054
N3    N     N_R   0.135424 0.451886 0.174140 0.109820
O29   O     O_R   0.122116 0.386735 0.104637 -0.364445
O30   O     O_R   0.079141 0.464644 0.179499 -0.389069
N4    N     N_R   0.758649 0.051614 0.873332 0.116751
O31   O     O_R   0.824615 0.106954 0.933912 -0.396423
O32   O     O_R   0.714333 0.048593 0.896494 -0.327037
C99   C     C_3   0.408725 0.583703 0.746827 -0.370560
C100  C     C_3   0.465081 0.595896 0.837357 -0.840946
H48   H     H_    0.522045 0.598463 0.851080 0.260370
H49   H     H_    0.470264 0.649095 0.893922 0.255324
H50   H     H_    0.443647 0.547152 0.833861 0.244784
H51   H     H_    0.352720 0.581140 0.735795 0.201776
H52   H     H_    0.401133 0.526978 0.692100 0.208666

loop_
_geom_bond_atom_site_label_1
_geom_bond_atom_site_label_2
_geom_bond_distance
_ccdc_geom_bond_type
C2    C15   1.442067 S    
O12   C54   1.237901 A    
C38   C39   1.401532 A    
C1    C23   1.505471 S    
O20   C58   1.314895 A    
C85   C90   1.391040 A    
N1    O25   1.301407 A    
C32   H13   1.083136 S    
C83   H35   1.081722 S    
C65   C66   1.406401 A    
Cu6   O22   1.970825 S    
C82   H34   1.083126 S    
C36   C56   1.444832 S    
C91   C96   1.404979 A    
C76   C77   1.407235 A    
C21   C22   1.400591 A    
C31   C32   1.404773 A    
C64   H23   1.082625 S    
Cu1   O7    1.969754 S    
C11   H6    1.084657 S    
C19   C20   1.413159 A    
C45   C46   1.403830 A    
C20   N2    1.437252 S    
C52   C60   1.505430 S    
C69   C78   1.475660 S    
C94   H41   1.081340 S    
C83   C84   1.397748 A    
C79   C80   1.398080 A    
C17   C18   1.409957 A    
C35   C40   1.391084 A    
C19   N1    1.437753 S    
O4    C2    1.291657 A    
O7    C4    1.294132 A    
O11   C54   1.240252 A    
N4    O32   1.301628 A    
C73   H27   1.082798 S    
C63   C64   1.401112 A    
O18   C57   1.292535 A    
C33   H14   1.081725 S    
C6    C7    1.403265 A    
C6    H3    1.083117 S    
C100  H49   1.110650 S    
O5    C3    1.315328 A    
C65   H24   1.082494 S    
O17   C57   1.294461 A    
C62   H22   1.082805 S    
C91   C92   1.397987 A    
C98   H45   1.110355 S    
C73   C78   1.400770 A    
C61   H21   1.082351 S    
C41   C97   1.521664 S    
C5    H2    1.082243 S    
C29   C30   1.398001 A    
C12   C54   1.455580 S    
C9    H5    1.082411 S    
C81   C90   1.478535 S    
C59   C68   1.448779 S    
C43   H18   1.082497 S    
Cu3   O13   1.969928 S    
C88   C89   1.397365 A    
C61   C62   1.397383 A    
C97   H47   1.108743 S    
C13   C22   1.482406 S    
C98   H44   1.110670 S    
C99   H52   1.111900 S    
C35   H15   1.085009 S    
C28   C58   1.505853 S    
C8    H4    1.081049 S    
C95   C96   1.404609 A    
N1    O26   1.301418 A    
C37   C46   1.482520 S    
C95   H42   1.083119 S    
C100  H48   1.110866 S    
C17   C22   1.414995 A    
O10   Cu4   1.969929 S    
O3    Cu1   1.971560 S    
C82   C83   1.398795 A    
N2    O28   1.301408 A    
Cu4   O16   1.968964 S    
C93   C94   1.397267 A    
C79   H32   1.082635 S    
O9    Cu3   1.970257 S    
C32   C33   1.398576 A    
C35   C36   1.395780 A    
C80   H33   1.083454 S    
C45   H20   1.083455 S    
C41   C42   1.413162 A    
C68   C69   1.408220 A    
O10   C53   1.239807 A    
C67   C72   1.390534 A    
C44   C45   1.394284 A    
C21   H9    1.082304 S    
C48   C49   1.479667 S    
C42   H17   1.080253 S    
C47   C48   1.247573 T    
H31   C84   1.082216 S    
O19   Cu5   1.831912 S    
C51   C52   1.247431 T    
C29   C34   1.397501 A    
C30   H12   1.083305 S    
O11   Cu3   1.968963 S    
C61   C66   1.406295 A    
O1    C1    1.315541 A    
C18   H8    1.080062 S    
C92   C93   1.397231 A    
C91   H38   1.083243 S    
C100  H50   1.110559 S    
O16   C56   1.235559 A    
C24   C25   1.479576 S    
C99   C100  1.529375 S    
C13   C14   1.390123 A    
C75   H29   1.082305 S    
C11   C16   1.390878 A    
Cu4   O14   1.970257 S    
C97   C98   1.529041 S    
C14   H7    1.085232 S    
Cu2   O8    1.971562 S    
C7    C8    1.402014 A    
C37   C38   1.391390 A    
O19   C58   1.314852 A    
C88   H37   1.085243 S    
Cu5   O21   1.972512 S    
C55   C89   1.447684 S    
C17   C99   1.525034 S    
C31   C40   1.480562 S    
C67   H25   1.085094 S    
O17   Cu5   1.970826 S    
C64   C65   1.397794 A    
C7    C16   1.476664 S    
C77   C78   1.402472 A    
C98   H43   1.110801 S    
O9    C53   1.235528 A    
O8    C4    1.294431 A    
C99   H51   1.110709 S    
C39   C40   1.412820 A    
O15   C56   1.236651 A    
C8    C9    1.398161 A    
C87   C96   1.480560 S    
N3    O29   1.301487 A    
C70   H26   1.084940 S    
O23   C60   1.314410 A    
C85   C86   1.398370 A    
C49   C50   1.247511 T    
C53   C71   1.449690 S    
O3    C2    1.291247 A    
C23   C24   1.247420 T    
C74   H28   1.082350 S    
Cu6   O24   1.831912 S    
N2    O27   1.300895 A    
C70   C71   1.398685 A    
C93   H40   1.082325 S    
C5    C10   1.398192 A    
Cu1   O5    1.831710 S    
O21   C59   1.292364 A    
C27   C28   1.247587 T    
C12   C13   1.413377 A    
C18   C19   1.404287 A    
O1    Cu1   1.832029 S    
Cu2   O6    1.832030 S    
O2    Cu2   1.831710 S    
C25   C26   1.247553 T    
C50   C51   1.479750 S    
C74   C75   1.397429 A    
O6    C3    1.315347 A    
O4    Cu2   1.969754 S    
Cu5   O23   1.831848 S    
O24   C60   1.315293 A    
H10   C34   1.082311 S    
C97   H46   1.111199 S    
O20   Cu6   1.831850 S    
C57   C86   1.451661 S    
C11   C12   1.401435 A    
C81   C82   1.404369 A    
C15   C16   1.405777 A    
C94   C95   1.398783 A    
O2    C1    1.314908 A    
Cu3   Cu4   2.494693 S    
C92   H39   1.082327 S    
C3    C47   1.505723 S    
C14   C15   1.394370 A    
N4    O31   1.301600 A    
C20   C21   1.401173 A    
C44   H19   1.081210 S    
O18   Cu6   1.972513 S    
C73   C74   1.395795 A    
C4    C39   1.453246 S    
C33   C34   1.397435 A    
C80   C81   1.404579 A    
O14   C55   1.237692 A    
Cu3   O15   1.969314 S    
C36   C37   1.406000 A    
N3    O30   1.301333 A    
C67   C68   1.397300 A    
Cu1   Cu2   2.687287 S    
C63   C72   1.477366 S    
O13   C55   1.236320 A    
C38   H16   1.084721 S    
C26   C27   1.479790 S    
C9    C10   1.397961 A    
C89   C90   1.408622 A    
C86   C87   1.412173 A    
H1    C10   1.082273 S    
C5    C6    1.398687 A    
C29   H11   1.082341 S    
O12   Cu4   1.969316 S    
Cu5   Cu6   2.686258 S    
C75   C76   1.406766 A    
C42   C43   1.396181 A    
C85   H36   1.085153 S    
C77   H30   1.082209 S    
C43   C44   1.392160 A    
C41   C46   1.418506 A    
C30   C31   1.404988 A    
C87   C88   1.392629 A    
C66   N3    1.438318 S    
C79   C84   1.397395 A    
C76   N4    1.439399 S    
C71   C72   1.410661 A    
C69   C70   1.391093 A    
C62   C63   1.401555 A    
O22   C59   1.293364 A    
