data_mof_unit_63502.cif
_audit_creation_date              2012-12-11T15:20:34-0500
_audit_creation_method            fapswitch 2.2
_symmetry_space_group_name_H-M    P1
_symmetry_Int_Tables_number       1
_space_group_crystal_system       triclinic
_cell_length_a                    21.591986
_cell_length_b                    7.230037
_cell_length_c                    19.992331
_cell_angle_alpha                 89.999967
_cell_angle_beta                  87.510673
_cell_angle_gamma                 89.999762
_cell_volume                      3118.07472541

loop_
_atom_site_label
_atom_site_type_symbol
_atom_type_description
_atom_site_fract_x
_atom_site_fract_y
_atom_site_fract_z
_atom_type_partial_charge
O1    O     O_R   0.688010 0.379840 0.189360 -0.521972
O2    O     O_R   0.311990 0.620160 0.810640 -0.521972
O3    O     O_R   0.811990 0.879840 0.310640 -0.521972
O4    O     O_R   0.188010 0.120160 0.689360 -0.521973
O5    O     O_R   0.808630 0.708850 0.184280 -0.522999
O6    O     O_R   0.191370 0.291150 0.815720 -0.523000
O7    O     O_R   0.691370 0.208850 0.315720 -0.523000
O8    O     O_R   0.308630 0.791150 0.684280 -0.523000
C1    C     C_R   0.830450 0.540934 0.166631 0.715026
C2    C     C_R   0.169550 0.459066 0.833369 0.715025
C3    C     C_R   0.669550 0.040934 0.333369 0.715033
C4    C     C_R   0.330450 0.959066 0.666631 0.715034
O9    O     O_R   0.688260 0.709510 0.181570 -0.533254
O10   O     O_R   0.311740 0.290490 0.818430 -0.533254
O11   O     O_R   0.811740 0.209510 0.318430 -0.533254
O12   O     O_R   0.188260 0.790490 0.681570 -0.533254
O13   O     O_R   0.690760 0.880550 0.307920 -0.517163
O14   O     O_R   0.309240 0.119450 0.692080 -0.517163
O15   O     O_R   0.809240 0.380550 0.192080 -0.517166
O16   O     O_R   0.190760 0.619450 0.807920 -0.517166
C5    C     C_R   0.670010 0.540028 0.163893 0.728609
C6    C     C_R   0.329990 0.459972 0.836107 0.728609
C7    C     C_R   0.829990 0.040029 0.336107 0.728608
C8    C     C_R   0.170009 0.959971 0.663893 0.728609
O17   O     O_3   0.750960 0.546580 0.291460 -0.353861
O18   O     O_3   0.249040 0.453420 0.708540 -0.353861
O19   O     O_3   0.749040 0.046580 0.208540 -0.353859
O20   O     O_3   0.250960 0.953420 0.791460 -0.353859
V1    V     V_3+5 0.749820 0.821150 0.242310 1.489663
V2    V     V_3+5 0.250180 0.178850 0.757690 1.489663
V3    V     V_3+5 0.750180 0.321150 0.257690 1.489663
V4    V     V_3+5 0.249820 0.678850 0.742310 1.489663
C9    C     C_R   0.077337 0.832503 0.610058 -0.227456
C10   C     C_R   0.922663 0.167497 0.389942 -0.227456
C11   C     C_R   0.422651 0.332479 0.889957 -0.227458
C12   C     C_R   0.577349 0.667521 0.110043 -0.227459
C13   C     C_R   0.122524 0.971908 0.612008 -0.111397
C14   C     C_R   0.877476 0.028091 0.387992 -0.111398
C15   C     C_R   0.377475 0.471911 0.887994 -0.111402
C16   C     C_R   0.622525 0.528089 0.112006 -0.111402
C17   C     C_R   0.120548 0.121456 0.565773 0.093970
C18   C     C_R   0.879452 0.878544 0.434227 0.093970
C19   C     C_R   0.379461 0.621483 0.934217 0.093971
C20   C     C_R   0.620539 0.378516 0.065782 0.093971
C21   C     C_R   0.070381 0.135912 0.522315 0.053680
C22   C     C_R   0.929619 0.864088 0.477685 0.053679
C23   C     C_R   0.429629 0.635940 0.977672 0.053675
C24   C     C_R   0.570370 0.364059 0.022328 0.053675
C25   C     C_R   0.024900 0.994690 0.522035 0.037546
C26   C     C_R   0.975100 0.005310 0.477964 0.037546
C27   C     C_R   0.475099 0.494690 0.977965 0.037559
C28   C     C_R   0.524900 0.505310 0.022035 0.037559
C29   C     C_R   0.029234 0.842025 0.565384 0.095197
C30   C     C_R   0.970766 0.157975 0.434615 0.095196
C31   C     C_R   0.470754 0.341998 0.934631 0.095191
C32   C     C_R   0.529246 0.658002 0.065369 0.095192
C33   C     C_R   0.064200 0.288105 0.478970 -0.151396
C34   C     C_R   0.935800 0.711895 0.521030 -0.151396
C35   C     C_R   0.435824 0.788164 0.021001 -0.151421
C36   C     C_R   0.564176 0.211836 0.978999 -0.151421
C37   C     C_R   0.015188 0.298680 0.435877 -0.176848
C38   C     C_R   0.984812 0.701320 0.564123 -0.176847
C39   C     C_R   0.484837 0.798738 0.064092 -0.176864
C40   C     C_R   0.515163 0.201262 0.935908 -0.176864
H1    H     H_    0.078966 0.716856 0.644497 0.139781
H2    H     H_    0.921034 0.283144 0.355503 0.139780
H3    H     H_    0.421013 0.216810 0.855529 0.139804
H4    H     H_    0.578987 0.783190 0.144471 0.139804
H5    H     H_    0.096458 0.402197 0.478055 0.169141
H6    H     H_    0.903542 0.597803 0.521945 0.169141
H7    H     H_    0.403577 0.902282 0.021902 0.169145
H8    H     H_    0.596423 0.097718 0.978098 0.169145
H9    H     H_    0.012085 0.417897 0.403314 0.135320
H10   H     H_    0.987915 0.582103 0.596686 0.135320
H11   H     H_    0.487951 0.917981 0.096642 0.135333
H12   H     H_    0.512049 0.082019 0.903358 0.135333
C41   C     C_1   0.382659 0.969178 0.614491 -0.178664
C42   C     C_1   0.617341 0.030822 0.385509 -0.178665
C43   C     C_1   0.117341 0.469180 0.885509 -0.178671
C44   C     C_1   0.882659 0.530820 0.114491 -0.178671
C45   C     C_1   0.426251 0.979942 0.571718 0.016861
C46   C     C_1   0.573749 0.020058 0.428282 0.016861
C47   C     C_1   0.073749 0.479943 0.928282 0.016855
C48   C     C_1   0.926251 0.520057 0.071718 0.016856
C49   C     C_1   0.478112 0.993958 0.521253 0.014122
C50   C     C_1   0.521888 0.006041 0.478747 0.014122
C51   C     C_1   0.021888 0.493959 0.978747 0.014119
C52   C     C_1   0.978112 0.506041 0.021253 0.014119
I1    I     I_    0.196901 0.311652 0.554920 -0.393897
I2    I     I_    0.803099 0.688348 0.445080 -0.393897
I3    I     I_    0.303119 0.811716 0.945063 -0.393896
I4    I     I_    0.696881 0.188284 0.054937 -0.393896

loop_
_geom_bond_atom_site_label_1
_geom_bond_atom_site_label_2
_ccdc_geom_bond_type
C34   C38   A    
C47   C51   S    
C51   C52   T    
O1    C5    A    
O19   V1    S    
O13   V1    S    
C17   I1    S    
C44   C48   T    
O4    V2    S    
O15   V3    S    
C10   H2    S    
C9    H1    S    
C49   C50   T    
O18   V4    S    
C21   C33   A    
C26   C30   A    
O9    V1    S    
C14   C18   A    
O4    C8    A    
C36   H8    S    
O1    V3    S    
O2    V4    S    
C18   C22   A    
O3    V1    S    
O3    C7    A    
C1    O15   A    
C2    O16   A    
O2    C6    A    
O14   V2    S    
C21   C25   A    
C16   C20   A    
C20   I4    S    
O11   C7    A    
O12   C8    A    
C22   C34   A    
O10   V2    S    
C24   C36   A    
O5    V1    S    
C9    C29   A    
O7    V3    S    
C11   C31   A    
C27   C28   A    
O8    V4    S    
C12   C16   A    
C4    C41   S    
C34   H6    S    
C23   C27   A    
C37   H9    S    
C46   C50   S    
C9    C13   A    
C18   I2    S    
C1    C44   S    
C11   C15   A    
O5    C1    A    
C12   C32   A    
C3    C42   S    
C29   C38   A    
C42   C46   T    
O7    C3    A    
C41   C45   T    
O8    C4    A    
C31   C40   A    
C8    C13   S    
C40   H12   S    
C32   C39   A    
O9    C5    A    
O11   V3    S    
O6    V2    S    
C10   C30   A    
O16   V4    S    
C3    O13   A    
C10   C14   A    
O17   V3    S    
C48   C52   S    
O6    C2    A    
C15   C19   A    
C2    C43   S    
C12   H4    S    
C33   C37   A    
C30   C37   A    
O12   V4    S    
C7    C14   S    
C22   C26   A    
C35   C39   A    
C36   C40   A    
O10   C6    A    
O20   V2    S    
C43   C47   T    
C5    C16   S    
C39   H11   S    
C25   C29   A    
C6    C15   S    
C27   C31   A    
C13   C17   A    
C19   I3    S    
C11   H3    S    
C23   C35   A    
C28   C32   A    
C24   C28   A    
C25   C26   A    
C4    O14   A    
C17   C21   A    
C38   H10   S    
C33   H5    S    
C19   C23   A    
C45   C49   S    
C20   C24   A    
C35   H7    S    
