data_mof_unit_21828.cif
_audit_creation_date              2012-12-10T18:29:38-0500
_audit_creation_method            fapswitch 2.2
_symmetry_space_group_name_H-M    P1
_symmetry_Int_Tables_number       1
_space_group_crystal_system       triclinic
_cell_length_a                    11.554625
_cell_length_b                    15.009615
_cell_length_c                    15.48614
_cell_angle_alpha                 82.549963
_cell_angle_beta                  89.618382
_cell_angle_gamma                 104.349222
_cell_volume                      2577.91123867

loop_
_atom_site_label
_atom_site_type_symbol
_atom_type_description
_atom_site_fract_x
_atom_site_fract_y
_atom_site_fract_z
_atom_type_partial_charge
C1    C     C_R   0.486399 0.442153 0.662084 0.863183
C2    C     C_R   0.519317 0.558014 0.337865 0.861090
C3    C     C_R   0.541636 0.355864 0.927837 0.177841
C4    C     C_R   0.613385 0.651515 0.069403 0.168280
C5    C     C_R   0.587652 0.518918 0.953358 0.060248
C6    C     C_R   0.582638 0.489239 0.043834 0.067679
C7    C     C_R   0.573947 0.394348 0.073510 -0.220281
C8    C     C_R   0.622961 0.615264 0.922931 -0.220721
C9    C     C_R   0.556170 0.329037 0.015770 -0.227747
C10   C     C_R   0.637839 0.680483 0.980593 -0.225722
C11   C     C_R   0.658102 0.835565 0.650571 0.447444
C12   C     C_R   0.330111 0.160994 0.356496 0.445191
C13   C     C_R   0.633656 0.748656 0.622451 -0.122765
C14   C     C_R   0.359836 0.249420 0.381305 -0.122279
C15   C     C_R   0.518678 0.796049 0.507733 -0.048876
C16   C     C_R   0.482645 0.204394 0.491690 -0.050807
C17   C     C_R   0.535107 0.884847 0.533895 -0.101801
C18   C     C_R   0.458137 0.113190 0.470211 -0.100929
C19   C     C_R   0.606291 0.904394 0.607358 -0.079499
C20   C     C_R   0.382145 0.092187 0.399466 -0.083962
C21   C     C_R   0.483079 0.953778 0.489537 0.044171
C22   C     C_R   0.507097 0.043364 0.516343 0.045135
C23   C     C_R   0.718024 0.500938 0.500134 0.900581
C24   C     C_R   0.281978 0.499062 0.499864 0.904000
C25   C     C_R   0.577539 0.060043 0.589481 -0.335683
C26   C     C_R   0.407197 0.935493 0.419469 -0.335726
C27   C     C_R   0.623551 0.991777 0.635959 0.542144
C28   C     C_R   0.359783 0.003262 0.373624 0.539021
C29   C     C_1   0.839100 0.502337 0.500498 -0.186262
C30   C     C_1   0.160892 0.497659 0.499509 -0.189416
C31   C     C_1   0.940982 0.501202 0.500269 0.004664
C32   C     C_1   0.059007 0.498792 0.499743 0.004469
C33   C     C_R   0.497783 0.408977 0.753835 -0.055179
C34   C     C_R   0.548078 0.592652 0.245626 -0.056614
C35   C     C_R   0.511164 0.288850 0.870890 -0.201914
C36   C     C_R   0.614757 0.717054 0.126587 -0.204034
C37   C     C_R   0.490470 0.315451 0.783807 -0.194359
C38   C     C_R   0.582891 0.687733 0.214628 -0.193796
C39   C     C_R   0.527878 0.475148 0.810688 -0.262464
C40   C     C_R   0.548310 0.527830 0.188826 -0.257939
C41   C     C_R   0.555319 0.451017 0.896557 0.092112
C42   C     C_R   0.584213 0.555455 0.101348 0.093474
H1    H     H_    0.548810 0.256854 0.040642 0.144695
H2    H     H_    0.663378 0.753698 0.955158 0.164167
H3    H     H_    0.598290 0.125555 0.614285 0.154840
H4    H     H_    0.380240 0.868263 0.398258 0.157523
H5    H     H_    0.515878 0.455200 0.213258 0.164184
H6    H     H_    0.526292 0.545714 0.787578 0.162294
H7    H     H_    0.584712 0.739092 0.258031 0.154519
H8    H     H_    0.469012 0.263254 0.740257 0.153155
H9    H     H_    0.502664 0.216079 0.893820 0.129570
H10   H     H_    0.638752 0.790704 0.102983 0.133477
H11   H     H_    0.583286 0.369150 0.140969 0.151026
H12   H     H_    0.641983 0.641940 0.854774 0.163293
H13   H     H_    0.541171 0.228260 0.542024 0.141978
H14   H     H_    0.468094 0.774550 0.452840 0.139301
H15   H     H_    0.324189 0.303887 0.347510 0.156810
H16   H     H_    0.667321 0.693562 0.657126 0.149552
N1    N     N_R   0.566020 0.731700 0.552730 -0.122319
N2    N     N_R   0.433980 0.268300 0.447270 -0.124360
O1    O     O_R   0.466720 0.383110 0.605620 -0.617894
O2    O     O_R   0.533280 0.616890 0.394380 -0.619419
O3    O     O_R   0.509090 0.531900 0.639510 -0.621296
O4    O     O_R   0.490910 0.468100 0.360490 -0.621047
O5    O     O_R   0.644370 0.425610 0.483050 -0.607275
O6    O     O_R   0.355630 0.574390 0.516950 -0.603356
O7    O     O_R   0.686740 0.574390 0.516930 -0.609196
O8    O     O_R   0.313260 0.425610 0.483070 -0.608961
Zn1   Zn    Zn3+2 0.471710 0.400660 0.477370 0.941818
Zn2   Zn    Zn3+2 0.528290 0.599340 0.522630 0.943289
O9    O     O_3   0.693130 0.014031 0.706242 -0.566573
C43   C     C_3   0.617114 0.010641 0.778933 -0.249150
H17   H     H_    0.552406 0.941478 0.793953 0.163501
H18   H     H_    0.568797 0.066492 0.769115 0.129154
H19   H     H_    0.672615 0.021989 0.836588 0.187263
O10   O     O_3   0.284794 0.979392 0.306486 -0.568844
C44   C     C_3   0.355355 0.980106 0.231566 -0.243509
H20   H     H_    0.403700 0.924241 0.240773 0.129440
H21   H     H_    0.419678 0.048920 0.213078 0.160694
H22   H     H_    0.295555 0.966847 0.176412 0.190668
O11   O     O_3   0.723081 0.849732 0.724491 -0.584300
C45   C     C_3   0.844685 0.858362 0.703554 -0.254980
H23   H     H_    0.878743 0.914386 0.648203 0.168743
H24   H     H_    0.859890 0.791497 0.688800 0.134955
H25   H     H_    0.897436 0.877551 0.760926 0.192537
O12   O     O_3   0.257215 0.144573 0.286810 -0.576147
C46   C     C_3   0.137744 0.133964 0.315223 -0.235953
H26   H     H_    0.123460 0.200083 0.332840 0.133090
H27   H     H_    0.110316 0.077399 0.371044 0.165927
H28   H     H_    0.078761 0.114425 0.260913 0.191161

loop_
_geom_bond_atom_site_label_1
_geom_bond_atom_site_label_2
_ccdc_geom_bond_type
C40   H5    S    
C46   H26   S    
C4    C36   A    
C21   C26   A    
O11   C45   S    
C1    C33   S    
C39   C41   A    
C38   H7    S    
C44   H20   S    
C11   O11   S    
C11   C19   A    
C33   C39   A    
C34   C40   A    
C23   C29   S    
C35   C37   A    
C5    C6    A    
O2    Zn2   S    
C7    C9    A    
C16   N2    A    
C23   O7    A    
O8    Zn1   S    
C22   C25   A    
C19   C27   A    
C36   H10   S    
C24   O6    A    
C2    C34   S    
C40   C42   A    
C34   C38   A    
C21   C22   A    
C43   H19   S    
C1    O3    A    
C2    O4    A    
C44   H21   S    
C9    H1    S    
C10   H2    S    
O10   C44   S    
C43   H18   S    
C8    H12   S    
C24   O8    A    
O12   C46   S    
C13   H16   S    
C20   C28   A    
C33   C37   A    
C3    C9    A    
C31   C32   S    
O3    Zn2   S    
C3    C35   A    
C12   C20   A    
O4    Zn1   S    
C16   C18   A    
C12   C14   A    
C45   H24   S    
C46   H27   S    
C35   H9    S    
C7    H11   S    
C4    C10   A    
C28   O10   S    
C25   H3    S    
C27   O9    S    
C44   H22   S    
O1    Zn1   S    
C15   C17   A    
C14   H15   S    
C5    C41   A    
C3    C41   A    
C18   C22   A    
C15   N1    A    
C43   H17   S    
C1    O1    A    
C5    C8    A    
C6    C7    A    
C13   N1    A    
C25   C27   A    
C45   H25   S    
C14   N2    A    
C26   C28   A    
C12   O12   S    
O7    Zn2   S    
C15   H14   S    
C23   O5    A    
C36   C38   A    
C16   H13   S    
O9    C43   S    
C29   C31   T    
C30   C32   T    
C37   H8    S    
C11   C13   A    
O6    Zn2   S    
C4    C42   A    
N2    Zn1   S    
O5    Zn1   S    
C17   C19   A    
C18   C20   A    
C24   C30   S    
C26   H4    S    
N1    Zn2   S    
C8    C10   A    
C45   H23   S    
C6    C42   A    
C46   H28   S    
C2    O2    A    
C39   H6    S    
C17   C21   A    
