data_mof_unit_61854.cif
_audit_creation_date              2012-10-26T17:15:25-0400
_audit_creation_method            fapswitch 2.2
_symmetry_space_group_name_H-M    P1
_symmetry_Int_Tables_number       1
_space_group_crystal_system       triclinic
_cell_length_a                    21.949227
_cell_length_b                    21.966151
_cell_length_c                    22.32168
_cell_angle_alpha                 59.693439
_cell_angle_beta                  119.308081
_cell_angle_gamma                 90.816077
_cell_volume                      7705.07199114

loop_
_atom_site_label
_atom_site_type_symbol
_atom_type_description
_atom_site_fract_x
_atom_site_fract_y
_atom_site_fract_z
_atom_type_partial_charge
C1    C     C_R   0.615576 0.502249 0.495995 0.592034
C2    C     C_2   0.819868 0.509691 0.505871 -0.068208
C3    C     C_2   0.697502 0.567425 0.459078 0.245429
C4    C     C_R   0.419870 0.580409 0.339626 0.553671
C5    C     C_2   0.676717 0.505866 0.485644 0.331118
C6    C     C_3   0.742545 0.180579 0.028800 -0.193027
C7    C     C_3   0.678907 0.253621 0.973704 -0.157409
C8    C     C_1   0.624658 0.374514 0.750111 0.002682
C9    C     C_1   0.875945 0.124677 0.249972 0.023452
C10   C     C_3   0.770646 0.219655 0.971691 0.300168
C11   C     C_3   0.708028 0.291611 0.917248 -0.021017
C12   C     C_3   0.290784 0.709913 0.082466 0.005165
C13   C     C_3   0.819892 0.245621 0.025840 0.387937
C14   C     C_3   0.792099 0.207401 0.082930 0.027420
C15   C     C_3   0.757469 0.318688 0.971185 -0.106672
C16   C     C_R   0.384662 0.497313 0.504193 0.572879
C17   C     C_3   0.729437 0.279344 0.028312 0.248563
C18   C     C_1   0.662184 0.337031 0.825526 -0.006355
C19   C     C_1   0.838327 0.162011 0.174595 0.030362
C20   C     C_2   0.244487 0.507617 0.555661 0.257250
C21   C     C_2   0.181252 0.511674 0.494673 0.332219
C22   C     C_2   0.305078 0.521467 0.543220 0.364437
C23   C     C_3   0.179282 0.750725 0.973788 -0.130047
C24   C     C_2   0.324552 0.488339 0.515831 -0.064398
C25   C     C_R   0.001471 0.880302 0.504480 0.594311
C26   C     C_R   0.079848 0.919840 0.660362 0.529476
C27   C     C_R   0.000679 0.117325 0.499892 0.579820
C28   C     C_R   0.580029 0.419656 0.660323 0.539535
C29   C     C_R   0.920178 0.080103 0.339697 0.560264
C30   C     C_R   0.002566 0.617973 0.499212 0.585384
C31   C     C_R   0.882892 0.502792 0.500825 0.555190
C32   C     C_R   0.996918 0.382254 0.500468 0.555710
C33   C     C_R   0.117268 0.503142 0.499166 0.615866
C34   C     C_3   0.207463 0.791194 0.917466 0.067146
C35   C     C_2   0.061513 0.688835 0.556272 0.421813
C36   C     C_2   0.007077 0.686512 0.494006 0.367524
C37   C     C_2   0.063786 0.760150 0.546610 0.413523
C38   C     C_2   0.002613 0.809086 0.515130 0.367526
C39   C     C_2   0.952414 0.315638 0.434275 -0.124471
C40   C     C_3   0.273697 0.721932 0.971992 -0.128178
C41   C     C_2   0.987642 0.315365 0.503261 -0.100716
C42   C     C_2   0.945500 0.245691 0.439709 0.253561
C43   C     C_2   0.004302 0.183716 0.500256 0.278262
C44   C     C_3   0.319399 0.750184 0.026265 -0.100015
C45   C     C_3   0.224235 0.779205 0.028095 -0.099468
C46   C     C_1   0.374841 0.625870 0.249743 0.000630
C47   C     C_1   0.124083 0.874947 0.750203 -0.000855
C48   C     C_3   0.246193 0.680770 0.029668 -0.108815
C49   C     C_3   0.652325 0.373053 0.001217 -0.002377
C50   C     C_3   0.633534 0.401891 0.041311 -0.367127
C51   C     C_3   0.842343 0.121540 0.999245 0.009087
C52   C     C_3   0.869219 0.096599 0.961617 -0.347168
C53   C     C_3   0.316072 0.452575 0.698209 0.011846
C54   C     C_3   0.309994 0.430683 0.771029 -0.332457
C55   C     C_3   0.819249 0.299430 0.336970 -0.010934
C56   C     C_3   0.252218 0.818669 0.971323 0.302324
C57   C     C_3   0.753329 0.282364 0.286643 -0.348288
C58   C     C_3   0.108796 0.125438 0.633918 -0.020765
C59   C     C_3   0.171733 0.140975 0.689889 -0.360615
C60   C     C_3   0.297291 0.903669 0.997908 -0.007044
C61   C     C_3   0.296925 0.983974 0.957572 -0.367460
C62   C     C_3   0.770864 0.680235 0.376092 0.012468
C63   C     C_3   0.775622 0.731618 0.301789 -0.318827
C64   C     C_3   0.700300 0.642680 0.501346 -0.024237
C65   C     C_3   0.659441 0.714997 0.476880 -0.340587
C66   C     C_1   0.336953 0.663924 0.174266 -0.042293
C67   C     C_1   0.161551 0.837178 0.825659 -0.006878
C68   C     C_2   0.757395 0.567070 0.445775 0.267891
Cu1   Cu    Cu3+1 0.500050 0.438990 0.500010 1.013512
Cu2   Cu    Cu3+1 0.499950 0.561010 0.499990 1.027014
Cu3   Cu    Cu3+1 0.061010 0.999870 0.499990 1.058979
Cu4   Cu    Cu3+1 0.938990 0.999980 0.500010 1.005411
Cu5   Cu    Cu3+1 0.958560 0.541440 0.417120 1.025285
Cu6   Cu    Cu3+1 0.041440 0.458560 0.582880 1.006417
F1    F     F_    0.708824 0.445075 0.496870 -0.654026
F2    F     F_    0.892645 0.240200 0.053473 -0.612294
F3    F     F_    0.172022 0.531805 0.421421 -0.652251
F4    F     F_    0.341752 0.565821 0.562847 -0.597946
F5    F     F_    0.118062 0.626600 0.626821 -0.598250
F6    F     F_    0.958071 0.750727 0.418346 -0.637888
F7    F     F_    0.129689 0.773254 0.574745 -0.595148
F8    F     F_    0.940094 0.789630 0.500830 -0.634748
H1    H     H_    0.377108 0.749878 0.048507 0.112900
H2    H     H_    0.121537 0.751027 0.951245 0.127439
H3    H     H_    0.244291 0.622926 0.055069 0.135800
H4    H     H_    0.827725 0.468878 0.565580 0.103561
H5    H     H_    0.602673 0.363543 0.962125 0.128556
H6    H     H_    0.667203 0.416246 0.960697 0.135277
H7    H     H_    0.681779 0.412838 0.080093 0.161282
H8    H     H_    0.586978 0.454245 0.991946 0.111800
H9    H     H_    0.617613 0.360338 0.081588 0.156357
H10   H     H_    0.817011 0.080864 0.026067 0.123283
H11   H     H_    0.890778 0.121629 0.050126 0.187772
H12   H     H_    0.620433 0.258184 0.951297 0.118808
H13   H     H_    0.895534 0.135743 0.934922 0.180247
H14   H     H_    0.910062 0.040393 0.010806 0.110168
H15   H     H_    0.822339 0.094765 0.911342 0.167293
H16   H     H_    0.359337 0.480324 0.702676 0.196684
H17   H     H_    0.332643 0.400902 0.704368 0.089785
H18   H     H_    0.267530 0.402148 0.768895 0.165510
H19   H     H_    0.363575 0.392585 0.831117 0.082724
H20   H     H_    0.294570 0.480804 0.767637 0.208683
H21   H     H_    0.819424 0.354388 0.292560 0.138348
H22   H     H_    0.812833 0.301397 0.382572 0.141082
H23   H     H_    0.737197 0.123964 0.053186 0.117365
H24   H     H_    0.750717 0.228070 0.329060 0.168651
H25   H     H_    0.701970 0.326228 0.252861 0.097709
H26   H     H_    0.757916 0.280224 0.240283 0.193815
H27   H     H_    0.132271 0.075786 0.641204 0.164783
H28   H     H_    0.071140 0.113358 0.655636 0.111223
H29   H     H_    0.150187 0.189840 0.685010 0.156471
H30   H     H_    0.201061 0.092152 0.755934 0.112467
H31   H     H_    0.211054 0.152207 0.670851 0.172806
H32   H     H_    0.355001 0.867617 0.037442 0.132608
H33   H     H_    0.276562 0.892008 0.038037 0.132651
H34   H     H_    0.763163 0.375161 0.947296 0.124569
H35   H     H_    0.240095 0.021547 0.918251 0.158007
H36   H     H_    0.332322 0.993084 0.006808 0.104988
H37   H     H_    0.318277 0.997224 0.917832 0.157899
H38   H     H_    0.826391 0.658875 0.434331 0.131691
H39   H     H_    0.731106 0.713340 0.373938 0.165191
H40   H     H_    0.720632 0.756099 0.242514 0.147409
H41   H     H_    0.795305 0.777036 0.305997 0.164928
H42   H     H_    0.814567 0.700303 0.301434 0.190651
H43   H     H_    0.755404 0.645406 0.512931 0.110264
H44   H     H_    0.707661 0.596565 0.560510 0.139541
H45   H     H_    0.293031 0.698718 0.947976 0.132938
H46   H     H_    0.604635 0.713463 0.466372 0.168135
H47   H     H_    0.691222 0.723206 0.527675 0.110771
H48   H     H_    0.652187 0.762248 0.418616 0.158932
H49   H     H_    0.298227 0.448667 0.506832 0.096547
H50   H     H_    0.928084 0.367371 0.373102 0.137989
H51   H     H_    0.008537 0.264527 0.564218 0.130302
H52   H     H_    0.204568 0.802475 0.051836 0.113319
O1    O     O_R   0.589060 0.448490 0.499990 -0.461585
O2    O     O_R   0.034920 0.554020 0.569980 -0.478599
O3    O     O_R   0.875990 0.534990 0.430030 -0.471936
O4    O     O_R   0.588980 0.551530 0.499980 -0.517027
O5    O     O_R   0.945970 0.465000 0.570010 -0.526796
O6    O     O_R   0.965080 0.445980 0.430020 -0.510177
O7    O     O_R   0.035060 0.375990 0.570000 -0.518876
O8    O     O_R   0.054030 0.535000 0.429990 -0.466390
O9    O     O_R   0.124010 0.465010 0.569970 -0.502085
O10   O     O_R   0.439580 0.508940 0.379080 -0.504031
O11   O     O_R   0.439510 0.611990 0.379070 -0.502400
O12   O     O_R   0.948460 0.910940 0.500030 -0.477345
O13   O     O_R   0.411020 0.448470 0.500020 -0.527584
O14   O     O_R   0.410940 0.551510 0.500010 -0.427715
O15   O     O_R   0.560490 0.388010 0.620930 -0.503982
O16   O     O_R   0.560420 0.491060 0.620920 -0.509895
O17   O     O_R   0.051510 0.910850 0.500010 -0.473731
O18   O     O_3   0.711414 0.306639 0.064725 -0.545420
O19   O     O_3   0.790256 0.192729 0.935963 -0.529106
O20   O     O_3   0.247631 0.501403 0.622421 -0.521394
O21   O     O_3   0.883940 0.243811 0.378073 -0.563467
O22   O     O_3   0.072354 0.187800 0.549950 -0.587859
O23   O     O_R   0.111980 0.939430 0.620910 -0.502127
O24   O     O_3   0.252029 0.893119 0.934594 -0.557121
O25   O     O_3   0.746251 0.622551 0.370148 -0.522312
O26   O     O_3   0.659034 0.632883 0.436324 -0.562427
O27   O     O_R   0.008930 0.939520 0.620930 -0.518257
O28   O     O_R   0.051540 0.088910 0.499970 -0.504905
O29   O     O_R   0.948490 0.089000 0.499990 -0.506836
O30   O     O_R   0.991070 0.060330 0.379070 -0.495581
O31   O     O_R   0.888020 0.060420 0.379090 -0.500893
O32   O     O_R   0.964940 0.624010 0.430000 -0.501419

loop_
_geom_bond_atom_site_label_1
_geom_bond_atom_site_label_2
_ccdc_geom_bond_type
Cu6   O9    S    
C11   C18   S    
C34   C56   S    
C23   C45   S    
Cu3   O28   S    
C61   H37   S    
C58   H27   S    
Cu5   Cu6   S    
C49   H5    S    
C54   H19   S    
C60   H32   S    
C3    C68   S    
Cu2   O16   S    
C12   C48   S    
C44   H1    S    
C54   H18   S    
C41   H51   S    
C65   H48   S    
C39   C41   D    
C4    C46   S    
C53   C54   S    
C33   O9    A    
Cu1   O10   S    
C55   O21   S    
C45   H52   S    
C62   C63   S    
C20   O20   S    
C26   O23   A    
C16   O13   A    
C1    C5    S    
C35   C37   S    
C60   O24   S    
C46   C66   T    
C2    C68   D    
C27   O28   A    
C51   H10   S    
C21   C33   S    
C39   H50   S    
C55   H21   S    
C52   H15   S    
C52   H13   S    
C40   C48   S    
Cu4   O31   S    
C29   O31   A    
C49   C50   S    
C56   O24   S    
C27   O29   A    
C11   C15   S    
C9    C19   T    
Cu3   O17   S    
C35   C36   D    
C45   C56   S    
C7    C17   S    
Cu6   O2    S    
C59   H29   S    
C32   C41   S    
C52   H14   S    
C28   O16   A    
C31   O3    A    
C68   O25   S    
C25   O17   A    
C62   H38   S    
C9    C29   S    
C57   H24   S    
C28   O15   A    
Cu1   O1    S    
C13   C14   S    
C38   F8    S    
C29   O30   A    
C37   F7    S    
C10   O19   S    
C47   C67   T    
C50   H8    S    
C63   H42   S    
C39   C42   S    
Cu5   O8    S    
Cu3   O23   S    
Cu3   O30   S    
C61   H35   S    
C51   C52   S    
C65   H46   S    
Cu4   O29   S    
C48   H3    S    
C22   F4    S    
C36   F6    S    
C12   C45   S    
C23   H2    S    
C58   C59   S    
C40   H45   S    
C12   C66   S    
C55   H22   S    
C53   H17   S    
C60   C61   S    
C5    F1    S    
C7    C11   S    
C6    C10   S    
C37   C38   D    
C25   C38   S    
C6    C14   S    
C44   C56   S    
C50   H7    S    
C63   H41   S    
C13   F2    S    
C59   H31   S    
C23   C34   S    
C64   O26   S    
C59   H30   S    
Cu2   O11   S    
C30   O32   A    
C32   O7    A    
C25   O12   A    
C58   O22   S    
C26   C47   S    
C51   H11   S    
C57   H25   S    
Cu6   O7    S    
C20   C22   S    
Cu2   O4    S    
C64   H44   S    
C55   C57   S    
C3    O26   S    
Cu1   O13   S    
C34   C40   S    
C17   O18   S    
Cu2   O14   S    
C42   C43   D    
C31   O5    A    
C43   O22   S    
C62   O25   S    
C63   H40   S    
C15   C17   S    
C7    H12   S    
C51   O19   S    
C23   C48   S    
C49   O18   S    
C61   H36   S    
C58   H28   S    
C14   C19   S    
C54   H20   S    
Cu5   O32   S    
C3    C5    D    
C10   C13   S    
C34   C67   S    
C4    O10   A    
C65   H47   S    
C32   O6    A    
C6    C7    S    
Cu5   O6    S    
C53   H16   S    
C49   H6    S    
Cu6   O5    S    
C26   O27   A    
C30   O2    A    
C30   C36   S    
C16   O14   A    
Cu1   O15   S    
C64   C65   S    
C13   C15   S    
C42   O21   S    
Cu3   Cu4   S    
C12   C44   S    
C33   O8    A    
C24   H49   S    
Cu5   O3    S    
Cu4   O12   S    
C4    O11   A    
C35   F5    S    
C6    H23   S    
C2    H4    S    
Cu4   O27   S    
C22   C24   D    
Cu1   Cu2   S    
C8    C18   T    
C10   C11   S    
C27   C43   S    
C50   H9    S    
C40   C44   S    
C57   H26   S    
C20   C21   D    
C8    C28   S    
C16   C24   S    
C64   H43   S    
C21   F3    S    
C15   H34   S    
C2    C31   S    
C60   H33   S    
C1    O1    A    
C53   O20   S    
C62   H39   S    
C1    O4    A    
C14   C17   S    
