data_mof_unit_38774.cif
_audit_creation_date              2013-03-05T16:35:29-0500
_audit_creation_method            fapswitch 2.2
_symmetry_space_group_name_H-M    P1
_symmetry_Int_Tables_number       1
_space_group_crystal_system       triclinic
_cell_length_a                    10.740987
_cell_length_b                    15.025845
_cell_length_c                    14.204522
_cell_angle_alpha                 89.769871
_cell_angle_beta                  88.885757
_cell_angle_gamma                 90.346943
_cell_volume                      2292.00687047

loop_
_atom_site_label
_atom_site_type_symbol
_atom_site_description
_atom_site_fract_x
_atom_site_fract_y
_atom_site_fract_z
_atom_type_partial_charge
O1    O     O_R   0.500010 0.369070 0.579480 -0.663268
O2    O     O_R   0.499990 0.630930 0.420520 -0.635271
O3    O     O_R   0.500010 0.369060 0.420520 -0.523571
O4    O     O_R   0.499990 0.630940 0.579480 -0.538064
C1    C     C_R   0.504294 0.328258 0.499796 0.959632
C2    C     C_R   0.487901 0.671798 0.500128 1.000676
O5    O     O_R   0.316760 0.500010 0.579480 -0.560044
O6    O     O_R   0.683240 0.499990 0.420520 -0.582671
O7    O     O_R   0.316760 0.500000 0.420520 -0.631873
O8    O     O_R   0.683240 0.500000 0.579480 -0.609430
C3    C     C_R   0.260348 0.503905 0.501067 0.931427
C4    C     C_R   0.739803 0.496655 0.499479 0.990501
Zn1   Zn    Zn3+2 0.500000 0.500010 0.606140 1.064211
Zn2   Zn    Zn3+2 0.500000 0.499990 0.393860 1.058873
H1    H     H_    0.216330 0.861573 0.263939 0.233186
H2    H     H_    0.678705 0.250901 0.823779 0.178959
C5    C     C_R   0.123447 0.808487 0.386896 -0.143519
C6    C     C_R   0.770965 0.247079 0.688050 -0.173782
H3    H     H_    0.092395 0.873377 0.409040 0.222289
H4    H     H_    0.745687 0.178027 0.677657 0.192488
C7    C     C_R   0.090394 0.732108 0.439291 0.328626
C8    C     C_R   0.842958 0.293686 0.619675 0.320625
C9    C     C_R   0.124239 0.646995 0.403864 -0.011289
C10   C     C_R   0.869597 0.385382 0.635296 0.016713
C11   C     C_R   0.194235 0.642196 0.319378 -0.093277
C12   C     C_R   0.836933 0.423428 0.722536 -0.033360
H5    H     H_    0.215890 0.579147 0.288101 0.206847
H6    H     H_    0.864296 0.491093 0.738038 0.212610
C13   C     C_R   0.230856 0.719124 0.270863 -0.112375
C14   C     C_R   0.768465 0.375306 0.789909 -0.130594
H7    H     H_    0.283983 0.714143 0.205565 0.202960
H8    H     H_    0.742161 0.406103 0.856059 0.154766
C15   C     C_R   0.193510 0.802045 0.303780 -0.084222
C16   C     C_R   0.733142 0.287891 0.771813 -0.136559
C17   C     C_R   0.935963 0.556478 0.438211 0.315296
C18   C     C_R   0.064127 0.449761 0.568000 0.331867
C19   C     C_R   0.872569 0.496713 0.499047 -0.187463
C20   C     C_R   0.127916 0.506465 0.504184 -0.184606
C21   C     C_R   0.935780 0.443620 0.564933 -0.074353
C22   C     C_R   0.064537 0.564794 0.444101 -0.045892
C23   C     C_R   0.380148 0.102459 0.542025 0.454767
C24   C     C_R   0.482501 0.904474 0.407827 0.435411
C25   C     C_R   0.401990 0.192989 0.549446 -0.278138
C26   C     C_R   0.492707 0.812708 0.413767 -0.269463
H9    H     H_    0.336618 0.233803 0.588480 0.239912
H10   H     H_    0.518465 0.776421 0.350651 0.235759
C27   C     C_R   0.499883 0.233039 0.499256 -0.244382
C28   C     C_R   0.467314 0.767456 0.498761 -0.259940
C29   C     C_R   0.583716 0.182015 0.445141 0.422131
C30   C     C_R   0.424499 0.815723 0.578299 0.423714
C31   C     C_R   0.575687 0.090259 0.452906 -0.167904
C32   C     C_R   0.439475 0.907281 0.576733 -0.148731
H11   H     H_    0.648067 0.050049 0.421303 0.231966
H12   H     H_    0.423316 0.943906 0.641123 0.218742
C33   C     C_R   0.470899 0.049679 0.495326 -0.044418
C34   C     C_R   0.462830 0.952701 0.492086 -0.031571
C35   C     C_R   0.397272 0.463338 0.106718 0.163889
C36   C     C_R   0.545067 0.574982 0.894230 0.149375
C37   C     C_R   0.404242 0.458794 0.206192 0.282171
C38   C     C_R   0.551777 0.570671 0.794551 0.321769
N1    N     N_R   0.500000 0.499980 0.252470 -0.181525
N2    N     N_R   0.500000 0.500020 0.747530 -0.163183
C39   C     C_R   0.596911 0.536321 0.202514 -0.009017
C40   C     C_R   0.454128 0.428803 0.796680 -0.001818
H13   H     H_    0.674052 0.565346 0.239418 0.222213
H14   H     H_    0.418059 0.372018 0.759174 0.190877
C41   C     C_R   0.599867 0.533802 0.103715 -0.208830
C42   C     C_R   0.457156 0.426755 0.895438 -0.230501
H15   H     H_    0.682294 0.558407 0.067015 0.216415
H16   H     H_    0.426844 0.366649 0.931410 0.210343
C43   C     C_R   0.497775 0.500183 0.053458 0.005001
C44   C     C_R   0.498875 0.501200 0.946599 0.004258
N3    N     N_R   0.287521 0.431720 0.061076 0.224919
O9    O     O_R   0.225784 0.484569 0.006475 -0.303458
O10   O     O_R   0.250055 0.349811 0.072618 -0.277806
N4    N     N_R   0.583866 0.654614 0.941129 0.233318
O11   O     O_R   0.506572 0.696325 0.996858 -0.291170
O12   O     O_R   0.697221 0.684479 0.930125 -0.281065
N5    N     N_R   0.314471 0.405892 0.257698 0.243416
O13   O     O_R   0.346126 0.326856 0.285562 -0.270489
O14   O     O_R   0.196460 0.423738 0.252136 -0.327461
N6    N     N_R   0.618332 0.638970 0.743376 0.250872
O15   O     O_R   0.725633 0.620860 0.704703 -0.341334
O16   O     O_R   0.590385 0.722043 0.756168 -0.257171
N7    N     N_R   0.016441 0.741715 0.524444 0.245071
O17   O     O_R   0.023778 0.684117 0.592734 -0.322868
O18   O     O_R   0.947067 0.811582 0.536795 -0.304414
N8    N     N_R   0.892194 0.245518 0.539455 0.258351
O19   O     O_R   0.968867 0.282607 0.478876 -0.264182
O20   O     O_R   0.869154 0.160785 0.531073 -0.323054
N9    N     N_R   0.869419 0.614896 0.376445 0.195979
O21   O     O_R   0.788095 0.670479 0.410790 -0.361017
O22   O     O_R   0.901658 0.620561 0.287836 -0.355852
N10   N     N_R   0.128761 0.401568 0.639415 0.201526
O23   O     O_R   0.140106 0.315785 0.633180 -0.342876
O24   O     O_R   0.152180 0.440372 0.718909 -0.344118
S1    S     S_3+6 0.234636 0.062388 0.586035 0.100157
O25   O     O_2   0.244346 0.042189 0.689329 -0.241005
O26   O     O_2   0.137721 0.132801 0.573140 -0.168432
O27   O     O_3   0.189963 0.970642 0.528770 -0.549667
H17   H     H_    0.104835 0.957989 0.553539 0.425060
S2    S     S_3+6 0.492367 0.953984 0.293953 0.061536
O28   O     O_2   0.625983 0.976095 0.270099 -0.232717
O29   O     O_2   0.445861 0.889811 0.221597 -0.271460
O30   O     O_3   0.406258 0.047074 0.290539 -0.499123
H18   H     H_    0.434660 0.078785 0.232672 0.424004
S3    S     S_3+6 0.686887 0.228139 0.358513 0.113091
O31   O     O_2   0.742483 0.314140 0.391468 -0.319206
O32   O     O_2   0.789492 0.163932 0.334784 -0.168240
O33   O     O_3   0.605067 0.247842 0.260971 -0.491495
H19   H     H_    0.660139 0.285653 0.220612 0.385555
S4    S     S_3+6 0.322821 0.774148 0.669138 0.105080
O34   O     O_2   0.373125 0.798682 0.763542 -0.191807
O35   O     O_2   0.200225 0.820415 0.659331 -0.201210
O36   O     O_3   0.295819 0.664132 0.665512 -0.535318
H20   H     H_    0.243498 0.650914 0.722100 0.413715

loop_
_geom_bond_atom_site_label_1
_geom_bond_atom_site_label_2
_geom_bond_distance
_ccdc_geom_bond_type
C20   C22   1.408468 A    
C33   C34   1.460182 S    
C39   H13   1.079754 S    
S3    O32   1.503335 D    
N3    O9    1.301247 A    
S4    O35   1.501369 D    
S1    O25   1.502841 D    
C36   N4    1.435397 S    
C29   S3    1.775757 S    
N7    O17   1.301251 A    
O5    C3    1.279567 A    
C1    C27   1.431310 S    
C2    C28   1.455692 S    
O1    C1    1.289652 A    
C40   C42   1.404045 A    
C8    C10   1.424652 A    
C17   C19   1.407235 A    
C10   C12   1.405963 A    
C35   C37   1.417817 A    
C36   C38   1.418094 A    
C9    C22   1.494639 S    
C13   C15   1.391190 A    
O4    Zn1   2.001957 S    
C10   C21   1.492598 S    
S2    O30   1.682606 S    
C38   N2    1.376712 A    
C35   N3    1.435647 S    
C4    C19   1.425930 S    
N1    C39   1.358863 A    
O33   H19   0.990681 S    
C23   C33   1.416887 A    
N2    C40   1.359975 A    
C24   C34   1.414640 A    
C38   N6    1.434412 S    
Zn1   N2    2.008378 S    
C32   H12   1.080991 S    
C29   C31   1.384699 A    
C30   C32   1.384183 A    
S3    O31   1.500656 D    
C8    N8    1.445601 S    
C41   C43   1.412066 A    
C42   C44   1.411839 A    
H2    C16   1.082444 S    
C28   C30   1.415748 A    
C23   C25   1.383762 A    
O2    C2    1.293631 A    
C24   C26   1.386245 A    
C24   S2    1.778697 S    
S4    O34   1.501918 D    
S1    O26   1.501914 D    
C26   H10   1.083379 S    
C7    N7    1.442306 S    
C6    C16   1.395283 A    
C11   C13   1.394023 A    
C39   C41   1.403798 A    
C37   N1    1.376530 A    
C14   C16   1.391305 A    
N7    O18   1.301523 A    
N4    O11   1.301320 A    
C27   C29   1.405571 A    
C37   N5    1.433686 S    
N9    O21   1.301568 A    
N5    O14   1.301032 A    
C31   C33   1.401449 A    
Zn2   N1    2.008378 S    
C5    C7    1.405349 A    
C41   H15   1.081123 S    
C40   H14   1.081481 S    
C3    C20   1.423032 S    
S2    O29   1.502585 D    
O7    Zn2   1.997036 S    
C18   N10   1.436302 S    
N9    O22   1.301222 A    
O7    C3    1.285940 A    
O6    C4    1.286843 A    
C30   S4    1.782801 S    
N10   O23   1.298659 A    
C5    C15   1.391682 A    
C35   C43   1.414852 A    
N10   O24   1.301093 A    
C25   H9    1.081366 S    
O3    Zn2   2.001957 S    
O8    C4    1.279437 A    
O4    C2    1.290480 A    
N8    O20   1.301910 A    
C12   C14   1.392904 A    
N6    O16   1.298258 A    
C7    C9    1.422894 A    
S3    O33   1.681343 S    
C23   S1    1.773048 S    
O1    Zn1   2.005091 S    
N3    O10   1.301305 A    
S1    O27   1.675865 S    
O6    Zn2   2.011497 S    
C6    C8    1.410839 A    
C18   C21   1.382634 A    
N4    O12   1.301392 A    
O3    C1    1.281732 A    
O8    Zn1   1.997034 S    
C11   H5    1.072847 S    
O30   H18   0.990489 S    
C12   H6    1.081324 S    
C18   C20   1.407000 A    
C17   C22   1.390073 A    
C43   C44   1.517712 S    
C19   C21   1.413701 A    
C14   H8    1.082414 S    
C36   C44   1.414544 A    
O36   H20   0.990547 S    
O27   H17   0.990371 S    
C5    H3    1.078513 S    
C6    H4    1.082326 S    
C9    C11   1.406018 A    
S2    O28   1.503097 D    
O2    Zn2   2.005091 S    
N5    O13   1.299604 A    
C32   C34   1.397859 A    
O5    Zn1   2.011499 S    
N8    O19   1.300870 A    
C13   H7    1.082601 S    
N6    O15   1.297879 A    
C42   H16   1.081207 S    
C31   H11   1.079477 S    
C25   C27   1.391302 A    
H1    C15   1.080880 S    
S4    O36   1.677760 S    
C26   C28   1.404495 A    
C17   N9    1.441143 S    
