data_mof_unit_67427.cif
_audit_creation_date              2013-03-05T15:40:04-0500
_audit_creation_method            fapswitch 2.2
_symmetry_space_group_name_H-M    P1
_symmetry_Int_Tables_number       1
_space_group_crystal_system       triclinic
_cell_length_a                    7.516535
_cell_length_b                    9.001808
_cell_length_c                    11.388515
_cell_angle_alpha                 88.135518
_cell_angle_beta                  77.594381
_cell_angle_gamma                 104.184434
_cell_volume                      726.679326589

loop_
_atom_site_label
_atom_site_type_symbol
_atom_site_description
_atom_site_fract_x
_atom_site_fract_y
_atom_site_fract_z
_atom_type_partial_charge
O1    O     O_R   0.622710 0.286400 0.490790 -0.568256
O2    O     O_R   0.377290 0.713600 0.509210 -0.524663
O3    O     O_R   0.303660 0.256330 0.514730 -0.637270
O4    O     O_R   0.696340 0.743670 0.485270 -0.560089
C1    C     C_R   0.449673 0.198787 0.511523 0.695287
C2    C     C_R   0.547664 0.799522 0.497644 0.768783
O5    O     O_R   0.600900 0.509520 0.671740 -0.558856
O6    O     O_R   0.399100 0.490480 0.328260 -0.640418
O7    O     O_R   0.281840 0.479450 0.695690 -0.561624
O8    O     O_R   0.718160 0.520550 0.304310 -0.608132
C3    C     C_R   0.433469 0.490043 0.738942 0.755997
C4    C     C_R   0.567759 0.513915 0.261765 0.769836
Cu1   Cu    Cu3+1 0.688910 0.517800 0.485820 1.026615
Cu2   Cu    Cu3+1 0.311090 0.482200 0.514180 1.006362
C5    C     C_2   0.415206 0.443293 0.865534 0.266902
C6    C     C_2   0.589319 0.566657 0.137318 0.230440
C7    C     C_2   0.533368 0.520287 0.932131 0.264202
C8    C     C_2   0.484168 0.484578 0.066659 0.242829
C9    C     C_2   0.421259 0.027476 0.530529 0.140246
C10   C     C_2   0.572094 0.967174 0.493846 0.148618
N1    N     N_2   0.027170 0.455360 0.535550 0.099485
N2    N     N_2   0.972830 0.544640 0.464450 0.117940
O9    O     O_3   0.320702 0.372068 0.120366 -0.584816
C11   C     C_3   0.165630 0.439959 0.142048 0.157903
H1    H     H_    0.202875 0.561312 0.102708 0.077694
H2    H     H_    0.112740 0.438690 0.240437 0.162438
C12   C     C_3   0.001182 0.351305 0.092307 -0.772846
H3    H     H_    0.024578 0.390654 0.996735 0.254719
H4    H     H_    0.984833 0.225902 0.096850 0.260245
H5    H     H_    0.867625 0.373938 0.140693 0.177282
O10   O     O_3   0.694735 0.636482 0.876772 -0.607547
C13   C     C_3   0.861323 0.595828 0.892155 0.176068
H6    H     H_    0.918309 0.542732 0.814049 0.225380
H7    H     H_    0.833507 0.511483 0.969688 0.102633
C14   C     C_3   0.023259 0.732590 0.904691 -0.773094
H8    H     H_    0.125485 0.770864 0.816706 0.245327
H9    H     H_    0.974134 0.832268 0.939884 0.280566
H10   H     H_    0.102979 0.696848 0.966823 0.191057
O11   O     O_3   0.710716 0.710035 0.098266 -0.575508
C15   C     C_3   0.606800 0.821695 0.107576 -0.339162
H11   H     H_    0.546370 0.833053 0.203491 0.109186
H12   H     H_    0.494111 0.796191 0.056195 0.165454
H13   H     H_    0.704089 0.934599 0.068728 0.184971
O12   O     O_3   0.282370 0.307045 0.912029 -0.585937
C16   C     C_3   0.356133 0.180579 0.881360 -0.324071
H14   H     H_    0.471821 0.177753 0.926837 0.176204
H15   H     H_    0.400928 0.179075 0.782148 0.131127
H16   H     H_    0.242941 0.073853 0.914911 0.188088
O13   O     O_3   0.250409 0.923752 0.591889 -0.574568
C17   C     C_3   0.098081 0.989610 0.624130 0.042134
H17   H     H_    0.071482 0.036623 0.542156 0.213767
H18   H     H_    0.127905 0.076674 0.688890 0.151442
C18   C     C_3   0.914719 0.872069 0.680535 -0.616852
H19   H     H_    0.876195 0.885414 0.777360 0.223828
H20   H     H_    0.797279 0.896508 0.646260 0.214545
H21   H     H_    0.923173 0.753347 0.663889 0.329880
O14   O     O_3   0.754610 0.059469 0.466994 -0.620505
C19   C     C_3   0.826484 0.083643 0.341244 0.036859
H22   H     H_    0.786581 0.183569 0.305486 0.177620
H23   H     H_    0.773241 0.984032 0.292107 0.117407
C20   C     C_3   0.040080 0.118242 0.317240 -0.748037
H24   H     H_    0.081676 0.025722 0.359980 0.245600
H25   H     H_    0.104759 0.122067 0.220417 0.245374
H26   H     H_    0.097781 0.226556 0.354970 0.266973
O15   O     O_3   0.915277 0.426831 0.646977 -0.480764
C21   C     C_3   0.852090 0.266809 0.676111 0.224214
H27   H     H_    0.928425 0.202494 0.612593 0.161047
H28   H     H_    0.702157 0.228570 0.674068 0.158059
C22   C     C_3   0.863997 0.225179 0.804119 -0.980182
H29   H     H_    0.785652 0.288004 0.868963 0.225745
H30   H     H_    0.798012 0.101260 0.830202 0.212470
H31   H     H_    0.012401 0.252418 0.811031 0.306422
O16   O     O_3   0.063019 0.694815 0.457563 -0.419581
C23   C     C_3   0.165149 0.745450 0.337200 0.155938
H32   H     H_    0.248854 0.668615 0.298808 0.124131
H33   H     H_    0.268691 0.855813 0.340370 0.122824
C24   C     C_3   0.047464 0.774409 0.249447 -0.846888
H34   H     H_    0.131878 0.869143 0.179890 0.192211
H35   H     H_    0.006796 0.673979 0.200065 0.254735
H36   H     H_    0.918457 0.802547 0.296271 0.306558

loop_
_geom_bond_atom_site_label_1
_geom_bond_atom_site_label_2
_geom_bond_distance
_ccdc_geom_bond_type
C21   H28   1.100354 S    
C12   H4    1.103442 S    
O16   C23   1.418361 S    
C9    C10   1.366549 D    
C11   C12   1.527254 S    
C24   H34   1.110050 S    
O5    C3    1.292126 A    
C23   H33   1.108817 S    
O1    C1    1.312487 A    
Cu2   N1    2.047507 S    
C14   H9    1.106476 S    
C11   H2    1.104196 S    
C5    O12   1.382743 S    
C16   H16   1.108469 S    
C21   C22   1.520074 S    
C19   H23   1.109207 S    
C20   H25   1.101101 S    
C16   H15   1.109031 S    
O4    Cu1   2.020046 S    
C22   H30   1.105694 S    
C3    C5    1.456574 S    
C15   H13   1.109478 S    
C4    C6    1.442268 S    
C23   C24   1.524830 S    
C17   H18   1.109492 S    
O9    C11   1.424214 S    
C20   H24   1.093135 S    
C18   H21   1.106076 S    
C19   C20   1.519931 S    
C15   H12   1.113098 S    
C21   H27   1.095166 S    
Cu1   Cu2   2.724917 S    
C12   H5    1.105805 S    
O2    C2    1.300397 A    
C17   H17   1.089305 S    
C18   H20   1.103469 S    
C17   C18   1.514074 S    
C23   H32   1.086356 S    
C8    O9    1.391570 S    
C13   C14   1.539244 S    
C14   H10   1.106844 S    
C11   H1    1.112123 S    
O4    C2    1.316746 A    
O11   C15   1.409876 S    
C19   H22   1.107153 S    
C16   H14   1.108387 S    
C14   H8    1.109119 S    
C13   H7    1.095045 S    
C20   H26   1.106108 S    
O7    Cu2   2.029952 S    
C9    O13   1.411954 S    
O10   C13   1.430796 S    
O6    C4    1.292737 A    
C7    C8    1.501204 S    
C24   H35   1.094779 S    
O7    C3    1.319740 A    
O3    Cu2   2.020047 S    
O8    C4    1.311672 A    
C15   H11   1.107616 S    
O15   C21   1.405905 S    
C7    O10   1.403379 S    
O1    Cu1   2.015445 S    
C22   H31   1.102530 S    
O12   C16   1.406212 S    
C24   H36   1.093524 S    
C5    C7    1.366152 D    
O6    Cu2   2.071255 S    
N1    O15   1.340904 S    
O3    C1    1.317880 A    
O8    Cu1   2.029952 S    
C18   H19   1.096671 S    
C1    C9    1.505847 S    
C2    C10   1.472992 S    
C13   H6    1.080482 S    
O14   C19   1.407070 S    
Cu1   N2    2.047507 S    
C22   H29   1.102500 S    
O2    Cu2   2.015445 S    
C6    O11   1.381063 S    
O5    Cu1   2.071256 S    
C6    C8    1.357902 D    
O13   C17   1.401232 S    
C12   H3    1.096901 S    
N2    O16   1.346974 S    
C10   O14   1.382198 S    
N1    N2    1.314922 D    
