data_mof_unit_45664.cif
_audit_creation_date              2012-12-11T14:06:53-0500
_audit_creation_method            fapswitch 2.2
_symmetry_space_group_name_H-M    P1
_symmetry_Int_Tables_number       1
_space_group_crystal_system       triclinic
_cell_length_a                    6.925188
_cell_length_b                    17.33382
_cell_length_c                    24.107656
_cell_angle_alpha                 104.516537
_cell_angle_beta                  90.441305
_cell_angle_gamma                 90.059471
_cell_volume                      2801.39962666

loop_
_atom_site_label
_atom_site_type_symbol
_atom_type_description
_atom_site_fract_x
_atom_site_fract_y
_atom_site_fract_z
_atom_type_partial_charge
O1    O     O_R   0.494290 0.391990 0.999150 -0.515686
O2    O     O_R   0.827170 0.534410 0.082350 -0.530671
O3    O     O_R   0.994360 0.608010 0.000850 -0.540727
C1    C     C_R   0.658672 0.548175 0.106255 0.791540
O4    O     O_R   0.824210 0.388010 0.004470 -0.542180
O5    O     O_R   0.991370 0.460560 0.922410 -0.548808
C2    C     C_R   0.653592 0.355382 0.002674 0.835765
O6    O     O_R   0.497270 0.539440 0.077590 -0.541608
O7    O     O_3   0.659770 0.523970 0.973170 -0.376837
V1    V     V_3+5 0.935840 0.495550 0.004980 1.532997
O8    O     O_R   0.320910 0.465590 0.917650 -0.536805
C3    C     C_R   0.151817 0.447729 0.894200 0.732618
O9    O     O_R   0.323870 0.611990 0.995530 -0.524678
C4    C     C_R   0.154057 0.645492 0.999824 0.754527
V2    V     V_3+5 0.435470 0.504450 0.995020 1.559139
O10   O     O_3   0.161670 0.476030 0.026830 -0.358946
C5    C     C_2   0.137905 0.730307 0.998692 -0.391947
H1    H     H_    0.263924 0.756882 0.984262 0.196593
C6    C     C_2   0.972277 0.773661 0.010893 -0.285123
C7    C     C_R   0.058511 0.243384 0.627281 0.603423
N1    N     N_R   0.083958 0.323877 0.649071 -0.557631
C8    C     C_R   0.089581 0.374228 0.613367 0.574970
C9    C     C_R   0.070265 0.344115 0.553562 -0.025161
C10   C     C_R   0.045715 0.261389 0.530525 -0.010374
C11   C     C_R   0.039442 0.210714 0.567658 -0.052139
C12   C     C_R   0.075758 0.394804 0.516416 -0.152126
C13   C     C_R   0.058928 0.363957 0.457319 -0.134685
C14   C     C_R   0.036765 0.281566 0.433751 -0.022969
C15   C     C_R   0.028501 0.229561 0.470376 -0.016797
C16   C     C_R   0.004469 0.146312 0.447003 -0.100256
C17   C     C_R   0.986994 0.095964 0.485625 -0.036129
C18   C     C_R   0.010104 0.128853 0.544848 -0.159241
C19   C     C_R   0.022953 0.250108 0.374209 0.583790
N2    N     N_R   0.008454 0.169669 0.351642 -0.567171
C20   C     C_R   0.005592 0.117711 0.386160 0.590558
O11   O     O_2   0.049716 0.195022 0.663200 -0.502654
O12   O     O_2   0.115873 0.453123 0.635522 -0.516112
H2    H     H_    0.064737 0.405019 0.430097 0.181500
O13   O     O_2   0.025245 0.299574 0.338992 -0.503131
O14   O     O_2   0.012272 0.039032 0.361256 -0.474179
H3    H     H_    0.998357 0.090182 0.573725 0.201196
C21   C     C_R   0.821148 0.112584 0.263284 -0.068951
H4    H     H_    0.691911 0.114928 0.288652 0.121260
C22   C     C_R   0.809878 0.083773 0.203607 -0.183501
H5    H     H_    0.671014 0.064193 0.184147 0.132476
C23   C     C_R   0.975945 0.080174 0.169637 -0.058882
C24   C     C_R   0.153354 0.106266 0.197063 -0.177754
C25   C     C_R   0.163947 0.135561 0.256711 -0.075886
H6    H     H_    0.301426 0.155623 0.276958 0.117124
C26   C     C_R   0.997976 0.138933 0.290187 0.380975
C27   C     C_R   0.965470 0.407115 0.741268 -0.035145
H7    H     H_    0.842036 0.424198 0.719245 0.140261
C28   C     C_R   0.982905 0.436054 0.800705 -0.187919
H8    H     H_    0.873007 0.476098 0.823188 0.143260
C29   C     C_R   0.139815 0.414159 0.830945 -0.134065
C30   C     C_R   0.280465 0.360898 0.799805 -0.056883
C31   C     C_R   0.262704 0.333837 0.739808 -0.128062
H9    H     H_    0.368686 0.293162 0.715753 0.165475
C32   C     C_R   0.105042 0.355813 0.710337 0.338946
C33   C     C_R   0.468318 0.880288 0.612618 0.598302
N3    N     N_R   0.498775 0.830811 0.648204 -0.564030
C34   C     C_R   0.541695 0.751865 0.626249 0.577200
C35   C     C_R   0.556586 0.720102 0.566609 -0.024501
C36   C     C_R   0.527582 0.770391 0.529498 -0.015508
C37   C     C_R   0.482250 0.850987 0.552598 -0.054107
C38   C     C_R   0.599183 0.639322 0.543342 -0.136840
C39   C     C_R   0.613995 0.608958 0.484195 -0.149859
C40   C     C_R   0.588566 0.658741 0.446764 -0.019737
C41   C     C_R   0.544521 0.739931 0.469327 -0.025610
C42   C     C_R   0.517068 0.790302 0.431927 -0.107882
C43   C     C_R   0.455881 0.870391 0.455586 -0.039810
C44   C     C_R   0.446953 0.900057 0.515405 -0.155358
C45   C     C_R   0.604851 0.628766 0.387140 0.583329
N4    N     N_R   0.593142 0.678810 0.351244 -0.557391
C46   C     C_R   0.557931 0.758742 0.372823 0.621991
O15   O     O_2   0.426130 0.957729 0.635170 -0.503630
O16   O     O_2   0.568838 0.704026 0.661974 -0.512466
H10   H     H_    0.621311 0.599189 0.570754 0.178776
H11   H     H_    0.647403 0.546350 0.467952 0.171611
O17   O     O_2   0.631416 0.549902 0.365292 -0.512141
O18   O     O_2   0.571782 0.807813 0.337616 -0.479037
C47   C     C_R   0.471756 0.659306 0.251756 -0.039918
H12   H     H_    0.345014 0.694048 0.267848 0.152958
C48   C     C_R   0.489068 0.626884 0.192823 -0.155719
C49   C     C_R   0.647973 0.579014 0.169910 -0.122673
C50   C     C_R   0.791852 0.563974 0.208449 -0.084195
C51   C     C_R   0.776395 0.600346 0.267545 -0.113745
H13   H     H_    0.886909 0.590040 0.296911 0.170004
C52   C     C_R   0.615244 0.646814 0.289846 0.331719
C53   C     C_R   0.309637 0.885226 0.736084 -0.075645
C54   C     C_R   0.298885 0.913843 0.795816 -0.189843
H14   H     H_    0.159350 0.930795 0.814952 0.130778
C55   C     C_R   0.466427 0.920359 0.830266 -0.058150
C56   C     C_R   0.644661 0.897610 0.803258 -0.187959
H15   H     H_    0.776746 0.901622 0.828165 0.129299
C57   C     C_R   0.654858 0.868707 0.743678 -0.082171
H16   H     H_    0.793274 0.851250 0.723916 0.118766
C58   C     C_R   0.487634 0.862168 0.709611 0.376106
C59   C     C_2   0.637149 0.269319 0.000108 -0.367224
H17   H     H_    0.760358 0.232645 0.982866 0.168371
C60   C     C_2   0.471899 0.233853 0.012113 -0.193289
O19   O     O_R   0.618210 0.960470 0.922400 -0.541434
O20   O     O_R   0.291310 0.111960 0.995450 -0.520550
O21   O     O_R   0.124210 0.039530 0.077580 -0.541816
C61   C     C_R   0.460662 0.145834 0.001270 0.722074
O22   O     O_R   0.288310 0.965490 0.917650 -0.544710
O23   O     O_R   0.121180 0.892010 0.999220 -0.538759
C62   C     C_R   0.456703 0.950240 0.893849 0.709926
O24   O     O_R   0.621230 0.107990 0.000760 -0.539567
O25   O     O_3   0.455770 0.976060 0.026840 -0.370504
V3    V     V_3+5 0.179680 0.004440 0.995020 1.472016
O26   O     O_R   0.791670 0.888040 0.004570 -0.530621
C63   C     C_R   0.961153 0.855608 0.003222 0.729851
O27   O     O_R   0.794680 0.034510 0.082370 -0.546723
C64   C     C_R   0.964217 0.049959 0.106118 0.710557
V4    V     V_3+5 0.680070 0.995560 0.005010 1.467502
O28   O     O_3   0.953840 0.023940 0.973160 -0.366494
C65   C     C_2   0.440525 0.327856 0.827975 0.758490
O29   O     O_2   0.415034 0.311167 0.873734 -0.566128
O30   O     O_R   0.618756 0.312194 0.800621 -0.661291
H18   H     H_    0.716236 0.289307 0.823705 0.302969
C66   C     C_2   0.381521 0.923406 0.420521 0.939187
O31   O     O_2   0.278851 0.896543 0.378612 -0.505203
O32   O     O_R   0.417047 0.005406 0.438074 -0.651574
H19   H     H_    0.361891 0.035350 0.410523 0.309739
H20   H     H_    0.403600 0.961351 0.532962 0.204810
C67   C     C_2   0.800363 0.744297 0.036454 0.848071
O33   O     O_2   0.643189 0.741734 0.012828 -0.544331
O34   O     O_R   0.814585 0.721340 0.087960 -0.651970
H21   H     H_    0.949278 0.728755 0.105228 0.250178
H22   H     H_    0.376366 0.639450 0.164954 0.140715
C68   C     C_2   0.952569 0.506884 0.190076 0.797802
O35   O     O_2   0.926727 0.445507 0.152593 -0.545931
O36   O     O_R   0.131505 0.521278 0.218048 -0.665270
H23   H     H_    0.229065 0.477888 0.202286 0.325223
H24   H     H_    0.179127 0.880291 0.710391 0.123017
C69   C     C_2   0.309719 0.280418 0.044655 0.810341
O37   O     O_2   0.343558 0.338686 0.084213 -0.546434
O38   O     O_R   0.119176 0.254960 0.032328 -0.661709
H25   H     H_    0.023713 0.289283 0.059311 0.307444
H26   H     H_    0.093741 0.458564 0.532847 0.171532
C70   C     C_2   0.932144 0.010182 0.468150 0.865116
O39   O     O_2   0.811881 0.986298 0.430453 -0.497336
O40   O     O_R   0.007765 0.957487 0.498114 -0.681198
H27   H     H_    0.956300 0.901207 0.483366 0.296698
H28   H     H_    0.284083 0.104606 0.172435 0.128942

loop_
_geom_bond_atom_site_label_1
_geom_bond_atom_site_label_2
_ccdc_geom_bond_type
C51   H13   S    
C55   C56   A    
C45   N4    A    
C34   O16   S    
N3    C58   S    
C1    O6    A    
O27   C64   A    
C53   C54   A    
C49   C50   A    
O30   H18   S    
C69   O38   S    
C12   C13   A    
C19   O13   S    
C47   C52   A    
C2    C59   S    
C23   C64   S    
N4    C52   S    
C14   C15   A    
N1    C32   S    
C41   C42   A    
C55   C62   S    
O5    C3    A    
C16   C17   A    
C31   C32   A    
C7    C11   A    
C6    C63   S    
C13   H2    S    
V2    O10   S    
V4    O28   S    
O20   V3    S    
N2    C20   A    
C9    C12   A    
C10   C15   A    
O23   C63   A    
C43   C66   S    
O24   V4    S    
C65   O29   D    
O8    V2    S    
C34   C35   A    
C24   C25   A    
C68   O35   D    
C57   C58   A    
C18   H3    S    
O19   C62   A    
C42   C43   A    
O1    V2    S    
C12   H26   S    
O7    V1    S    
C11   C18   A    
C25   C26   A    
C38   C39   A    
C24   H28   S    
O9    C4    A    
C4    C5    S    
C56   H15   S    
C21   C22   A    
O26   C63   A    
C22   C23   A    
C19   N2    A    
O22   V3    S    
C28   C29   A    
C60   C61   S    
C38   H10   S    
N2    C26   S    
N4    C46   A    
C39   C40   A    
C39   H11   S    
C48   C49   A    
O20   C61   A    
C54   H14   S    
O4    C2    A    
C60   C69   S    
C50   C51   A    
C46   O18   S    
C1    C49   S    
C40   C45   A    
C28   H8    S    
C8    O12   S    
C33   O15   S    
C27   H7    S    
C44   H20   S    
C33   N3    A    
C27   C28   A    
O2    C1    A    
C67   O34   S    
C15   C16   A    
C54   C55   A    
O21   C64   A    
C53   H24   S    
C33   C37   A    
C59   H17   S    
C9    C10   A    
C57   H16   S    
C29   C30   A    
C5    H1    S    
O25   V3    S    
C36   C41   A    
C10   C11   A    
C56   C57   A    
O3    C4    A    
C21   C26   A    
C16   C20   A    
C25   H6    S    
C59   C60   D    
C14   C19   A    
O6    V2    S    
C47   C48   A    
C51   C52   A    
C70   O40   S    
C27   C32   A    
C21   H4    S    
C66   O32   S    
C67   O33   D    
O2    V1    S    
O25   V4    S    
O26   V4    S    
C22   H5    S    
O34   H21   S    
C30   C31   A    
C61   O24   A    
C23   C24   A    
O1    C2    A    
O23   V3    S    
C40   C41   A    
C17   C18   A    
O40   H27   S    
O5    V1    S    
O21   V3    S    
O27   V4    S    
O38   H25   S    
O36   H23   S    
C37   C44   A    
C69   O37   D    
C48   H22   S    
V3    O28   S    
C36   C37   A    
C17   C70   S    
O9    V2    S    
C20   O14   S    
O7    V2    S    
O4    V1    S    
O3    V1    S    
V1    O10   S    
C30   C65   S    
C50   C68   S    
C31   H9    S    
O22   C62   A    
C6    C67   S    
C5    C6    D    
C45   O17   S    
N3    C34   A    
C65   O30   S    
C35   C38   A    
C3    C29   S    
O19   V4    S    
C35   C36   A    
C7    O11   S    
C43   C44   A    
C7    N1    A    
C68   O36   S    
C47   H12   S    
C42   C46   A    
C70   O39   D    
C8    C9    A    
C66   O31   D    
N1    C8    A    
C53   C58   A    
O8    C3    A    
O32   H19   S    
C13   C14   A    
