data_mof_unit_37372.cif
_audit_creation_date              2012-12-11T15:59:28-0500
_audit_creation_method            fapswitch 2.2
_symmetry_space_group_name_H-M    P1
_symmetry_Int_Tables_number       1
_space_group_crystal_system       triclinic
_cell_length_a                    10.822764
_cell_length_b                    10.685956
_cell_length_c                    17.069379
_cell_angle_alpha                 99.55737
_cell_angle_beta                  99.474569
_cell_angle_gamma                 60.528052
_cell_volume                      1686.86652811

loop_
_atom_site_label
_atom_site_type_symbol
_atom_type_description
_atom_site_fract_x
_atom_site_fract_y
_atom_site_fract_z
_atom_type_partial_charge
C1    C     C_R   0.354157 0.778479 0.402227 0.539463
C2    C     C_R   0.826269 0.225855 0.196101 -0.001360
C3    C     C_R   0.836701 0.212571 0.277805 0.016336
C4    C     C_R   0.913423 0.395146 0.311040 -0.139920
C5    C     C_R   0.925060 0.391128 0.231382 -0.142002
C6    C     C_R   0.780506 0.140675 0.140393 -0.076242
C7    C     C_R   0.774266 0.024742 0.162255 0.035507
C8    C     C_R   0.802351 0.000375 0.242624 -0.113336
C9    C     C_R   0.828335 0.095681 0.300232 -0.111941
C10   C     C_R   0.857229 0.316025 0.334019 0.002530
C11   C     C_R   0.316144 0.860731 0.168818 0.003718
C12   C     C_R   0.398617 0.368576 0.354064 0.571916
C13   C     C_R   0.449943 0.813255 0.212728 0.019459
C14   C     C_R   0.456940 0.825823 0.296660 0.035031
C15   C     C_R   0.204220 0.898453 0.288191 -0.156638
C16   C     C_R   0.193844 0.905954 0.207953 -0.142495
C17   C     C_R   0.576641 0.751412 0.175544 -0.104943
C18   C     C_R   0.705673 0.719048 0.221082 -0.132682
C19   C     C_R   0.709949 0.751223 0.303478 -0.123581
C20   C     C_R   0.586245 0.807148 0.341085 -0.051423
C21   C     C_R   0.335971 0.849977 0.332390 -0.001501
C22   C     C_R   0.338237 0.355344 0.833192 -0.000096
C23   C     C_R   0.781625 0.371921 0.405674 0.545986
C24   C     C_R   0.478547 0.289773 0.812740 0.048895
C25   C     C_R   0.502269 0.273581 0.732443 0.004180
C26   C     C_R   0.252882 0.458055 0.708017 -0.150150
C27   C     C_R   0.226355 0.446695 0.782452 -0.165732
C28   C     C_R   0.595905 0.229258 0.869919 0.047902
C29   C     C_R   0.718624 0.106367 0.845522 -0.062138
C30   C     C_R   0.739702 0.073595 0.765017 -0.132111
C31   C     C_R   0.637945 0.163474 0.709623 -0.114080
C32   C     C_R   0.388087 0.366680 0.680198 0.000321
C33   C     C_1   0.845383 0.328519 0.705512 -0.048493
C34   C     C_R   0.358138 0.768825 0.627348 0.544289
C35   C     C_1   0.892386 0.293974 0.772110 -0.040200
C36   C     C_1   0.338850 0.810087 0.709380 -0.036961
C37   C     C_1   0.312979 0.838201 0.777485 -0.039536
C38   C     C_R   0.900798 0.306718 0.091217 0.524323
C39   C     C_R   0.298254 0.269755 0.124677 0.563985
C40   C     C_R   0.290948 0.895572 0.087032 0.530993
C41   C     C_R   0.942970 0.273386 0.854321 0.571198
C42   C     C_R   0.308000 0.296933 0.894801 0.547711
C43   C     C_R   0.278710 0.885164 0.857284 0.542186
C44   C     C_R   0.408708 0.376922 0.599497 0.564991
C45   C     C_R   0.777291 0.378202 0.629138 0.543250
C46   C     C_1   0.355915 0.342835 0.273261 -0.032694
C47   C     C_1   0.325374 0.313853 0.205053 -0.036822
C48   C     C_R   0.870209 0.317539 0.172748 0.006919
Cr1   Cr    Cr6+3 0.608100 0.610860 0.522250 1.011233
Cr2   Cr    Cr6+3 0.288890 0.599990 0.488420 1.007530
Cr3   Cr    Cr6+3 0.603040 0.289190 0.489390 0.992314
Cr4   Cr    Cr6+3 0.053960 0.052250 0.967380 0.969558
Cr5   Cr    Cr6+3 0.059890 0.373160 0.992710 0.987589
Cr6   Cr    Cr6+3 0.373370 0.061690 0.991710 0.986328
H1    H     H_    0.941323 0.465971 0.354216 0.137306
H2    H     H_    0.801663 0.674649 0.191857 0.118749
H3    H     H_    0.809403 0.732981 0.338326 0.095967
H4    H     H_    0.593074 0.837056 0.404693 0.137880
H5    H     H_    0.164166 0.530886 0.670164 0.151615
H6    H     H_    0.117618 0.502593 0.798242 0.142190
H7    H     H_    0.802626 0.043427 0.889062 0.128171
H8    H     H_    0.839278 0.984635 0.746206 0.123069
H9    H     H_    0.669042 0.138192 0.650193 0.168948
H10   H     H_    0.756580 0.156958 0.078740 0.107050
H11   H     H_    0.976137 0.447660 0.215780 0.132416
H12   H     H_    0.806402 0.907060 0.260854 0.117661
H13   H     H_    0.852827 0.070066 0.361453 0.130444
H14   H     H_    0.110616 0.920713 0.314793 0.138498
H15   H     H_    0.577138 0.726998 0.111449 0.117545
H16   H     H_    0.088223 0.946351 0.176512 0.165903
O1    O     O_R   0.749810 0.499790 0.438040 -0.513381
O2    O     O_R   0.298970 0.468800 0.557390 -0.495788
O3    O     O_R   0.489400 0.255930 0.561910 -0.527103
O4    O     O_R   0.723890 0.306050 0.584610 -0.533242
O5    O     O_3   0.500010 0.500010 0.500020 -0.278872
O6    O     O_R   0.171100 0.914680 0.053100 -0.528055
O7    O     O_R   0.941680 0.184840 0.050710 -0.522587
O8    O     O_R   0.922080 0.403420 0.072610 -0.532299
O9    O     O_R   0.196880 0.369150 0.083850 -0.504395
O10   O     O_R   0.411730 0.181020 0.091530 -0.523411
O11   O     O_R   0.365010 0.944360 0.063320 -0.517727
O12   O     O_R   0.477660 0.726260 0.439290 -0.509266
O13   O     O_R   0.159380 0.906670 0.876210 -0.521728
O14   O     O_R   0.930820 0.177420 0.886730 -0.508777
O15   O     O_R   0.910360 0.395420 0.895720 -0.514797
O16   O     O_R   0.186010 0.361730 0.919870 -0.515145
O17   O     O_R   0.400000 0.173010 0.914630 -0.516520
O18   O     O_R   0.354140 0.936940 0.899340 -0.493917
O19   O     O_3   0.162410 0.162370 0.983930 -0.268288
O20   O     O_R   0.260150 0.743000 0.412270 -0.524724
O21   O     O_R   0.297740 0.466550 0.394720 -0.492398
O22   O     O_R   0.488080 0.253500 0.386430 -0.501219
O23   O     O_R   0.722670 0.303800 0.421940 -0.521384
O24   O     O_R   0.751130 0.502220 0.613520 -0.501561
O25   O     O_R   0.478890 0.728510 0.601960 -0.491260
O26   O     O_R   0.261470 0.745430 0.587750 -0.525697
C49   C     C_3   0.598069 0.305853 0.952681 -0.286709
C50   C     C_3   0.539635 0.468704 0.952706 -0.417965
H17   H     H_    0.562547 0.514503 0.013159 0.135926
H18   H     H_    0.422423 0.524322 0.937623 0.152541
H19   H     H_    0.591294 0.490490 0.909389 0.177195
H20   H     H_    0.541363 0.285108 0.993161 0.166975
H21   H     H_    0.710099 0.264440 0.976548 0.170937
C51   C     C_3   0.748678 0.922506 0.098231 -0.270076
C52   C     C_3   0.888387 0.786113 0.080962 -0.438834
H22   H     H_    0.957517 0.813399 0.053772 0.161815
H23   H     H_    0.946873 0.734923 0.136497 0.148860
H24   H     H_    0.865697 0.707543 0.038501 0.151490
H25   H     H_    0.671671 0.896236 0.116314 0.168181
H26   H     H_    0.698990 0.974145 0.041733 0.141226

loop_
_geom_bond_atom_site_label_1
_geom_bond_atom_site_label_2
_ccdc_geom_bond_type
C28   C49   S    
C25   C31   A    
C51   H26   S    
C1    C21   S    
C1    O20   A    
C43   O13   A    
C12   O21   A    
C19   C20   A    
Cr3   O4    S    
C49   C50   S    
C7    C8    A    
C22   C42   S    
C19   H3    S    
C26   C32   A    
C52   H23   S    
C26   C27   A    
C43   O18   A    
C14   C21   A    
C36   C37   T    
Cr5   O9    S    
Cr3   O5    S    
C27   H6    S    
C30   C31   A    
C15   C16   A    
C33   C45   S    
C14   C20   A    
C18   C19   A    
C6    H10   S    
Cr4   O14   S    
Cr2   O2    S    
C17   H15   S    
Cr3   O3    S    
Cr2   O20   S    
C8    C9    A    
Cr1   O5    S    
Cr5   O16   S    
C42   O16   A    
Cr1   O24   S    
C26   H5    S    
C38   C48   S    
C49   H20   S    
C18   H2    S    
C25   C32   A    
C13   C14   A    
Cr4   O19   S    
C2    C6    A    
C45   O24   A    
C51   C52   S    
C52   H24   S    
Cr6   O10   S    
C5    C48   A    
C29   H7    S    
C23   O1    A    
C16   H16   S    
C34   O25   A    
Cr6   O19   S    
C12   C46   S    
C38   O8    A    
C2    C48   A    
C1    O12   A    
C41   O14   A    
C8    H12   S    
Cr1   O25   S    
C23   O23   A    
C45   O4    A    
C39   O9    A    
Cr1   O12   S    
C37   C43   S    
Cr4   O13   S    
C9    H13   S    
C29   C30   A    
C3    C9    A    
C31   H9    S    
Cr3   O22   S    
C11   C16   A    
C17   C18   A    
C32   C44   S    
C24   C25   A    
C49   H21   S    
Cr3   O23   S    
C5    H11   S    
C50   H18   S    
C7    C51   S    
C30   H8    S    
C4    H1    S    
Cr5   O19   S    
C22   C24   A    
C4    C10   A    
Cr4   O7    S    
C39   C47   S    
C44   O3    A    
C46   C47   T    
C28   C29   A    
C40   O11   A    
C12   O22   A    
C24   C28   A    
C34   O26   A    
C4    C5    A    
Cr4   O6    S    
C6    C7    A    
C38   O7    A    
C10   C23   S    
C50   H19   S    
C41   O15   A    
C52   H22   S    
C13   C17   A    
C22   C27   A    
C39   O10   A    
C2    C3    A    
C3    C10   A    
Cr2   O5    S    
Cr6   O18   S    
C11   C13   A    
Cr2   O26   S    
Cr6   O17   S    
C15   H14   S    
C33   C35   T    
C44   O2    A    
C34   C36   S    
C11   C40   S    
C35   C41   S    
Cr5   O8    S    
C40   O6    A    
Cr2   O21   S    
C15   C21   A    
C50   H17   S    
Cr1   O1    S    
C51   H25   S    
Cr5   O15   S    
C42   O17   A    
C20   H4    S    
Cr6   O11   S    
