data_mof_unit_68496.cif
_audit_creation_date              2012-10-26T18:48:19-0400
_audit_creation_method            fapswitch 2.2
_symmetry_space_group_name_H-M    P1
_symmetry_Int_Tables_number       1
_space_group_crystal_system       triclinic
_cell_length_a                    10.659622
_cell_length_b                    8.739445
_cell_length_c                    7.564148
_cell_angle_alpha                 103.036267
_cell_angle_beta                  95.697707
_cell_angle_gamma                 94.290536
_cell_volume                      679.673945654

loop_
_atom_site_label
_atom_site_type_symbol
_atom_type_description
_atom_site_fract_x
_atom_site_fract_y
_atom_site_fract_z
_atom_type_partial_charge
Br1   Br    Br    0.885092 0.195185 0.636797 -0.321059
Br2   Br    Br    0.114908 0.804815 0.363202 -0.321058
Br3   Br    Br    0.134532 0.546577 0.919337 -0.266960
Br4   Br    Br    0.865468 0.453423 0.080663 -0.266960
Br5   Br    Br    0.356936 0.280818 0.900540 -0.266344
Br6   Br    Br    0.643064 0.719182 0.099460 -0.266344
C1    C     C_R   0.495511 0.199985 0.453296 0.549945
C2    C     C_3   0.123299 0.503045 0.501947 -0.054958
C3    C     C_3   0.972221 0.633557 0.608745 0.072724
C4    C     C_3   0.027779 0.366443 0.391254 0.072724
C5    C     C_2   0.491376 0.031683 0.427888 -0.080739
C6    C     C_2   0.508624 0.968317 0.572112 -0.080739
C7    C     C_R   0.504489 0.800015 0.546704 0.549945
C8    C     C_R   0.259994 0.501723 0.500586 0.580228
C9    C     C_R   0.740006 0.498276 0.499414 0.580228
C10   C     C_3   0.052975 0.512135 0.671277 0.161381
C11   C     C_3   0.947025 0.487865 0.328723 0.161381
C12   C     C_3   0.956384 0.375721 0.560629 0.132877
C13   C     C_3   0.043616 0.624279 0.439370 0.132877
C14   C     C_3   0.876701 0.496955 0.498053 -0.054958
Cu1   Cu    Cu3+1 0.514140 0.517380 0.684380 1.197095
Cu2   Cu    Cu3+1 0.485860 0.482620 0.315620 1.197095
H1    H     H_    0.473267 0.959467 0.289077 0.176523
H2    H     H_    0.526733 0.040533 0.710923 0.176522
I1    I     I_    0.919348 0.836378 0.789682 0.000608
I2    I     I_    0.080653 0.163623 0.210317 0.000609
N1    N     N_2   0.464560 0.456420 0.038510 0.022492
N2    N     N_2   0.535440 0.543580 0.961490 0.022493
O1    O     O_R   0.509190 0.286130 0.619780 -0.489876
O2    O     O_R   0.490810 0.713870 0.380220 -0.489876
O3    O     O_R   0.485310 0.256770 0.308360 -0.485804
O4    O     O_R   0.514690 0.743230 0.691640 -0.485804
O5    O     O_R   0.328790 0.514640 0.655680 -0.468277
O6    O     O_R   0.671210 0.485360 0.344320 -0.468278
O7    O     O_R   0.304910 0.485280 0.344260 -0.459856
O8    O     O_R   0.695090 0.514720 0.655740 -0.459856

loop_
_geom_bond_atom_site_label_1
_geom_bond_atom_site_label_2
_ccdc_geom_bond_type
C5    C6    D    
C9    O6    A    
C1    O1    A    
C6    H2    S    
C3    C14   S    
C4    I2    S    
C8    O5    A    
Br2   C13   S    
C3    I1    S    
C2    C10   S    
Cu1   O8    S    
Cu1   Cu2   S    
C1    C5    S    
Cu2   O7    S    
Br1   C12   S    
C4    C12   S    
Br4   C11   S    
C2    C4    S    
C11   C13   S    
C3    C10   S    
C12   C14   S    
Cu2   N1    S    
C9    C14   S    
Cu2   O6    S    
Cu1   O4    S    
C2    C13   S    
Cu1   O5    S    
Cu2   O3    S    
C4    C11   S    
Cu1   N2    S    
C7    O2    A    
N1    N2    D    
C11   C14   S    
C1    O3    A    
C6    C7    S    
C10   C12   S    
C5    H1    S    
C8    O7    A    
C2    C8    S    
Cu2   O2    S    
C9    O8    A    
Br5   N1    S    
C7    O4    A    
Cu1   O1    S    
C3    C13   S    
Br6   N2    S    
Br3   C10   S    
