data_mof_unit_50959.cif
_audit_creation_date              2013-03-05T16:30:37-0500
_audit_creation_method            fapswitch 2.2
_symmetry_space_group_name_H-M    P1
_symmetry_Int_Tables_number       1
_space_group_crystal_system       triclinic
_cell_length_a                    14.832838
_cell_length_b                    14.215728
_cell_length_c                    10.670366
_cell_angle_alpha                 89.615074
_cell_angle_beta                  90.935159
_cell_angle_gamma                 89.676601
_cell_volume                      2249.5613038

loop_
_atom_site_label
_atom_site_type_symbol
_atom_site_description
_atom_site_fract_x
_atom_site_fract_y
_atom_site_fract_z
_atom_type_partial_charge
O1    O     O_R   0.369060 0.579480 0.500010 -0.572225
O2    O     O_R   0.630940 0.579480 0.499990 -0.570292
O3    O     O_R   0.369050 0.420520 0.500010 -0.578640
O4    O     O_R   0.630950 0.420520 0.499990 -0.559312
C1    C     C_R   0.327515 0.500135 0.499693 0.941251
C2    C     C_R   0.672569 0.499678 0.493274 0.947022
O5    O     O_R   0.500000 0.579460 0.319080 -0.581133
O6    O     O_R   0.500000 0.579460 0.680920 -0.602809
O7    O     O_R   0.499990 0.420500 0.319080 -0.617310
O8    O     O_R   0.500010 0.420500 0.680920 -0.605326
C3    C     C_R   0.493368 0.500056 0.262482 0.765421
C4    C     C_R   0.504618 0.499240 0.737622 0.762915
Zn1   Zn    Zn3+2 0.500000 0.606140 0.500000 1.026059
Zn2   Zn    Zn3+2 0.500000 0.393860 0.500000 1.027752
C5    C     C_2   0.484778 0.422372 0.932742 -0.295556
C6    C     C_2   0.488330 0.420523 0.067145 -0.299182
C7    C     C_2   0.519962 0.494955 0.869552 0.482420
C8    C     C_2   0.470728 0.498910 0.131888 0.485059
H1    H     H_    0.450623 0.364732 0.885705 0.165061
H2    H     H_    0.510745 0.355512 0.112165 0.173659
C9    C     C_R   0.101729 0.552866 0.363456 0.502960
C10   C     C_R   0.910121 0.580097 0.472721 0.484015
C11   C     C_R   0.193249 0.557952 0.392355 -0.417731
C12   C     C_R   0.818105 0.579752 0.491482 -0.401380
H3    H     H_    0.235517 0.605161 0.340074 0.204545
H4    H     H_    0.786888 0.641584 0.530816 0.253988
C13   C     C_R   0.231137 0.500131 0.485640 -0.269655
C14   C     C_R   0.767882 0.499280 0.465238 -0.319974
C15   C     C_R   0.178112 0.436635 0.553855 0.408706
C16   C     C_R   0.807948 0.421964 0.404293 0.425229
C17   C     C_R   0.085958 0.432309 0.527335 0.350666
C18   C     C_R   0.900286 0.422279 0.382431 0.404047
C19   C     C_R   0.048340 0.492293 0.434294 -0.131506
C20   C     C_R   0.951453 0.499911 0.422385 -0.118134
C21   C     C_R   0.451804 0.106224 0.408553 -0.383370
C22   C     C_R   0.549206 0.104809 0.590795 -0.384783
H5    H     H_    0.416119 0.070805 0.333497 0.165804
H6    H     H_    0.584578 0.068007 0.665922 0.162596
C23   C     C_R   0.449587 0.205622 0.412537 0.582802
C24   C     C_R   0.550499 0.204397 0.587615 0.598504
N1    N     N_R   0.500000 0.252470 0.500000 -0.159540
C25   C     C_R   0.500737 0.053863 0.499471 0.083168
C26   C     C_R   0.573944 0.894812 0.547276 -0.377535
C27   C     C_R   0.426914 0.896474 0.452353 -0.387950
H7    H     H_    0.634155 0.930245 0.580046 0.169257
H8    H     H_    0.367392 0.933935 0.420066 0.168186
C28   C     C_R   0.570919 0.795382 0.553121 0.530406
C29   C     C_R   0.428959 0.796700 0.447167 0.573204
N2    N     N_R   0.500000 0.747550 0.500000 -0.166606
C30   C     C_R   0.500629 0.947303 0.499578 0.085251
O9    O     O_3   0.643916 0.746004 0.602082 -0.592905
C31   C     C_3   0.651077 0.760807 0.732787 0.127107
H9    H     H_    0.598979 0.719159 0.781690 0.209840
H10   H     H_    0.643362 0.835993 0.759446 0.114722
C32   C     C_3   0.743900 0.728842 0.778774 -0.851307
H11   H     H_    0.750034 0.738545 0.881706 0.220269
H12   H     H_    0.754532 0.653503 0.756708 0.240871
H13   H     H_    0.796669 0.771167 0.732398 0.255474
O10   O     O_3   0.356010 0.747206 0.399501 -0.583963
C33   C     C_3   0.328754 0.779789 0.278764 0.076986
H14   H     H_    0.327698 0.718500 0.215460 0.184057
H15   H     H_    0.375003 0.831703 0.234979 0.132071
C34   C     C_3   0.233352 0.820230 0.282648 -0.862467
H16   H     H_    0.209323 0.837190 0.185970 0.219252
H17   H     H_    0.186763 0.768510 0.324718 0.292844
H18   H     H_    0.231696 0.885354 0.339118 0.248238
O11   O     O_3   0.572577 0.563382 0.926433 -0.566454
C35   C     C_3   0.661651 0.528596 0.938007 -0.354817
H19   H     H_    0.689923 0.511600 0.844759 0.146332
H20   H     H_    0.665538 0.465610 0.000285 0.157083
H21   H     H_    0.704411 0.583569 0.981477 0.196651
O12   O     O_3   0.432491 0.578892 0.077078 -0.552076
C36   C     C_3   0.339289 0.563464 0.058773 -0.380289
H22   H     H_    0.306170 0.545580 0.148584 0.130593
H23   H     H_    0.326171 0.507379 0.988922 0.165330
H24   H     H_    0.307860 0.629000 0.021220 0.184125
O13   O     O_3   0.061345 0.610300 0.272542 -0.562189
C37   C     C_3   0.103637 0.598973 0.155700 0.075266
H25   H     H_    0.125839 0.524968 0.139347 0.104370
H26   H     H_    0.162717 0.646338 0.150028 0.145235
C38   C     C_3   0.037429 0.626035 0.051005 -0.840648
H27   H     H_    0.015962 0.700545 0.061299 0.270489
H28   H     H_    0.069989 0.617481 0.958713 0.191529
H29   H     H_    0.977138 0.580115 0.054346 0.240516
O14   O     O_3   0.959532 0.659602 0.501949 -0.548455
C39   C     C_3   0.981406 0.658615 0.631303 0.077865
H30   H     H_    0.031482 0.602196 0.653261 0.108867
H31   H     H_    0.920749 0.648212 0.689858 0.124893
C40   C     C_3   0.023610 0.752147 0.666590 -0.774497
H32   H     H_    0.975057 0.810394 0.647106 0.256062
H33   H     H_    0.041766 0.751924 0.767983 0.196340
H34   H     H_    0.085546 0.763758 0.611534 0.267164
O15   O     O_3   0.215263 0.375302 0.642331 -0.564144
C41   C     C_3   0.241557 0.425671 0.750657 -0.312161
H35   H     H_    0.196040 0.485956 0.772030 0.111422
H36   H     H_    0.311619 0.451317 0.742118 0.156615
H37   H     H_    0.240467 0.376979 0.832278 0.187048
O16   O     O_3   0.758085 0.344018 0.370099 -0.568538
C42   C     C_3   0.723392 0.358649 0.247569 -0.247709
H38   H     H_    0.682611 0.424469 0.240066 0.126148
H39   H     H_    0.678298 0.299263 0.223375 0.187652
H40   H     H_    0.778310 0.360040 0.178010 0.144735
O17   O     O_3   0.034495 0.363733 0.584541 -0.535365
C43   C     C_3   0.996040 0.400123 0.694439 0.130186
H41   H     H_    0.944509 0.454672 0.671175 0.097857
H42   H     H_    0.047873 0.430510 0.758486 0.125318
C44   C     C_3   0.949219 0.321030 0.763902 -0.808727
H43   H     H_    0.999178 0.266280 0.792902 0.264856
H44   H     H_    0.916284 0.349171 0.848664 0.184774
H45   H     H_    0.897115 0.288807 0.702118 0.256676
O18   O     O_3   0.939868 0.342011 0.333998 -0.540853
C45   C     C_3   0.977413 0.362060 0.215788 0.122293
H46   H     H_    0.047685 0.387037 0.228300 0.139939
H47   H     H_    0.937773 0.415606 0.160799 0.105030
C46   C     C_3   0.980486 0.272256 0.139344 -0.825277
H48   H     H_    0.911085 0.245749 0.122440 0.256196
H49   H     H_    0.012292 0.286578 0.047738 0.200424
H50   H     H_    0.020707 0.217595 0.190302 0.267796
O19   O     O_3   0.401607 0.256935 0.323157 -0.593508
C47   C     C_3   0.308493 0.241201 0.337573 -0.274925
H51   H     H_    0.287426 0.249309 0.436727 0.199701
H52   H     H_    0.289107 0.170792 0.301866 0.147896
H53   H     H_    0.270726 0.294576 0.281040 0.177708
O20   O     O_3   0.596282 0.254841 0.678703 -0.585199
C48   C     C_3   0.689409 0.234764 0.674158 -0.290571
H54   H     H_    0.715157 0.236876 0.576686 0.209654
H55   H     H_    0.705153 0.165779 0.719083 0.148775
H56   H     H_    0.725968 0.289427 0.728169 0.177895

loop_
_geom_bond_atom_site_label_1
_geom_bond_atom_site_label_2
_geom_bond_distance
_ccdc_geom_bond_type
C16   C18   1.393139 A    
C32   H11   1.110201 S    
C34   H17   1.109538 S    
C3    C8    1.428264 S    
O6    Zn1   1.964884 S    
C18   O18   1.387109 S    
C13   C15   1.407495 A    
C36   H23   1.110881 S    
C36   H22   1.112582 S    
C22   C25   1.408337 A    
O18   C45   1.414999 S    
C45   H47   1.116740 S    
C38   H27   1.110990 S    
C23   N1    1.365600 A    
O13   C37   1.414545 S    
C47   H51   1.114610 S    
O5    C3    1.287249 A    
O15   C41   1.414359 S    
C33   C34   1.525699 S    
O1    C1    1.288345 A    
C21   H5    1.081516 S    
C12   H4    1.081618 S    
C5    H1    1.087150 S    
C37   H26   1.110315 S    
C9    C19   1.399435 A    
C5    C6    1.434302 S    
C33   H15   1.115825 S    
C10   O14   1.385083 S    
O2    Zn1   1.976745 S    
C21   C25   1.408281 A    
C45   H46   1.109332 S    
C1    C13   1.434964 S    
C2    C14   1.449813 S    
C27   H8    1.078912 S    
C35   H19   1.113524 S    
C46   H49   1.110374 S    
C4    C7    1.423192 S    
C48   H56   1.109343 S    
C44   H43   1.110602 S    
C17   C19   1.410409 A    
C11   C13   1.395628 A    
C40   H33   1.110625 S    
C31   C32   1.520133 S    
C6    H2    1.086624 S    
C34   H18   1.108364 S    
O10   C33   1.417944 S    
C44   H44   1.110757 S    
O2    C2    1.291513 A    
C24   O20   1.383258 S    
C43   H42   1.111450 S    
C43   H41   1.109834 S    
C38   H28   1.110998 S    
C31   H10   1.113634 S    
C8    O12   1.389058 S    
C10   C20   1.405268 A    
C7    O11   1.387337 S    
O9    C31   1.414217 S    
C22   C24   1.416139 A    
C28   N2    1.372582 A    
O8    Zn2   1.969770 S    
C39   H30   1.111275 S    
C28   O9    1.380601 S    
C41   H37   1.109231 S    
O14   C39   1.412675 S    
O11   C35   1.411343 S    
C33   H14   1.106040 S    
C17   O17   1.386099 S    
C21   C23   1.414146 A    
O7    Zn2   1.964777 S    
O7    C3    1.281034 A    
C42   H38   1.113030 S    
O6    C4    1.288301 A    
C46   H50   1.110809 S    
C19   C20   1.444047 S    
C43   C44   1.519967 S    
C40   H34   1.111020 S    
C41   H36   1.108203 S    
C26   H7    1.082065 S    
O3    Zn2   1.976890 S    
O8    C4    1.277610 A    
C25   C30   1.514841 S    
Zn2   N1    2.009962 S    
Zn1   N2    2.010248 S    
O4    C2    1.288687 A    
C24   N1    1.365605 A    
C42   H39   1.109244 S    
C32   H12   1.109079 S    
C48   H54   1.114074 S    
C36   H24   1.108985 S    
C10   C12   1.382718 A    
O1    Zn1   1.980945 S    
C22   H6    1.081261 S    
C38   H29   1.111064 S    
C31   H9    1.110925 S    
C47   H52   1.111079 S    
C29   O10   1.385632 S    
C27   C30   1.402632 A    
C5    C7    1.341588 D    
C29   N2    1.372356 A    
C37   H25   1.116285 S    
C12   C14   1.396119 A    
O12   C36   1.411588 S    
O3    C1    1.285506 A    
C39   C40   1.519866 S    
O19   C47   1.411097 S    
C47   H53   1.109701 S    
C26   C30   1.402181 A    
C16   O16   1.383409 S    
C9    C11   1.389563 A    
C15   C17   1.393152 A    
C15   O15   1.386241 S    
C37   C38   1.521369 S    
C35   H21   1.108594 S    
C23   O19   1.382318 S    
C14   C16   1.413846 A    
C44   H45   1.110485 S    
C39   H31   1.113707 S    
C11   H3    1.079726 S    
O4    Zn2   1.981088 S    
C41   H35   1.115081 S    
C34   H16   1.110414 S    
C27   C29   1.419988 A    
O5    Zn1   1.969886 S    
C42   H40   1.111110 S    
C6    C8    1.341673 D    
O16   C42   1.410900 S    
C32   H13   1.110630 S    
C9    O13   1.389733 S    
O17   C43   1.412339 S    
C48   H55   1.110628 S    
C35   H20   1.112129 S    
C40   H32   1.110657 S    
C26   C28   1.415417 A    
C45   C46   1.520446 S    
C46   H48   1.110602 S    
C18   C20   1.407441 A    
O20   C48   1.410602 S    
