data_mof_unit_33106.cif
_audit_creation_date              2012-12-10T18:11:47-0500
_audit_creation_method            fapswitch 2.2
_symmetry_space_group_name_H-M    P1
_symmetry_Int_Tables_number       1
_space_group_crystal_system       triclinic
_cell_length_a                    15.843219
_cell_length_b                    10.742087
_cell_length_c                    9.434604
_cell_angle_alpha                 90.520968
_cell_angle_beta                  89.666962
_cell_angle_gamma                 89.985012
_cell_volume                      1605.57447749

loop_
_atom_site_label
_atom_site_type_symbol
_atom_type_description
_atom_site_fract_x
_atom_site_fract_y
_atom_site_fract_z
_atom_type_partial_charge
C1    C     C_R   0.501502 0.260012 0.499323 0.763757
C2    C     C_3   0.082687 0.502714 0.498971 0.200263
C3    C     C_3   0.971271 0.603109 0.568604 -0.163426
C4    C     C_3   0.917362 0.501883 0.497482 0.201700
C5    C     C_3   0.028300 0.605880 0.434768 -0.164348
C6    C     C_3   0.972800 0.504653 0.363613 -0.159383
C7    C     C_1   0.174429 0.502562 0.500151 -0.086615
C8    C     C_1   0.825606 0.501089 0.497611 -0.086189
C9    C     C_3   0.561928 0.072671 0.611841 -0.393938
C10   C     C_3   0.562304 0.929689 0.610020 -0.396701
C11   C     C_3   0.409562 0.077238 0.533382 -0.378938
C12   C     C_R   0.339831 0.500600 0.500320 0.829322
C13   C     C_3   0.527595 0.069578 0.351444 -0.402138
C14   C     C_3   0.500310 0.122315 0.498605 0.131518
C15   C     C_3   0.497002 0.878583 0.500711 0.138863
C16   C     C_3   0.403243 0.931505 0.527491 0.223594
C17   C     C_3   0.531096 0.926902 0.354824 -0.420911
C18   C     C_3   0.551906 0.605559 0.084423 -0.165088
C19   C     C_3   0.559044 0.598449 0.917794 -0.190723
C20   C     C_3   0.533841 0.379852 0.077681 0.114277
C21   C     C_3   0.415350 0.518624 0.085470 -0.235796
C22   C     C_3   0.528794 0.380910 0.910750 -0.181087
C23   C     C_R   0.499175 0.740239 0.500515 0.747631
C24   C     C_3   0.415742 0.526388 0.918370 -0.210901
C25   C     C_R   0.660178 0.499997 0.499578 0.827866
C26   C     C_3   0.971798 0.398765 0.561611 -0.161302
C27   C     C_3   0.028779 0.401515 0.427791 -0.161332
C28   C     C_1   0.250060 0.501823 0.500758 -0.210092
C29   C     C_1   0.749965 0.500469 0.498413 -0.209007
C30   C     C_3   0.027214 0.499963 0.632760 -0.160769
Cu1   Cu    Cu3+1 0.500040 0.499860 0.642410 0.886612
Cu2   Cu    Cu3+1 0.499960 0.500140 0.357590 0.886692
H1    H     H_    0.053775 0.318767 0.370022 0.124460
H2    H     H_    0.390004 0.114893 0.638614 0.149895
H3    H     H_    0.482474 0.099350 0.268338 0.165073
H4    H     H_    0.597603 0.896070 0.338200 0.165486
H5    H     H_    0.496354 0.887913 0.262759 0.159468
H6    H     H_    0.365378 0.120997 0.457274 0.138832
H7    H     H_    0.545258 0.691086 0.873732 0.129264
H8    H     H_    0.589347 0.353880 0.859462 0.154000
H9    H     H_    0.392520 0.619139 0.885101 0.156614
H10   H     H_    0.370109 0.456795 0.876487 0.150550
H11   H     H_    0.488900 0.305808 0.111412 0.096513
H12   H     H_    0.053016 0.690874 0.382864 0.129227
H13   H     H_    0.050911 0.498071 0.743225 0.122602
H14   H     H_    0.543605 0.106718 0.719344 0.158023
H15   H     H_    0.626838 0.107752 0.590362 0.153687
H16   H     H_    0.626758 0.897018 0.579941 0.152167
N1    N     N_3   0.501840 0.500250 0.143650 -0.119514
N2    N     N_3   0.501160 0.503300 0.856280 -0.123008
O1    O     O_R   0.500050 0.317570 0.620260 -0.598334
O2    O     O_R   0.499980 0.317810 0.379740 -0.609555
O3    O     O_R   0.379110 0.499870 0.620240 -0.586599
O4    O     O_R   0.379040 0.500110 0.379720 -0.587073
O5    O     O_R   0.500020 0.682190 0.620260 -0.591786
O6    O     O_R   0.499950 0.682430 0.379740 -0.602211
O7    O     O_R   0.620960 0.499890 0.620280 -0.583579
O8    O     O_R   0.620890 0.500130 0.379760 -0.587499
H17   H     H_    0.553565 0.894034 0.718075 0.155082
C31   C     C_3   0.357709 0.881582 0.665367 -0.373372
C32   C     C_3   0.399303 0.902705 0.810854 -0.368594
C33   C     C_3   0.334903 0.896172 0.931816 -0.922896
H18   H     H_    0.289460 0.974623 0.925093 0.256051
H19   H     H_    0.299820 0.806712 0.927629 0.255923
H20   H     H_    0.368070 0.902726 0.034989 0.239461
H21   H     H_    0.445266 0.827929 0.829668 0.219939
H22   H     H_    0.431296 0.994070 0.817784 0.217563
H23   H     H_    0.295381 0.928441 0.673190 0.201122
H24   H     H_    0.344628 0.780380 0.652680 0.187646
H25   H     H_    0.591023 0.105796 0.322105 0.155882
C34   C     C_3   0.345816 0.893141 0.396978 -0.439038
C35   C     C_3   0.249995 0.916386 0.413076 -0.380348
C36   C     C_3   0.204764 0.899812 0.271659 -0.863681
H26   H     H_    0.226901 0.970591 0.194856 0.254918
H27   H     H_    0.216688 0.805187 0.227364 0.256652
H28   H     H_    0.135735 0.911710 0.287726 0.235899
H29   H     H_    0.222279 0.848283 0.488121 0.215923
H30   H     H_    0.237583 0.012013 0.453755 0.217399
H31   H     H_    0.366283 0.944988 0.301656 0.207895
H32   H     H_    0.353947 0.792529 0.372512 0.195879
H33   H     H_    0.614508 0.612285 0.133689 0.135784
H34   H     H_    0.947228 0.313746 0.613610 0.122903
H35   H     H_    0.521353 0.695656 0.113235 0.128901
H36   H     H_    0.625185 0.578473 0.885826 0.135091
C37   C     C_3   0.621041 0.327521 0.128239 -0.372139
C38   C     C_3   0.703080 0.395335 0.085323 -0.350049
C39   C     C_3   0.780155 0.313416 0.111837 -0.887086
H37   H     H_    0.783280 0.287483 0.225453 0.256683
H38   H     H_    0.777339 0.227559 0.045512 0.249396
H39   H     H_    0.838520 0.365170 0.083911 0.240207
H40   H     H_    0.703408 0.420218 0.971871 0.205468
H41   H     H_    0.712112 0.480363 0.150117 0.231118
H42   H     H_    0.622348 0.313609 0.243406 0.235625
H43   H     H_    0.625131 0.231462 0.083346 0.150597
H44   H     H_    0.373497 0.440806 0.118488 0.142120
H45   H     H_    0.386762 0.605075 0.130658 0.156722
H46   H     H_    0.948993 0.506479 0.253208 0.124059
H47   H     H_    0.483251 0.307589 0.877274 0.117278
H48   H     H_    0.946274 0.685846 0.626380 0.121902

loop_
_geom_bond_atom_site_label_1
_geom_bond_atom_site_label_2
_ccdc_geom_bond_type
C39   H37   S    
C22   H47   S    
C11   H6    S    
C24   H10   S    
C36   H26   S    
C30   H13   S    
C2    C7    S    
Cu2   O8    S    
C4    C8    S    
C21   N1    S    
C23   O6    A    
C37   C38   S    
C27   H1    S    
C26   C27   S    
C20   N1    S    
C12   C28   S    
C8    C29   T    
C13   H3    S    
C10   C15   S    
C16   C31   S    
C5    C6    S    
C11   C14   S    
C13   H25   S    
C15   C16   S    
C18   H33   S    
C18   C19   S    
C11   C16   S    
Cu2   O4    S    
Cu2   O2    S    
C35   H30   S    
C37   H42   S    
C32   H21   S    
Cu1   Cu2   S    
C33   H19   S    
C2    C27   S    
C17   H4    S    
C9    C10   S    
C12   O3    A    
C22   N2    S    
C15   C23   S    
C9    H14   S    
C26   H34   S    
C13   C14   S    
C25   C29   S    
C24   H9    S    
C36   H27   S    
C16   C34   S    
C25   O7    A    
C34   H31   S    
C34   H32   S    
C24   N2    S    
C6    H46   S    
C2    C30   S    
C4    C6    S    
C38   C39   S    
C21   H44   S    
C7    C28   T    
C31   C32   S    
C3    C30   S    
C9    C14   S    
C35   H29   S    
C37   H43   S    
C32   H22   S    
C6    C27   S    
C22   H8    S    
C20   C37   S    
C33   H18   S    
C18   H35   S    
C17   H5    S    
Cu1   O3    S    
C1    O1    A    
C19   H7    S    
C5    H12   S    
C20   C22   S    
C9    H15   S    
C39   H38   S    
C10   H16   S    
C36   H28   S    
C39   H39   S    
C2    C5    S    
C25   O8    A    
Cu1   N2    S    
C3    C4    S    
C20   H11   S    
C15   C17   S    
C33   H20   S    
C11   H2    S    
Cu1   O1    S    
C35   C36   S    
C3    C5    S    
C4    C26   S    
C23   O5    A    
C21   H45   S    
C13   C17   S    
C38   H40   S    
Cu1   O7    S    
C10   H17   S    
C34   C35   S    
C38   H41   S    
C19   N2    S    
C31   H24   S    
C32   C33   S    
C1    O2    A    
Cu2   N1    S    
C3    H48   S    
C31   H23   S    
C21   C24   S    
C1    C14   S    
Cu1   O5    S    
Cu2   O6    S    
C12   O4    A    
C19   H36   S    
C18   N1    S    
C26   C30   S    
