data_mof_unit_41102.cif
_audit_creation_date              2012-12-10T20:53:05-0500
_audit_creation_method            fapswitch 2.2
_symmetry_space_group_name_H-M    P1
_symmetry_Int_Tables_number       1
_space_group_crystal_system       triclinic
_cell_length_a                    18.354865
_cell_length_b                    18.354893
_cell_length_c                    18.35489
_cell_angle_alpha                 59.851288
_cell_angle_beta                  59.852233
_cell_angle_gamma                 59.85237
_cell_volume                      4357.91129652

loop_
_atom_site_label
_atom_site_type_symbol
_atom_type_description
_atom_site_fract_x
_atom_site_fract_y
_atom_site_fract_z
_atom_type_partial_charge
C1    C     C_R   0.389938 0.110142 0.110186 0.781061
C2    C     C_R   0.610062 0.889862 0.889810 0.781061
C3    C     C_R   0.110140 0.110189 0.389938 0.781083
C4    C     C_R   0.889860 0.889811 0.610062 0.781082
C5    C     C_R   0.110188 0.389938 0.110140 0.781107
C6    C     C_R   0.889811 0.610062 0.889861 0.781108
C7    C     C_R   0.215356 0.626489 0.192619 -0.145368
C8    C     C_R   0.784644 0.373511 0.807381 -0.145370
C9    C     C_R   0.626518 0.192586 0.215298 -0.145339
C10   C     C_R   0.373478 0.807417 0.784709 -0.145340
C11   C     C_R   0.192624 0.215357 0.626475 -0.145325
C12   C     C_R   0.807380 0.784643 0.373531 -0.145322
C13   C     C_R   0.174864 0.584306 0.283213 0.194747
C14   C     C_R   0.825136 0.415695 0.716787 0.194744
C15   C     C_R   0.584343 0.283186 0.174816 0.194780
C16   C     C_R   0.415652 0.716816 0.825188 0.194779
C17   C     C_R   0.283217 0.174862 0.584298 0.194763
C18   C     C_R   0.716785 0.825140 0.415702 0.194762
C19   C     C_R   0.086689 0.586040 0.313976 0.081841
C20   C     C_R   0.913312 0.413959 0.686024 0.081845
C21   C     C_R   0.586048 0.313965 0.086649 0.081839
C22   C     C_R   0.413951 0.686036 0.913354 0.081835
C23   C     C_R   0.313978 0.086684 0.586040 0.081818
C24   C     C_R   0.686023 0.913318 0.413960 0.081812
C25   C     C_R   0.040160 0.630794 0.253410 -0.169656
C26   C     C_R   0.959840 0.369205 0.746590 -0.169659
C27   C     C_R   0.630764 0.253409 0.040116 -0.169691
C28   C     C_R   0.369240 0.746591 0.959887 -0.169686
C29   C     C_R   0.253412 0.040155 0.630797 -0.169641
C30   C     C_R   0.746589 0.959846 0.369208 -0.169639
C31   C     C_R   0.081080 0.672870 0.163182 -0.114875
C32   C     C_R   0.918920 0.327130 0.836818 -0.114877
C33   C     C_R   0.672831 0.163174 0.081025 -0.114841
C34   C     C_R   0.327174 0.836826 0.918979 -0.114839
C35   C     C_R   0.163185 0.081078 0.672867 -0.114875
C36   C     C_R   0.836818 0.918922 0.327144 -0.114867
C37   C     C_R   0.168591 0.670662 0.132802 -0.158966
C38   C     C_R   0.831409 0.329338 0.867198 -0.158966
C39   C     C_R   0.670652 0.132778 0.168529 -0.158967
C40   C     C_R   0.329348 0.867224 0.831477 -0.158968
C41   C     C_R   0.132806 0.168592 0.670649 -0.158990
C42   C     C_R   0.867198 0.831408 0.329362 -0.158981
C43   C     C_R   0.987364 0.591284 0.464440 -0.239429
C44   C     C_R   0.012636 0.408716 0.535560 -0.239426
C45   C     C_R   0.591288 0.464435 0.987346 -0.239403
C46   C     C_R   0.408712 0.535565 0.012654 -0.239400
C47   C     C_R   0.464441 0.987359 0.591285 -0.239398
C48   C     C_R   0.535560 0.012641 0.408715 -0.239398
C49   C     C_R   0.944812 0.552355 0.555183 -0.032245
C50   C     C_R   0.055188 0.447645 0.444817 -0.032246
C51   C     C_R   0.552355 0.555184 0.944815 -0.032257
C52   C     C_R   0.447645 0.444816 0.055185 -0.032257
C53   C     C_R   0.555184 0.944812 0.552355 -0.032240
C54   C     C_R   0.444816 0.055188 0.447645 -0.032241
C55   C     C_R   0.957404 0.459816 0.591240 0.022407
C56   C     C_R   0.042597 0.540183 0.408760 0.022408
C57   C     C_R   0.459812 0.591245 0.957426 0.022383
C58   C     C_R   0.540188 0.408755 0.042575 0.022381
C59   C     C_R   0.591240 0.957408 0.459816 0.022397
C60   C     C_R   0.408761 0.042592 0.540184 0.022395
C61   C     C_R   0.110732 0.390451 0.389740 0.822234
C62   C     C_R   0.889268 0.609548 0.610259 0.822233
C63   C     C_R   0.390451 0.389740 0.110731 0.822216
C64   C     C_R   0.609549 0.610260 0.889269 0.822215
C65   C     C_R   0.389740 0.110733 0.390452 0.822247
C66   C     C_R   0.610260 0.889267 0.609548 0.822247
C67   C     C_R   0.928307 0.179334 0.396568 -0.145789
C68   C     C_R   0.071700 0.820660 0.603418 -0.145778
C69   C     C_R   0.179337 0.396591 0.928298 -0.145751
C70   C     C_R   0.820662 0.603410 0.071702 -0.145756
C71   C     C_R   0.396092 0.928484 0.179152 -0.145725
C72   C     C_R   0.603932 0.071505 0.820858 -0.145748
C73   C     C_R   0.840396 0.213514 0.398818 -0.127615
C74   C     C_R   0.159610 0.786479 0.601168 -0.127611
C75   C     C_R   0.213518 0.398846 0.840387 -0.127569
C76   C     C_R   0.786482 0.601154 0.159613 -0.127572
C77   C     C_R   0.398088 0.840669 0.213240 -0.127675
C78   C     C_R   0.601961 0.159302 0.786788 -0.127691
C79   C     C_R   0.786979 0.159784 0.451972 -0.141904
C80   C     C_R   0.213021 0.840213 0.548025 -0.141912
C81   C     C_R   0.159783 0.451989 0.786976 -0.141969
C82   C     C_R   0.840216 0.548009 0.213026 -0.141966
C83   C     C_R   0.451224 0.787263 0.159505 -0.142040
C84   C     C_R   0.548823 0.212710 0.840522 -0.142051
C85   C     C_R   0.821167 0.071632 0.503223 -0.162548
C86   C     C_R   0.178830 0.928369 0.496781 -0.162551
C87   C     C_R   0.071627 0.503227 0.821170 -0.162502
C88   C     C_R   0.928371 0.496770 0.178832 -0.162507
C89   C     C_R   0.502717 0.821363 0.071444 -0.162458
C90   C     C_R   0.497304 0.178628 0.928565 -0.162476
C91   C     C_R   0.910672 0.034957 0.501420 0.072634
C92   C     C_R   0.089327 0.965043 0.498581 0.072635
C93   C     C_R   0.034955 0.501423 0.910674 0.072671
C94   C     C_R   0.965044 0.498576 0.089328 0.072673
C95   C     C_R   0.501165 0.910776 0.034856 0.072659
C96   C     C_R   0.498842 0.089225 0.965144 0.072672
C97   C     C_R   0.965036 0.089558 0.447272 0.071333
C98   C     C_R   0.034966 0.910440 0.552723 0.071333
C99   C     C_R   0.089558 0.447281 0.965034 0.071325
C100  C     C_R   0.910440 0.552719 0.034967 0.071328
C101  C     C_R   0.447025 0.965134 0.089459 0.071343
C102  C     C_R   0.552983 0.034865 0.910541 0.071359
C103  C     C_R   0.946054 0.945859 0.553764 -0.153718
C104  C     C_R   0.053945 0.054141 0.446236 -0.153717
C105  C     C_R   0.945858 0.553763 0.946056 -0.153710
C106  C     C_R   0.054141 0.446237 0.053945 -0.153710
C107  C     C_R   0.553763 0.946058 0.945857 -0.153839
C108  C     C_R   0.446238 0.053946 0.054139 -0.153840
H1    H     H_    0.281472 0.813331 0.545990 0.153793
H2    H     H_    0.718526 0.186667 0.454009 0.153792
H3    H     H_    0.813334 0.545970 0.281477 0.153765
H4    H     H_    0.186665 0.454028 0.718524 0.153763
H5    H     H_    0.547001 0.281076 0.813724 0.153746
H6    H     H_    0.453067 0.718882 0.186318 0.153737
H7    H     H_    0.978977 0.661829 0.436617 0.171502
H8    H     H_    0.021025 0.338170 0.563383 0.171504
H9    H     H_    0.661836 0.436609 0.978944 0.171521
H10   H     H_    0.338163 0.563391 0.021056 0.171521
H11   H     H_    0.436619 0.978967 0.661830 0.171505
H12   H     H_    0.563381 0.021033 0.338169 0.171506
H13   H     H_    0.966589 0.224348 0.355228 0.129680
H14   H     H_    0.033419 0.775645 0.644752 0.129669
H15   H     H_    0.224353 0.355258 0.966577 0.129679
H16   H     H_    0.775647 0.644744 0.033421 0.129679
H17   H     H_    0.354770 0.966745 0.224182 0.129901
H18   H     H_    0.645255 0.033245 0.775826 0.129910
H19   H     H_    0.813471 0.282191 0.359551 0.148514
H20   H     H_    0.186540 0.717798 0.640426 0.148513
H21   H     H_    0.282199 0.359591 0.813454 0.148509
H22   H     H_    0.717803 0.640410 0.186544 0.148509
H23   H     H_    0.358644 0.813805 0.281853 0.148513
H24   H     H_    0.641426 0.186151 0.718189 0.148525
H25   H     H_    0.776375 0.033117 0.544542 0.130675
H26   H     H_    0.223618 0.966887 0.455469 0.130684
H27   H     H_    0.033110 0.544540 0.776381 0.130665
H28   H     H_    0.966888 0.455457 0.223621 0.130663
H29   H     H_    0.544030 0.776562 0.032942 0.130922
H30   H     H_    0.455991 0.223431 0.967065 0.130930
H31   H     H_    0.200181 0.703137 0.062840 0.142866
H32   H     H_    0.799819 0.296863 0.937160 0.142865
H33   H     H_    0.703120 0.062811 0.200111 0.142852
H34   H     H_    0.296881 0.937191 0.799896 0.142853
H35   H     H_    0.062844 0.200184 0.703119 0.142854
H36   H     H_    0.937161 0.799814 0.296897 0.142850
H37   H     H_    0.283210 0.624904 0.168535 0.150907
H38   H     H_    0.716789 0.375097 0.831466 0.150903
H39   H     H_    0.624954 0.168488 0.283146 0.150925
H40   H     H_    0.375039 0.831516 0.716861 0.150923
H41   H     H_    0.168539 0.283213 0.624884 0.150943
H42   H     H_    0.831466 0.716787 0.375123 0.150942
H43   H     H_    0.972582 0.632224 0.275994 0.133295
H44   H     H_    0.027419 0.367775 0.724006 0.133294
H45   H     H_    0.632167 0.276006 0.972545 0.133227
H46   H     H_    0.367841 0.723993 0.027457 0.133233
H47   H     H_    0.275996 0.972575 0.632232 0.133298
H48   H     H_    0.724004 0.027426 0.367774 0.133297
H49   H     H_    0.045019 0.706946 0.116737 0.141682
H50   H     H_    0.954981 0.293054 0.883263 0.141681
H51   H     H_    0.706876 0.116737 0.044962 0.141694
H52   H     H_    0.293133 0.883263 0.955042 0.141694
H53   H     H_    0.116740 0.045017 0.706944 0.141677
H54   H     H_    0.883262 0.954982 0.293071 0.141677
O1    O     O_3   0.250000 0.250000 0.250000 -0.490273
O2    O     O_3   0.750000 0.750000 0.750000 -0.490273
O3    O     O_R   0.305080 0.134200 0.134200 -0.639325
O4    O     O_R   0.694920 0.865800 0.865800 -0.639328
O5    O     O_R   0.134200 0.134200 0.305080 -0.639310
O6    O     O_R   0.865800 0.865800 0.694920 -0.639310
O7    O     O_R   0.134200 0.305080 0.134200 -0.639264
O8    O     O_R   0.865800 0.694920 0.865800 -0.639261
O9    O     O_R   0.134200 0.305090 0.426530 -0.636355
O10   O     O_R   0.865800 0.694910 0.573470 -0.636355
O11   O     O_R   0.305090 0.426530 0.134200 -0.636345
O12   O     O_R   0.694910 0.573470 0.865800 -0.636345
O13   O     O_R   0.426530 0.134200 0.305090 -0.636341
O14   O     O_R   0.573470 0.865800 0.694910 -0.636342
O15   O     O_R   0.134190 0.426530 0.134200 -0.640329
O16   O     O_R   0.865810 0.573470 0.865800 -0.640331
O17   O     O_R   0.426530 0.134200 0.134190 -0.640383
O18   O     O_R   0.573470 0.865800 0.865810 -0.640382
O19   O     O_R   0.134200 0.134190 0.426530 -0.640325
O20   O     O_R   0.865800 0.865810 0.573470 -0.640323
O21   O     O_R   0.426530 0.305080 0.134210 -0.635596
O22   O     O_R   0.573470 0.694920 0.865790 -0.635594
O23   O     O_R   0.305080 0.134210 0.426530 -0.635567
O24   O     O_R   0.694920 0.865790 0.573470 -0.635566
O25   O     O_R   0.134210 0.426530 0.305080 -0.635563
O26   O     O_R   0.865790 0.573470 0.694920 -0.635563
Zn1   Zn    Zn3+2 0.206620 0.206630 0.380140 0.984726
Zn2   Zn    Zn3+2 0.793380 0.793370 0.619860 0.984725
Zn3   Zn    Zn3+2 0.206630 0.380140 0.206620 0.984732
Zn4   Zn    Zn3+2 0.793370 0.619860 0.793380 0.984732
Zn5   Zn    Zn3+2 0.380140 0.206620 0.206630 0.984687
Zn6   Zn    Zn3+2 0.619860 0.793380 0.793370 0.984687
Zn7   Zn    Zn3+2 0.206620 0.206620 0.206620 0.956416
Zn8   Zn    Zn3+2 0.793380 0.793380 0.793380 0.956415
I1    I     I_    0.249359 0.519265 0.370312 -0.345830
I2    I     I_    0.750640 0.480736 0.629689 -0.345834
I3    I     I_    0.519351 0.370269 0.249318 -0.345732
I4    I     I_    0.480638 0.629736 0.750685 -0.345732
I5    I     I_    0.370319 0.249354 0.519256 -0.345687
I6    I     I_    0.629685 0.750648 0.480738 -0.345688

loop_
_geom_bond_atom_site_label_1
_geom_bond_atom_site_label_2
_ccdc_geom_bond_type
C19   C56   S    
C27   H45   S    
C7    C13   A    
C28   H46   S    
C25   C31   A    
C84   H5    S    
O15   Zn3   S    
C40   H34   S    
C95   C107  A    
C36   C42   A    
C43   C56   A    
C61   O25   A    
C16   C22   A    
C6    C105  S    
C22   C57   S    
C53   C59   A    
C85   H25   S    
C3    O5    A    
O7    Zn7   S    
C54   C65   S    
C54   C60   A    
C27   C33   A    
C26   C32   A    
C14   I2    S    
O9    Zn1   S    
C100  C105  A    
C35   H53   S    
C2    O18   A    
C48   C59   A    
C34   C40   A    
C23   C29   A    
O4    Zn8   S    
C41   H35   S    
C96   C102  A    
C8    C38   A    
O17   Zn5   S    
O22   Zn6   S    
O1    Zn5   S    
C68   C74   A    
C98   C103  A    
C4    C103  S    
C46   C52   A    
C2    C107  S    
C9    C39   A    
C15   I3    S    
C46   H10   S    
C10   C40   A    
C77   H23   S    
C78   H24   S    
C80   C86   A    
C43   H7    S    
C47   C60   A    
O19   Zn1   S    
C86   H26   S    
C74   H20   S    
C39   H33   S    
C4    O6    A    
C80   H1    S    
C12   C42   A    
O1    Zn1   S    
C69   C75   A    
C67   C73   A    
C32   C38   A    
C25   H43   S    
C93   C99   A    
O25   Zn3   S    
C16   I4    S    
C47   C53   A    
C93   C105  A    
C101  C108  A    
C47   H11   S    
C96   C108  A    
C28   C34   A    
C74   C80   A    
C6    O16   A    
C36   H54   S    
C83   H6    S    
C66   O14   A    
C10   H40   S    
C84   C90   A    
C20   C55   S    
O2    Zn2   S    
C67   H13   S    
C90   H30   S    
C70   C100  A    
C63   O11   A    
C88   C94   A    
C5    C106  S    
C37   H31   S    
C85   C91   A    
C23   C60   S    
C83   C89   A    
C65   O23   A    
C45   C58   A    
C63   O21   A    
C13   C19   A    
C92   C98   A    
C14   C20   A    
C88   H28   S    
C18   C24   A    
C48   H12   S    
C76   C82   A    
C3    C104  S    
C92   C104  A    
O8    Zn8   S    
C75   C81   A    
O10   Zn2   S    
C73   H19   S    
O11   Zn3   S    
C77   C83   A    
C50   C56   A    
C31   C37   A    
C72   H18   S    
C89   C95   A    
O3    Zn7   S    
C48   C54   A    
C1    O17   A    
C12   H42   S    
O16   Zn4   S    
C94   C100  A    
C13   I1    S    
C72   C102  A    
C17   C23   A    
C81   H4    S    
O1    Zn7   S    
C49   C55   A    
C70   H16   S    
C68   H14   S    
C7    C37   A    
C102  C107  A    
C18   I6    S    
C33   C39   A    
C91   C97   A    
C17   I5    S    
C53   C66   S    
C3    O19   A    
C5    O15   A    
C31   H49   S    
C35   C41   A    
C52   C58   A    
O23   Zn1   S    
C61   O9    A    
C69   C99   A    
C89   H29   S    
C66   O24   A    
C69   H15   S    
C42   H36   S    
C8    C14   A    
C24   C30   A    
C12   C18   A    
C86   C92   A    
C71   C77   A    
O18   Zn6   S    
C87   H27   S    
C62   O26   A    
C6    O8    A    
C45   H9    S    
C8    H38   S    
C99   C106  A    
C2    O4    A    
C11   C17   A    
C5    O7    A    
C49   C62   S    
C79   H2    S    
C1    O3    A    
O5    Zn7   S    
C43   C49   A    
C51   C64   S    
C91   C103  A    
C73   C79   A    
C52   C63   S    
C71   C101  A    
O1    Zn3   S    
O2    Zn8   S    
C90   C96   A    
C30   C36   A    
C38   H32   S    
C62   O10   A    
C29   C35   A    
C95   C101  A    
C29   H47   S    
O26   Zn4   S    
C4    O20   A    
C82   H3    S    
C26   H44   S    
C9    C15   A    
C21   C58   S    
C46   C57   A    
C10   C16   A    
C70   C76   A    
C81   C87   A    
C44   C55   A    
C20   C26   A    
C24   C59   S    
C82   C88   A    
C87   C93   A    
C30   H48   S    
O21   Zn5   S    
C79   C85   A    
C9    H39   S    
C11   C41   A    
O2    Zn6   S    
C21   C27   A    
C19   C25   A    
C68   C98   A    
C78   C84   A    
C97   C104  A    
C94   C106  A    
C67   C97   A    
C1    C108  S    
C64   O22   A    
C32   H50   S    
C75   H21   S    
C51   C57   A    
C15   C21   A    
C44   H8    S    
C44   C50   A    
C11   H41   S    
O6    Zn8   S    
C72   C78   A    
C50   C61   S    
C45   C51   A    
C71   H17   S    
C22   C28   A    
O24   Zn2   S    
O20   Zn2   S    
O14   Zn6   S    
O2    Zn4   S    
C64   O12   A    
O13   Zn5   S    
C65   O13   A    
C76   H22   S    
C33   H51   S    
O12   Zn4   S    
C7    H37   S    
C34   H52   S    
