data_mof_unit_34487.cif
_audit_creation_date              2013-03-05T16:41:26-0500
_audit_creation_method            fapswitch 2.2
_symmetry_space_group_name_H-M    P1
_symmetry_Int_Tables_number       1
_space_group_crystal_system       triclinic
_cell_length_a                    10.722744
_cell_length_b                    10.619859
_cell_length_c                    9.930183
_cell_angle_alpha                 89.091361
_cell_angle_beta                  103.616707
_cell_angle_gamma                 91.095185
_cell_volume                      1098.73031965

loop_
_atom_site_label
_atom_site_type_symbol
_atom_site_description
_atom_site_fract_x
_atom_site_fract_y
_atom_site_fract_z
_atom_type_partial_charge
O1    O     O_R   0.500020 0.316790 0.614700 -0.575914
O2    O     O_R   0.500000 0.316760 0.385350 -0.633919
C1    C     C_R   0.499757 0.260585 0.500761 0.886264
O3    O     O_R   0.317820 0.500020 0.571850 -0.572166
O4    O     O_R   0.317800 0.499980 0.342510 -0.563913
C2    C     C_R   0.258982 0.504406 0.442053 0.943098
Zn1   Zn    Zn3+2 0.500010 0.500020 0.653140 1.045009
Zn2   Zn    Zn3+2 0.499990 0.499980 0.346860 1.056613
O5    O     O_R   0.500000 0.683240 0.614650 -0.645894
O6    O     O_R   0.499980 0.683210 0.385300 -0.561292
O7    O     O_R   0.682200 0.500020 0.657490 -0.574777
O8    O     O_R   0.682180 0.499980 0.428150 -0.615357
C3    C     C_R   0.501093 0.739409 0.499041 0.885510
C4    C     C_R   0.741484 0.505096 0.557806 0.830574
H1    H     H_    0.876080 0.567170 0.379663 0.207273
H2    H     H_    0.128546 0.607972 0.599553 0.249217
C5    C     C_2   0.121968 0.520913 0.408742 -0.311057
C6    C     C_2   0.069565 0.571731 0.503601 -0.074089
C7    C     C_2   0.878717 0.531016 0.590839 0.168000
C8    C     C_2   0.932637 0.563445 0.485916 -0.187725
H3    H     H_    0.063941 0.487453 0.310440 0.203122
C9    C     C_R   0.606451 0.065096 0.575973 -0.025225
C10   C     C_R   0.500351 0.128712 0.499955 -0.033549
C11   C     C_R   0.405746 0.064863 0.402245 -0.184052
H4    H     H_    0.328497 0.115028 0.333613 0.191162
C12   C     C_R   0.407251 0.934570 0.399632 -0.120675
H5    H     H_    0.330477 0.883559 0.330109 0.176897
C13   C     C_R   0.503779 0.871289 0.494358 -0.063250
C14   C     C_R   0.608728 0.936997 0.571826 0.037106
C15   C     C_3   0.681494 0.925828 0.719685 0.017679
C16   C     C_3   0.679683 0.069765 0.724293 0.268037
H6    H     H_    0.627159 0.876185 0.787588 0.148354
H7    H     H_    0.774297 0.119126 0.734813 0.140484
C17   C     C_R   0.479283 0.391227 0.067456 -0.024170
N1    N     N_R   0.499160 0.499140 0.142600 -0.126014
C18   C     C_R   0.535726 0.604981 0.077735 0.367526
C19   C     C_R   0.533274 0.604748 0.933897 -0.093411
H8    H     H_    0.559946 0.689142 0.884790 0.162671
N2    N     N_R   0.499160 0.499180 0.856960 -0.097579
C20   C     C_R   0.480057 0.390930 0.926230 0.075476
C21   C     C_3   0.369420 0.298503 0.893909 0.038782
C22   C     C_3   0.369419 0.298700 0.048713 0.024013
H9    H     H_    0.396213 0.206010 0.859321 0.165883
H10   H     H_    0.398467 0.206954 0.101300 0.111779
N3    N     N_R   0.580464 0.716412 0.153777 0.216762
O9    O     O_R   0.532736 0.824779 0.107299 -0.399478
O10   O     O_R   0.688081 0.714020 0.247294 -0.371822
N4    N     N_R   0.253689 0.348999 0.801702 0.275531
O11   O     O_R   0.226271 0.467523 0.803607 -0.303104
O12   O     O_R   0.181737 0.276324 0.709834 -0.352147
N5    N     N_R   0.252685 0.347951 0.080441 0.278481
O13   O     O_R   0.176653 0.271403 0.127881 -0.376199
O14   O     O_R   0.225199 0.467034 0.066476 -0.275574
N6    N     N_R   0.950414 0.525982 0.732752 0.254010
O15   O     O_R   0.930930 0.432998 0.812619 -0.322265
O16   O     O_R   0.013820 0.625141 0.788645 -0.252363
N7    N     N_R   0.811350 0.878463 0.735014 0.215077
O17   O     O_R   0.848416 0.833570 0.629811 -0.347694
O18   O     O_R   0.890118 0.877975 0.856616 -0.317853
O19   O     O_3   0.603357 0.112956 0.811520 -0.611492
C23   C     C_3   0.680666 0.126406 0.946758 -0.198906
H11   H     H_    0.750956 0.205464 0.950718 0.191364
H12   H     H_    0.731040 0.037690 0.985870 0.210507
H13   H     H_    0.618425 0.148874 0.017546 0.170663

loop_
_geom_bond_atom_site_label_1
_geom_bond_atom_site_label_2
_geom_bond_distance
_ccdc_geom_bond_type
C16   O19   1.411107 S    
O4    Zn2   1.943861 S    
C15   H6    1.110861 S    
C10   C11   1.400501 A    
C16   H7    1.116452 S    
C3    C13   1.400551 S    
C19   H8    1.079288 S    
C9    C14   1.362532 A    
C23   H13   1.108496 S    
C21   C22   1.537268 S    
C22   N5    1.468180 S    
C1    C10   1.400768 S    
N1    C18   1.382441 A    
C17   C22   1.498755 S    
C15   C16   1.530628 S    
Zn2   O8    1.930169 S    
N4    O12   1.300510 A    
C5    C6    1.330876 D    
N7    O17   1.301983 A    
C18   N3    1.427166 S    
C19   N2    1.361729 A    
H2    C6    1.083776 S    
O1    Zn1   1.988901 S    
N3    O9    1.301468 A    
Zn1   O7    1.943860 S    
C21   H9    1.110545 S    
C12   H5    1.083974 S    
C14   C15   1.495750 S    
C22   H10   1.112610 S    
C18   C19   1.422415 A    
O19   C23   1.410122 S    
O3    Zn1   1.930169 S    
C17   C20   1.404430 A    
O4    C2    1.293533 A    
C7    N6    1.438356 S    
O3    C2    1.295311 A    
C20   C21   1.503344 S    
C21   N4    1.463137 S    
C11   C12   1.384822 A    
O2    C1    1.284136 A    
C6    C8    1.438222 S    
N3    O10   1.300160 A    
C23   H11   1.112399 S    
O7    C4    1.296203 A    
N6    O16   1.301045 A    
N7    O18   1.300491 A    
C9    C16   1.498199 S    
N5    O13   1.300312 A    
C15   N7    1.462727 S    
C11   H4    1.083498 S    
Zn2   O6    1.988900 S    
C17   N1    1.363266 A    
N4    O11   1.299481 A    
N2    C20   1.367103 A    
Zn1   O5    1.976994 S    
C2    C5    1.441440 S    
Zn1   N2    2.026013 S    
N6    O15   1.301177 A    
C13   C14   1.387263 A    
O5    C3    1.287729 A    
N5    O14   1.301867 A    
C9    C10   1.389032 A    
C12   C13   1.398531 A    
C4    C7    1.452184 S    
O6    C3    1.283279 A    
C23   H12   1.113252 S    
O2    Zn2   1.976997 S    
C7    C8    1.342790 D    
O8    C4    1.296303 A    
H1    C8    1.086693 S    
O1    C1    1.286966 A    
Zn2   N1    2.026422 S    
C5    H3    1.087595 S    
