data_mof_unit_52079.cif
_audit_creation_date              2012-12-11T15:24:33-0500
_audit_creation_method            fapswitch 2.2
_symmetry_space_group_name_H-M    P1
_symmetry_Int_Tables_number       1
_space_group_crystal_system       triclinic
_cell_length_a                    23.072597
_cell_length_b                    6.961859
_cell_length_c                    20.642342
_cell_angle_alpha                 89.98722
_cell_angle_beta                  93.157249
_cell_angle_gamma                 90.104061
_cell_volume                      3310.70323346

loop_
_atom_site_label
_atom_site_type_symbol
_atom_type_description
_atom_site_fract_x
_atom_site_fract_y
_atom_site_fract_z
_atom_type_partial_charge
O1    O     O_R   0.188030 0.379840 0.189340 -0.543534
O2    O     O_R   0.811970 0.620160 0.810660 -0.542778
O3    O     O_R   0.311970 0.879840 0.310660 -0.542614
O4    O     O_R   0.688030 0.120160 0.689340 -0.542971
O5    O     O_R   0.307090 0.708420 0.185790 -0.537651
O6    O     O_R   0.692910 0.291580 0.814210 -0.536879
O7    O     O_R   0.192910 0.208420 0.314210 -0.537219
O8    O     O_R   0.807090 0.791580 0.685790 -0.536924
C1    C     C_R   0.326750 0.541300 0.170778 0.733966
C2    C     C_R   0.673189 0.458679 0.829132 0.734104
C3    C     C_R   0.173247 0.041012 0.329193 0.732898
C4    C     C_R   0.826798 0.958975 0.670875 0.734793
O9    O     O_R   0.188180 0.709480 0.181650 -0.536382
O10   O     O_R   0.811820 0.290520 0.818350 -0.537506
O11   O     O_R   0.311820 0.209480 0.318350 -0.536722
O12   O     O_R   0.688180 0.790520 0.681650 -0.536023
O13   O     O_R   0.192210 0.880960 0.306500 -0.535840
O14   O     O_R   0.807790 0.119040 0.693500 -0.535188
O15   O     O_R   0.307790 0.380960 0.193500 -0.533773
O16   O     O_R   0.692210 0.619040 0.806500 -0.535111
C5    C     C_R   0.166855 0.541422 0.166729 0.712017
C6    C     C_R   0.833096 0.458685 0.833292 0.712850
C7    C     C_R   0.333090 0.041600 0.333347 0.714797
C8    C     C_R   0.666831 0.958397 0.666772 0.714285
O17   O     O_3   0.251460 0.546730 0.290970 -0.371246
O18   O     O_3   0.748540 0.453270 0.709030 -0.370414
O19   O     O_3   0.248540 0.046730 0.209030 -0.370959
O20   O     O_3   0.751460 0.953270 0.790970 -0.371450
V1    V     V_3+5 0.249730 0.821120 0.242400 1.393603
V2    V     V_3+5 0.750270 0.178880 0.757600 1.390951
V3    V     V_3+5 0.250270 0.321120 0.257600 1.394324
V4    V     V_3+5 0.749730 0.678880 0.742400 1.393565
C9    C     C_R   0.569748 0.833925 0.619596 0.261439
C10   C     C_R   0.429971 0.166617 0.380862 0.261467
C11   C     C_R   0.930520 0.337414 0.879711 0.253552
C12   C     C_R   0.070153 0.666767 0.119305 0.260669
C13   C     C_R   0.616750 0.965676 0.618376 -0.161352
C14   C     C_R   0.383057 0.034493 0.381909 -0.161278
C15   C     C_R   0.883270 0.466974 0.881523 -0.147798
C16   C     C_R   0.116780 0.534192 0.118290 -0.157876
C17   C     C_R   0.616604 0.106424 0.569913 -0.268321
C18   C     C_R   0.383130 0.893932 0.430440 -0.269647
C19   C     C_R   0.883436 0.607946 0.929894 -0.271653
C20   C     C_R   0.116461 0.394012 0.069707 -0.269464
C21   C     C_R   0.570907 0.120610 0.522224 0.074079
C22   C     C_R   0.428749 0.880032 0.478256 0.074430
C23   C     C_R   0.930098 0.628106 0.976373 0.031561
C24   C     C_R   0.070954 0.381371 0.021702 0.074638
C25   C     C_R   0.523435 0.992203 0.523691 -0.047861
C26   C     C_R   0.476221 0.008444 0.476810 -0.047772
C27   C     C_R   0.976913 0.496740 0.975628 -0.033931
C28   C     C_R   0.023889 0.511141 0.022834 -0.050722
C29   C     C_R   0.522790 0.848870 0.572372 0.051321
C30   C     C_R   0.476868 0.151815 0.428148 0.051608
C31   C     C_R   0.977293 0.352363 0.927132 0.057491
C32   C     C_R   0.023391 0.653503 0.071655 0.032262
C33   C     C_R   0.571485 0.262436 0.473406 0.270846
C34   C     C_R   0.428113 0.738465 0.527164 0.272633
C35   C     C_R   0.930503 0.775762 0.023840 0.283398
C36   C     C_R   0.071444 0.240097 0.972775 0.271726
C37   C     C_R   0.525133 0.275377 0.426918 -0.239502
C38   C     C_R   0.474469 0.725547 0.573671 -0.243139
C39   C     C_R   0.975930 0.779846 0.072344 -0.202593
C40   C     C_R   0.025332 0.228423 0.926010 -0.241258
C41   C     C_3   0.046756 0.094505 0.530350 -0.200634
C42   C     C_3   0.955228 0.905809 0.471965 -0.234985
C43   C     C_3   0.450191 0.566337 0.966425 -0.218121
C44   C     C_3   0.547589 0.434593 0.031028 -0.241206
C45   C     C_3   0.020660 0.901662 0.554625 -0.195080
C46   C     C_3   0.981115 0.098590 0.447906 -0.232117
C47   C     C_3   0.482220 0.375513 0.950719 -0.210226
C48   C     C_3   0.515800 0.625154 0.046470 -0.230397
C49   C     C_1   0.872484 0.966624 0.625466 -0.203512
C50   C     C_1   0.127923 0.033301 0.375065 -0.203643
C51   C     C_1   0.627496 0.465471 0.874571 -0.200843
C52   C     C_1   0.372029 0.534424 0.124810 -0.199984
C53   C     C_3   0.984389 0.171517 0.518590 0.378743
C54   C     C_3   0.017544 0.828720 0.483930 0.379376
C55   C     C_3   0.509768 0.667826 0.973003 0.361785
C56   C     C_3   0.488115 0.332930 0.024123 0.374107
C57   C     C_3   0.958513 0.983346 0.542386 0.067023
C58   C     C_3   0.043188 0.016865 0.459805 0.066378
C59   C     C_3   0.541415 0.481660 0.957627 0.079459
C60   C     C_3   0.456689 0.518949 0.039896 0.100824
C61   C     C_1   0.911107 0.972484 0.587869 -0.043938
C62   C     C_1   0.089786 0.027497 0.413281 -0.045920
C63   C     C_1   0.588863 0.470633 0.912179 -0.035096
C64   C     C_1   0.410118 0.529386 0.086506 -0.028755
N1    N     N_2   0.567359 0.695441 0.670455 -0.544253
H1    H     H_    0.584481 0.740031 0.715147 0.247744
C65   C     C_3   0.584985 0.503214 0.653518 -0.486084
H2    H     H_    0.631329 0.500984 0.641849 0.218684
H3    H     H_    0.558418 0.449102 0.610968 0.197195
H4    H     H_    0.578930 0.404821 0.694958 0.175915
N2    N     N_2   0.432314 0.305586 0.330151 -0.538804
H5    H     H_    0.415290 0.261294 0.285388 0.255511
C66   C     C_3   0.414518 0.497464 0.347282 -0.482379
H6    H     H_    0.368177 0.499095 0.358978 0.216547
H7    H     H_    0.420470 0.596311 0.305940 0.180622
H8    H     H_    0.441055 0.551432 0.389873 0.196283
N3    N     N_2   0.933674 0.203457 0.827542 -0.538343
H9    H     H_    0.916717 0.251544 0.783215 0.248270
C67   C     C_3   0.916643 0.008347 0.841888 -0.514716
H10   H     H_    0.870137 0.001659 0.852662 0.210340
H11   H     H_    0.942968 0.950824 0.884015 0.191791
H12   H     H_    0.923595 0.915088 0.799391 0.182749
N4    N     N_2   0.068147 0.805537 0.170119 -0.544976
H13   H     H_    0.084817 0.760438 0.214921 0.251033
C68   C     C_3   0.086622 0.997264 0.153315 -0.485930
H14   H     H_    0.133022 0.998268 0.141910 0.219191
H15   H     H_    0.080713 0.095856 0.194699 0.177944
H16   H     H_    0.060540 0.052251 0.110598 0.196078
H17   H     H_    0.652930 0.205138 0.569579 0.175516
H18   H     H_    0.346823 0.795132 0.430716 0.174710
H19   H     H_    0.845825 0.700114 0.931181 0.149307
H20   H     H_    0.152541 0.294727 0.069470 0.174695
N5    N     N_2   0.618374 0.395017 0.471008 -0.528598
H21   H     H_    0.605598 0.531431 0.456896 0.259955
C69   C     C_3   0.666256 0.326506 0.435040 -0.566405
H22   H     H_    0.702241 0.432711 0.438830 0.198525
H23   H     H_    0.652264 0.307696 0.383030 0.197393
H24   H     H_    0.682706 0.187530 0.455034 0.205067
N6    N     N_2   0.381175 0.606078 0.529617 -0.527292
H25   H     H_    0.393875 0.469797 0.543969 0.259162
C70   C     C_3   0.333192 0.675229 0.565299 -0.576517
H26   H     H_    0.297178 0.569123 0.561519 0.197176
H27   H     H_    0.316835 0.814016 0.545056 0.205016
H28   H     H_    0.347036 0.694633 0.617325 0.195026
N7    N     N_2   0.885909 0.920164 0.021069 -0.519497
H29   H     H_    0.875346 0.971788 0.975173 0.252714
C71   C     C_3   0.885770 0.070187 0.069676 -0.547203
H30   H     H_    0.882871 0.006786 0.118766 0.203012
H31   H     H_    0.847170 0.163241 0.060263 0.201285
H32   H     H_    0.925294 0.160999 0.067398 0.196333
N8    N     N_2   0.117986 0.106649 0.970573 -0.527182
H33   H     H_    0.104898 0.970569 0.956269 0.259623
C72   C     C_3   0.166282 0.174516 0.935014 -0.576416
H34   H     H_    0.201960 0.067631 0.938979 0.197445
H35   H     H_    0.183012 0.313054 0.955228 0.205038
H36   H     H_    0.152635 0.193925 0.882939 0.194961
H37   H     H_    0.527917 0.382473 0.389221 0.166420
H38   H     H_    0.471661 0.618608 0.611415 0.164437
H39   H     H_    0.974820 0.884561 0.110669 0.170027
H40   H     H_    0.028159 0.121817 0.888217 0.165076
H41   H     H_    0.036912 0.819552 0.597959 0.117764
H42   H     H_    0.964992 0.183225 0.405057 0.131674
H43   H     H_    0.468071 0.271985 0.912222 0.134944
H44   H     H_    0.529570 0.728575 0.085218 0.128132
H45   H     H_    0.083889 0.173669 0.554164 0.116420
H46   H     H_    0.918480 0.824560 0.448192 0.130484
H47   H     H_    0.410554 0.623507 0.940338 0.117228
H48   H     H_    0.586882 0.376371 0.057532 0.129003
N9    N     N_2   0.034915 0.639755 0.463208 -0.482579
H49   H     H_    0.026086 0.616276 0.414352 0.247934
C73   C     C_3   0.092615 0.580539 0.485605 -0.517875
H50   H     H_    0.100884 0.433070 0.468030 0.199797
H51   H     H_    0.096711 0.579485 0.539428 0.191758
H52   H     H_    0.125790 0.677985 0.466582 0.184560
N10   N     N_2   0.964729 0.360500 0.536583 -0.480820
H53   H     H_    0.922359 0.387298 0.520763 0.249411
C74   C     C_3   0.977613 0.414811 0.603440 -0.520575
H54   H     H_    0.961432 0.562361 0.611550 0.197099
H55   H     H_    0.025191 0.413344 0.614806 0.191783
H56   H     H_    0.955982 0.315951 0.636739 0.185067
N11   N     N_2   0.476812 0.150054 0.054216 -0.512377
H57   H     H_    0.511245 0.056593 0.053274 0.262571
C75   C     C_3   0.421448 0.062882 0.035581 -0.515550
H58   H     H_    0.414825 0.935000 0.066323 0.202597
H59   H     H_    0.420306 0.017518 0.983973 0.204798
H60   H     H_    0.385362 0.164463 0.042661 0.196619
N12   N     N_2   0.523226 0.852434 0.945134 -0.525853
H61   H     H_    0.565063 0.897074 0.957194 0.254518
C76   C     C_3   0.506714 0.874523 0.876940 -0.560979
H62   H     H_    0.520052 0.018793 0.860293 0.192864
H63   H     H_    0.458911 0.861493 0.868782 0.195688
H64   H     H_    0.528387 0.764970 0.847654 0.201509

loop_
_geom_bond_atom_site_label_1
_geom_bond_atom_site_label_2
_ccdc_geom_bond_type
C34   C38   A    
C59   C63   S    
N12   H61   S    
C44   C56   S    
N11   H57   S    
C73   H51   S    
C45   H41   S    
O3    C7    A    
N2    H5    S    
C56   C60   S    
C71   H32   S    
O15   V3    S    
C74   H56   S    
C66   H6    S    
N6    H25   S    
C75   H59   S    
C76   H62   S    
O1    C5    A    
C72   H35   S    
C21   C33   A    
C34   N6    S    
C26   C30   A    
C12   C32   A    
C46   C53   S    
O9    V1    S    
C38   H38   S    
C14   C18   A    
C48   C55   S    
C68   H15   S    
C11   C15   A    
O4    C8    A    
C25   C29   A    
N6    C70   S    
O19   V1    S    
O1    V3    S    
O13   V1    S    
O2    V4    S    
C18   C22   A    
C55   N12   S    
O3    V1    S    
C12   C16   A    
C67   H10   S    
C66   H7    S    
C1    O15   A    
C35   N7    S    
C2    O16   A    
O2    C6    A    
C70   H28   S    
N4    H13   S    
N10   C74   S    
C24   C36   A    
C46   H42   S    
C1    C52   S    
C21   C25   A    
N9    C73   S    
N8    H33   S    
C52   C64   T    
C16   C20   A    
O5    V1    S    
C44   C48   S    
C19   H19   S    
O11   C7    A    
C43   C60   S    
O12   C8    A    
C4    C49   S    
C22   C34   A    
C12   N4    S    
O17   V1    S    
N4    C68   S    
C45   C54   S    
O10   V2    S    
C47   C56   S    
C74   H55   S    
C18   H18   S    
C74   H54   S    
C75   H60   S    
C47   C59   S    
C76   H63   S    
C9    C29   A    
C42   C54   S    
C72   H36   S    
C41   C53   S    
C11   C31   A    
C27   C28   A    
O8    V4    S    
N3    H9    S    
O20   V4    S    
O7    V3    S    
C10   N2    S    
C68   H16   S    
C65   H2    S    
O18   V4    S    
C23   C27   A    
C40   H40   S    
C27   C31   A    
C71   H31   S    
C58   C62   S    
C43   H47   S    
C9    C13   A    
O7    C3    A    
O5    C1    A    
C44   H48   S    
C9    N1    S    
C65   H3    S    
N12   C76   S    
C2    C51   S    
C54   C58   S    
N10   H53   S    
C53   C57   S    
O8    C4    A    
C31   C40   A    
C8    C13   S    
C32   C39   A    
O9    C5    A    
C67   H11   S    
C50   C62   T    
C33   C37   A    
C36   N8    S    
C49   C61   T    
C47   H43   S    
C48   C60   S    
C69   H23   S    
C53   N10   S    
O14   V2    S    
C37   H37   S    
O6    V2    S    
C10   C30   A    
O19   V3    S    
C70   H26   S    
N1    C65   S    
C71   H30   S    
C56   N11   S    
C75   H58   S    
C66   H8    S    
C33   N5    S    
N7    H29   S    
O16   V4    S    
C76   H64   S    
C51   C63   T    
N8    C72   S    
C3    O13   A    
C39   H39   S    
C42   H46   S    
C10   C14   A    
C44   C59   S    
O17   V3    S    
C60   C64   S    
C17   H17   S    
C11   N3    S    
C3    C50   S    
C65   H4    S    
O6    C2    A    
C15   C19   A    
C69   H22   S    
N2    C66   S    
C54   N9    S    
O11   V3    S    
C30   C37   A    
O12   V4    S    
C7    C14   S    
C72   H34   S    
C22   C26   A    
C35   C39   A    
N3    C67   S    
C36   C40   A    
O10   C6    A    
N5    C69   S    
N9    H49   S    
C48   H44   S    
C68   H14   S    
C42   C57   S    
C55   C59   S    
C41   C58   S    
C42   C46   S    
C5    C16   S    
C41   C45   S    
C6    C15   S    
O20   V2    S    
C69   H24   S    
C67   H12   S    
C43   C47   S    
C13   C17   A    
C46   C58   S    
C57   C61   S    
C45   C57   S    
C23   C35   A    
C28   C32   A    
C24   C28   A    
C20   H20   S    
C29   C38   A    
N11   C75   S    
C25   C26   A    
C4    O14   A    
C73   H50   S    
C70   H27   S    
C41   H45   S    
C17   C21   A    
N7    C71   S    
N1    H1    S    
N5    H21   S    
C19   C23   A    
C43   C55   S    
O4    V2    S    
C20   C24   A    
C73   H52   S    
O18   V2    S    
