data_mof_unit_12119.cif
_audit_creation_date              2013-03-05T15:51:38-0500
_audit_creation_method            fapswitch 2.2
_symmetry_space_group_name_H-M    P1
_symmetry_Int_Tables_number       1
_space_group_crystal_system       triclinic
_cell_length_a                    31.633354
_cell_length_b                    18.335369
_cell_length_c                    25.676179
_cell_angle_alpha                 90.06352
_cell_angle_beta                  144.597196
_cell_angle_gamma                 89.950424
_cell_volume                      8627.48756325

loop_
_atom_site_label
_atom_site_type_symbol
_atom_site_description
_atom_site_fract_x
_atom_site_fract_y
_atom_site_fract_z
_atom_type_partial_charge
Zn1   Zn    Zn3+2 0.000000 0.086750 0.293940 0.960334
Zn2   Zn    Zn3+2 1.000000 0.913250 0.706060 0.968120
Zn3   Zn    Zn3+2 1.000000 0.086750 0.706060 0.969500
Zn4   Zn    Zn3+2 0.000000 0.913250 0.293940 0.964325
Zn5   Zn    Zn3+2 0.500000 0.586750 0.293940 0.970428
Zn6   Zn    Zn3+2 0.500000 0.413250 0.706060 0.963486
Zn7   Zn    Zn3+2 0.500000 0.586750 0.706060 0.961420
Zn8   Zn    Zn3+2 0.500000 0.413250 0.293940 0.966746
Zn9   Zn    Zn3+2 0.913220 0.000000 0.119290 0.991095
Zn10  Zn    Zn3+2 0.086780 0.000000 0.880710 0.987079
Zn11  Zn    Zn3+2 0.413220 0.500000 0.119290 0.987107
Zn12  Zn    Zn3+2 0.586780 0.500000 0.880710 0.991069
Zn13  Zn    Zn3+2 0.086730 0.000000 0.292800 0.968593
Zn14  Zn    Zn3+2 0.913270 0.000000 0.707200 0.982096
Zn15  Zn    Zn3+2 0.586730 0.500000 0.292800 0.982159
Zn16  Zn    Zn3+2 0.413270 0.500000 0.707200 0.968605
O1    O     O_3   0.999990 0.000000 0.249990 -0.497604
O2    O     O_3   0.000010 0.000000 0.750010 -0.500287
O3    O     O_3   0.499990 0.500000 0.249990 -0.500229
O4    O     O_3   0.500010 0.500000 0.750010 -0.497637
O5    O     O_R   0.914560 0.853840 0.195310 -0.636439
O6    O     O_R   0.085440 0.146160 0.804690 -0.643465
O7    O     O_R   0.085440 0.853840 0.804690 -0.634423
O8    O     O_R   0.914560 0.146160 0.195310 -0.636435
O9    O     O_R   0.414560 0.353840 0.195310 -0.644023
O10   O     O_R   0.585440 0.646160 0.804690 -0.636966
O11   O     O_R   0.585440 0.353840 0.804690 -0.635870
O12   O     O_R   0.414560 0.646160 0.195310 -0.634308
O13   O     O_R   0.085440 0.146150 0.366190 -0.633917
O14   O     O_R   0.914560 0.853850 0.633810 -0.635516
O15   O     O_R   0.914560 0.146150 0.633810 -0.632408
O16   O     O_R   0.085440 0.853850 0.366190 -0.632368
O17   O     O_R   0.585440 0.646150 0.366190 -0.635329
O18   O     O_R   0.414560 0.353850 0.633810 -0.633549
O19   O     O_R   0.414560 0.646150 0.633810 -0.632580
O20   O     O_R   0.585440 0.353850 0.366190 -0.632454
O21   O     O_R   0.853820 0.085430 0.073070 -0.635898
O22   O     O_R   0.146180 0.914570 0.926930 -0.631612
O23   O     O_R   0.146180 0.085430 0.926930 -0.627013
O24   O     O_R   0.853820 0.914570 0.073070 -0.630939
O25   O     O_R   0.353820 0.585430 0.073070 -0.631536
O26   O     O_R   0.646180 0.414570 0.926930 -0.636110
O27   O     O_R   0.646180 0.585430 0.926930 -0.630754
O28   O     O_R   0.353820 0.414570 0.073070 -0.626819
O29   O     O_R   0.146150 0.914540 0.365390 -0.631849
O30   O     O_R   0.853850 0.085460 0.634610 -0.629908
O31   O     O_R   0.853850 0.914540 0.634610 -0.627518
O32   O     O_R   0.146150 0.085460 0.365390 -0.630824
O33   O     O_R   0.646150 0.414540 0.365390 -0.629962
O34   O     O_R   0.353850 0.585460 0.634610 -0.631798
O35   O     O_R   0.353850 0.414540 0.634610 -0.630973
O36   O     O_R   0.646150 0.585460 0.365390 -0.627528
O37   O     O_R   0.939240 0.000000 0.071950 -0.609867
O38   O     O_R   0.060760 0.000000 0.928050 -0.629386
O39   O     O_R   0.439240 0.500000 0.071950 -0.629342
O40   O     O_R   0.560760 0.500000 0.928050 -0.609863
O41   O     O_R   0.000020 0.939290 0.367320 -0.637669
O42   O     O_R   0.999980 0.060710 0.632680 -0.637548
O43   O     O_R   0.999980 0.939290 0.632680 -0.641385
O44   O     O_R   0.000020 0.060710 0.367320 -0.647678
O45   O     O_R   0.500020 0.439290 0.367320 -0.645301
O46   O     O_R   0.499980 0.560710 0.632680 -0.645688
O47   O     O_R   0.499980 0.439290 0.632680 -0.639603
O48   O     O_R   0.500020 0.560710 0.367320 -0.633834
O49   O     O_R   0.060680 0.000000 0.193390 -0.645900
O50   O     O_R   0.939320 0.000000 0.806610 -0.626812
O51   O     O_R   0.560680 0.500000 0.193390 -0.626832
O52   O     O_R   0.439320 0.500000 0.806610 -0.645887
C1    C     C_R   0.860330 0.859920 0.109809 0.778675
C2    C     C_R   0.139656 0.140099 0.890208 0.786089
C3    C     C_R   0.140035 0.860292 0.889989 0.781073
C4    C     C_R   0.860421 0.140225 0.109659 0.779990
C5    C     C_R   0.360349 0.359893 0.109788 0.786365
C6    C     C_R   0.639666 0.640087 0.890194 0.778998
C7    C     C_R   0.639581 0.359781 0.890338 0.779607
C8    C     C_R   0.359965 0.639708 0.110011 0.780317
C9    C     C_R   0.139816 0.139801 0.389923 0.783642
C10   C     C_R   0.860178 0.860218 0.610066 0.783199
C11   C     C_R   0.860192 0.139789 0.610138 0.780057
C12   C     C_R   0.139763 0.860182 0.389792 0.784461
C13   C     C_R   0.639822 0.639780 0.389937 0.782749
C14   C     C_R   0.360181 0.360205 0.610066 0.783264
C15   C     C_R   0.360237 0.639819 0.610210 0.785005
C16   C     C_R   0.639808 0.360211 0.389862 0.780828
C17   C     C_R   0.000000 0.999941 0.109089 0.793101
C18   C     C_R   0.000154 0.000124 0.891067 0.792010
C19   C     C_R   0.499846 0.499875 0.108933 0.792014
C20   C     C_R   0.500000 0.500059 0.890911 0.793092
C21   C     C_R   0.999995 0.000098 0.391684 0.766578
C22   C     C_R   0.999974 0.999917 0.608278 0.777301
C23   C     C_R   0.500026 0.499959 0.391723 0.777139
C24   C     C_R   0.500011 0.500023 0.608323 0.766481
C25   C     C_3   0.060043 0.965904 0.542841 -0.176334
C26   C     C_3   0.939873 0.034191 0.457049 -0.176443
C27   C     C_3   0.000286 0.930757 0.517176 -0.115168
C28   C     C_3   0.999627 0.069333 0.482704 -0.121890
C29   C     C_3   0.499746 0.430692 0.482681 -0.115379
C30   C     C_3   0.500364 0.569188 0.517455 -0.122206
C31   C     C_3   0.439977 0.465728 0.457101 -0.179060
C32   C     C_3   0.560134 0.534146 0.543044 -0.175268
C33   C     C_3   0.059704 0.034784 0.577404 -0.173528
C34   C     C_3   0.940210 0.965313 0.422482 -0.176274
C35   C     C_3   0.559817 0.465201 0.577461 -0.173806
C36   C     C_3   0.440293 0.534671 0.422687 -0.176406
H1    H     H_    0.108695 0.063284 0.641900 0.140394
H2    H     H_    0.891219 0.936829 0.357972 0.140186
H3    H     H_    0.608800 0.436688 0.641896 0.138860
H4    H     H_    0.391282 0.563150 0.358261 0.145886
H5    H     H_    0.109324 0.937925 0.577044 0.141478
H6    H     H_    0.890586 0.062196 0.422807 0.148814
H7    H     H_    0.000552 0.873816 0.532092 0.161213
H8    H     H_    0.999334 0.126266 0.467743 0.162595
H9    H     H_    0.499470 0.373779 0.467608 0.162459
H10   H     H_    0.500639 0.626099 0.532532 0.160976
H11   H     H_    0.390712 0.437659 0.422832 0.141187
H12   H     H_    0.609405 0.562213 0.577336 0.147478
C37   C     C_3   0.999950 0.999691 0.550895 0.045677
C38   C     C_3   0.999969 0.000388 0.449003 0.045123
C39   C     C_3   0.500043 0.500185 0.551012 0.046886
C40   C     C_3   0.500059 0.499712 0.449116 0.044726
H13   H     H_    0.281532 0.125524 0.693512 0.151581
H14   H     H_    0.671024 0.922279 0.293214 0.139052
H15   H     H_    0.636817 0.042577 0.307637 0.149067
H16   H     H_    0.072120 0.668387 0.198498 0.133868
H17   H     H_    0.828930 0.577759 0.706787 0.138950
H18   H     H_    0.218618 0.374351 0.306558 0.149913
H19   H     H_    0.427847 0.831587 0.801504 0.133787
H20   H     H_    0.863193 0.457434 0.692353 0.149158
C41   C     C_R   0.153924 0.237395 0.317295 -0.156531
C42   C     C_R   0.871702 0.736896 0.689812 -0.144485
C43   C     C_R   0.889724 0.281757 0.682215 -0.151079
C44   C     C_R   0.265859 0.872866 0.582117 -0.143547
C45   C     C_R   0.628288 0.763108 0.310192 -0.144405
C46   C     C_R   0.346111 0.262582 0.682713 -0.156243
C47   C     C_R   0.234110 0.627108 0.417884 -0.142292
C48   C     C_R   0.610280 0.218245 0.317782 -0.151393
C49   C     C_R   0.160281 0.284301 0.281271 -0.085018
C50   C     C_R   0.877729 0.677452 0.729368 -0.094233
C51   C     C_R   0.904819 0.350473 0.717951 -0.099210
C52   C     C_R   0.326869 0.879689 0.675438 -0.130167
C53   C     C_R   0.622247 0.822565 0.270634 -0.094748
C54   C     C_R   0.339799 0.215637 0.718760 -0.086220
C55   C     C_R   0.173092 0.620278 0.324564 -0.129088
C56   C     C_R   0.595187 0.149533 0.282044 -0.099180
C57   C     C_R   0.675864 0.876203 0.324165 -0.110552
C58   C     C_R   0.286068 0.162171 0.665193 -0.113674
C59   C     C_R   0.119475 0.673915 0.270939 -0.136021
C60   C     C_R   0.648654 0.095814 0.335691 -0.110587
C61   C     C_R   0.214037 0.337743 0.334852 -0.115427
C62   C     C_R   0.824102 0.623824 0.675836 -0.111964
C63   C     C_R   0.851354 0.404193 0.664301 -0.110139
C64   C     C_R   0.380497 0.826063 0.729063 -0.135536
C65   C     C_R   0.735863 0.870658 0.417555 -0.153135
C66   C     C_R   0.238401 0.155346 0.575303 -0.163024
C67   C     C_R   0.126572 0.734686 0.310325 -0.143110
C68   C     C_R   0.717564 0.110577 0.425296 -0.147732
C69   C     C_R   0.261673 0.344595 0.424725 -0.163564
C70   C     C_R   0.764110 0.629364 0.582446 -0.154578
C71   C     C_R   0.782443 0.389429 0.574698 -0.146536
C72   C     C_R   0.373415 0.765306 0.689677 -0.143224
C73   C     C_R   0.743409 0.810600 0.459362 0.075954
C74   C     C_R   0.243314 0.202786 0.536829 0.075660
C75   C     C_R   0.187987 0.742786 0.405004 0.075263
C76   C     C_R   0.734141 0.179871 0.463440 0.077379
C77   C     C_R   0.256715 0.297195 0.463176 0.076733
C78   C     C_R   0.756580 0.689407 0.540641 0.076645
C79   C     C_R   0.765862 0.320132 0.536557 0.077205
C80   C     C_R   0.312006 0.757209 0.594998 0.075259
C81   C     C_R   0.202085 0.242824 0.408699 0.074325
C82   C     C_R   0.811148 0.743880 0.595066 0.076530
C83   C     C_R   0.820325 0.265589 0.591036 0.077445
C84   C     C_R   0.257455 0.811698 0.540480 0.073842
C85   C     C_R   0.688846 0.756123 0.404938 0.076524
C86   C     C_R   0.297933 0.257167 0.591299 0.074367
C87   C     C_R   0.242533 0.688293 0.459522 0.073201
C88   C     C_R   0.679678 0.234413 0.408962 0.077395
C89   C     C_R   0.804133 0.803996 0.553976 -0.136886
C90   C     C_R   0.195827 0.196062 0.445963 -0.143483
C91   C     C_R   0.195870 0.804011 0.445937 -0.143889
C92   C     C_R   0.804067 0.195944 0.554005 -0.139070
C93   C     C_R   0.304177 0.303941 0.554029 -0.143306
C94   C     C_R   0.695865 0.696004 0.446027 -0.136620
C95   C     C_R   0.695934 0.304057 0.445994 -0.139307
C96   C     C_R   0.304127 0.695988 0.554065 -0.144203
H21   H     H_    0.110584 0.197368 0.272481 0.123939
H22   H     H_    0.914837 0.777204 0.734212 0.108090
H23   H     H_    0.932888 0.241562 0.727027 0.126055
H24   H     H_    0.225533 0.915942 0.543158 0.113907
H25   H     H_    0.585158 0.722796 0.265791 0.108125
H26   H     H_    0.389441 0.302621 0.727520 0.123967
H27   H     H_    0.274427 0.584023 0.456844 0.114435
H28   H     H_    0.567114 0.258440 0.272971 0.126053
H29   H     H_    0.123024 0.279386 0.211325 0.171237
H30   H     H_    0.924199 0.673035 0.801876 0.141344
H31   H     H_    0.958154 0.361955 0.787702 0.177405
H32   H     H_    0.332534 0.926815 0.706245 0.136346
H33   H     H_    0.575774 0.826984 0.198126 0.141385
H34   H     H_    0.377074 0.220534 0.788716 0.171200
H35   H     H_    0.167412 0.573139 0.293757 0.136549
H36   H     H_    0.541853 0.138052 0.212292 0.177355
H37   H     H_    0.776168 0.913749 0.456435 0.111583
H38   H     H_    0.198165 0.112253 0.536769 0.125977
H39   H     H_    0.083502 0.775044 0.265859 0.111491
H40   H     H_    0.757567 0.067242 0.463871 0.122810
H41   H     H_    0.301928 0.387670 0.463267 0.124712
H42   H     H_    0.723796 0.586281 0.543567 0.111113
H43   H     H_    0.742441 0.432765 0.536122 0.123019
H44   H     H_    0.416491 0.724954 0.734143 0.111471
C97   C     C_R   0.779456 0.830274 0.121768 -0.213001
C98   C     C_R   0.218467 0.171679 0.875623 -0.138555
C99   C     C_R   0.108753 0.716477 0.896342 -0.219614
C100  C     C_R   0.787338 0.177226 0.131314 -0.209821
C101  C     C_R   0.281483 0.328345 0.124302 -0.138632
C102  C     C_R   0.720586 0.669708 0.878297 -0.212969
C103  C     C_R   0.712659 0.322794 0.868674 -0.209741
C104  C     C_R   0.391250 0.783528 0.103669 -0.219258
C105  C     C_R   0.744897 0.813188 0.133685 -0.214825
C106  C     C_R   0.251709 0.189912 0.862140 -0.174404
C107  C     C_R   0.092227 0.646727 0.897558 -0.221580
C108  C     C_R   0.759969 0.200431 0.151488 -0.211794
C109  C     C_R   0.248198 0.310142 0.137733 -0.173712
C110  C     C_R   0.755165 0.686781 0.866404 -0.214124
C111  C     C_R   0.740029 0.299595 0.848501 -0.211854
C112  C     C_R   0.407777 0.853280 0.102460 -0.221576
C113  C     C_R   0.198672 0.252537 0.090271 0.372346
C114  C     C_R   0.804966 0.744186 0.914133 0.367493
C115  C     C_R   0.786986 0.239990 0.893176 0.363686
C116  C     C_R   0.354890 0.908211 0.049862 0.376095
C117  C     C_R   0.695081 0.755793 0.085939 0.368851
C118  C     C_R   0.301243 0.247516 0.909610 0.373640
C119  C     C_R   0.145114 0.591796 0.950157 0.375926
C120  C     C_R   0.713013 0.260033 0.106813 0.362459
C121  C     C_R   0.180130 0.215778 0.025627 -0.243775
C122  C     C_R   0.822192 0.782125 0.977239 -0.244823
C123  C     C_R   0.810308 0.207304 0.963011 -0.249457
C124  C     C_R   0.284725 0.891718 0.997884 -0.240203
C125  C     C_R   0.677829 0.717873 0.022801 -0.245209
C126  C     C_R   0.319833 0.284235 0.974313 -0.244145
C127  C     C_R   0.215278 0.608286 0.002129 -0.241316
C128  C     C_R   0.689688 0.292711 0.036975 -0.248984
C129  C     C_R   0.214480 0.232479 0.011993 0.019654
C130  C     C_R   0.786633 0.766482 0.989378 0.018347
C131  C     C_R   0.781276 0.228547 0.982954 0.019674
C132  C     C_R   0.267039 0.821255 0.999057 0.014894
C133  C     C_R   0.713376 0.733522 0.010648 0.018261
C134  C     C_R   0.285508 0.267518 0.987976 0.019571
C135  C     C_R   0.232963 0.678747 0.000950 0.014991
C136  C     C_R   0.718724 0.271467 0.017037 0.019765
C137  C     C_R   0.766237 0.789380 0.062565 0.086318
C138  C     C_R   0.232705 0.211615 0.936136 0.089036
C139  C     C_R   0.178888 0.733476 0.947104 0.085967
C140  C     C_R   0.770534 0.214693 0.067627 0.084910
C141  C     C_R   0.267279 0.288385 0.063830 0.088108
C142  C     C_R   0.733778 0.710620 0.937467 0.085364
C143  C     C_R   0.729467 0.285323 0.932364 0.085738
C144  C     C_R   0.321113 0.766526 0.052902 0.086025
C145  C     C_R   0.196662 0.195350 0.947288 -0.100720
C146  C     C_R   0.803364 0.804625 0.052761 -0.112591
C147  C     C_R   0.802961 0.195018 0.052144 -0.117210
C148  C     C_R   0.196228 0.804224 0.946360 -0.108532
C149  C     C_R   0.696636 0.695384 0.947253 -0.112680
C150  C     C_R   0.303338 0.304639 0.052699 -0.100783
C151  C     C_R   0.303772 0.695776 0.053642 -0.108323
C152  C     C_R   0.697040 0.304993 0.947849 -0.117126
H45   H     H_    0.816492 0.876140 0.159673 0.154196
H46   H     H_    0.181762 0.125563 0.837996 0.157216
H47   H     H_    0.065814 0.756842 0.855412 0.144315
H48   H     H_    0.821930 0.129537 0.166806 0.159279
H49   H     H_    0.318182 0.374464 0.161920 0.158634
H50   H     H_    0.683561 0.623834 0.840409 0.155669
H51   H     H_    0.678062 0.370480 0.833177 0.157700
H52   H     H_    0.434189 0.743162 0.144598 0.144310
H53   H     H_    0.758034 0.844403 0.181456 0.175991
H54   H     H_    0.237732 0.159461 0.813348 0.170984
H55   H     H_    0.037793 0.635892 0.857297 0.176552
H56   H     H_    0.776763 0.172450 0.203486 0.179571
H57   H     H_    0.262134 0.340619 0.186481 0.174025
H58   H     H_    0.742057 0.655549 0.818666 0.178809
H59   H     H_    0.723233 0.327581 0.796503 0.176680
H60   H     H_    0.462213 0.864116 0.142725 0.176539
H61   H     H_    0.138302 0.174527 0.986348 0.175216
H62   H     H_    0.864001 0.823434 0.016634 0.175530
H63   H     H_    0.851244 0.165409 0.000571 0.182689
H64   H     H_    0.244110 0.934432 0.956221 0.173022
H65   H     H_    0.636016 0.676566 0.983401 0.175521
H66   H     H_    0.361664 0.325484 0.013597 0.175264
H67   H     H_    0.255894 0.565572 0.043794 0.172917
H68   H     H_    0.648745 0.334599 0.999408 0.182688
H69   H     H_    0.982721 0.251340 0.030939 0.121199
H70   H     H_    0.035605 0.750616 0.987254 0.132074
H71   H     H_    0.464396 0.749384 0.012748 0.132143
H72   H     H_    0.517289 0.248660 0.969071 0.121165
C153  C     C_R   0.022059 0.866731 0.076161 -0.079842
C154  C     C_R   0.983174 0.134014 0.929145 -0.077352
C155  C     C_R   0.516845 0.365988 0.070873 -0.077260
C156  C     C_R   0.477945 0.633270 0.923843 -0.079850
C157  C     C_R   0.031107 0.801552 0.057991 -0.066067
C158  C     C_R   0.979539 0.199781 0.952677 0.007948
C159  C     C_R   0.520479 0.300220 0.047341 0.007608
C160  C     C_R   0.468898 0.698448 0.942014 -0.066189
C161  C     C_R   0.029078 0.801324 0.001836 -0.094567
C162  C     C_R   0.984912 0.200211 0.012078 -0.037705
C163  C     C_R   0.515098 0.299790 0.987933 -0.037669
C164  C     C_R   0.470924 0.698675 0.998166 -0.094442
C165  C     C_R   0.018728 0.866382 0.964409 -0.127186
C166  C     C_R   0.991803 0.134711 0.046074 -0.097441
C167  C     C_R   0.508201 0.365289 0.953929 -0.097266
C168  C     C_R   0.481271 0.633618 0.035590 -0.127133
C169  C     C_R   0.010099 0.933339 0.982761 0.072427
C170  C     C_R   0.994621 0.067216 0.021968 0.091072
C171  C     C_R   0.505383 0.432784 0.978036 0.091054
C172  C     C_R   0.489901 0.566660 0.017239 0.072420
C173  C     C_R   0.010925 0.933401 0.038170 0.084107
C174  C     C_R   0.992295 0.067027 0.965084 0.086367
C175  C     C_R   0.507714 0.432974 0.034925 0.086428
C176  C     C_R   0.489077 0.566599 0.961832 0.084147
C177  C     C_R   0.000280 0.000091 0.946612 -0.117780
C178  C     C_R   0.000963 0.000088 0.054641 -0.115790
C179  C     C_R   0.499038 0.499912 0.945360 -0.115791
C180  C     C_R   0.499722 0.499909 0.053390 -0.117777
H73   H     H_    0.023374 0.864151 0.119584 0.101573
H74   H     H_    0.980162 0.136428 0.884058 0.099684
H75   H     H_    0.519863 0.363574 0.115967 0.099696
H76   H     H_    0.476632 0.635849 0.880422 0.101594
H77   H     H_    0.039163 0.751017 0.087039 0.123692
H78   H     H_    0.973439 0.250604 0.925579 0.134877
H79   H     H_    0.526585 0.249399 0.074445 0.134737
H80   H     H_    0.460844 0.748983 0.912969 0.123647
H81   H     H_    0.017583 0.863581 0.921154 0.108375
H82   H     H_    0.994848 0.137571 0.091187 0.090696
H83   H     H_    0.505151 0.362429 0.908813 0.090646
H84   H     H_    0.482415 0.636418 0.078844 0.108358
N1    N     N_R   0.837410 0.764688 0.897912 0.200917
O53   O     O_R   0.836936 0.719940 0.858049 -0.407893
O54   O     O_R   0.861674 0.830666 0.915487 -0.387907
N2    N     N_R   0.167978 0.230520 0.108470 0.197841
O55   O     O_R   0.169136 0.274392 0.149509 -0.433528
O56   O     O_R   0.145308 0.163912 0.092196 -0.408733
N3    N     N_R   0.372223 0.980401 0.048915 0.209711
O57   O     O_R   0.437096 0.995356 0.096392 -0.419398
O58   O     O_R   0.323629 0.032126 0.001463 -0.421774
N4    N     N_R   0.809882 0.211571 0.866634 0.195132
O59   O     O_R   0.805546 0.251466 0.820496 -0.411289
O60   O     O_R   0.826991 0.142990 0.879210 -0.379144
N5    N     N_R   0.331885 0.269575 0.891351 0.197898
O61   O     O_R   0.330496 0.225815 0.850020 -0.433134
O62   O     O_R   0.354731 0.336135 0.907860 -0.408823
N6    N     N_R   0.662649 0.735283 0.102173 0.200906
O63   O     O_R   0.663169 0.780006 0.142096 -0.407293
O64   O     O_R   0.638342 0.669318 0.084541 -0.387962
N7    N     N_R   0.690118 0.288458 0.133355 0.195154
O65   O     O_R   0.673010 0.357040 0.120776 -0.379088
O66   O     O_R   0.694457 0.248569 0.179499 -0.412083
N8    N     N_R   0.127782 0.519607 0.951108 0.209618
O67   O     O_R   0.176370 0.467878 0.998544 -0.421711
O68   O     O_R   0.062915 0.504658 0.903648 -0.419343

loop_
_geom_bond_atom_site_label_1
_geom_bond_atom_site_label_2
_geom_bond_distance
_ccdc_geom_bond_type
C55   H35   1.082616 S    
C41   H21   1.081868 S    
C54   C58   1.389461 A    
C101  C141  1.417837 A    
C44   H24   1.082377 S    
C45   H25   1.082448 S    
C173  C178  1.410213 A    
N1    O53   1.301591 A    
C14   C93   1.455152 S    
C43   C83   1.417511 A    
O26   C7    1.270451 A    
C166  C170  1.417965 A    
C48   H28   1.081881 S    
C24   C39   1.472369 S    
C154  C158  1.394206 A    
O30   C11   1.278524 A    
C26   C37   1.534313 S    
C30   H10   1.110141 S    
C109  C113  1.393832 A    
C131  C143  1.409447 A    
C158  C162  1.390159 A    
Zn12  O26   1.938165 S    
C102  C110  1.390352 A    
C154  H74   1.082374 S    
C142  C149  1.415473 A    
C19   C180  1.422943 S    
C124  H64   1.080735 S    
C20   C179  1.422954 S    
C59   C67   1.393745 A    
C52   C64   1.390249 A    
C120  N7    1.436600 S    
C27   C34   1.547070 S    
C53   C57   1.390192 A    
C98   H46   1.080586 S    
H69   C162  1.082506 S    
C130  C146  1.418362 A    
C53   H33   1.082683 S    
O11   C7    1.281053 A    
H71   C164  1.082687 S    
C112  C116  1.397863 A    
C51   H31   1.082712 S    
O34   C15   1.278600 A    
C65   H37   1.082362 S    
C77   C81   1.412834 A    
H16   C59   1.082380 S    
C22   C37   1.472764 S    
C69   H41   1.081815 S    
Zn1   O44   1.943685 S    
C25   C33   1.547801 S    
C169  C173  1.401477 A    
N4    O59   1.301585 A    
C18   C177  1.422942 S    
C79   C83   1.412949 A    
C100  C108  1.388834 A    
C123  H63   1.077533 S    
Zn5   O48   1.943685 S    
C65   C73   1.416434 A    
Zn6   O47   1.943685 S    
Zn15  O3    1.954563 S    
C104  C112  1.392007 A    
Zn7   O46   1.942659 S    
C139  C148  1.415031 A    
O16   C12   1.279158 A    
C58   C66   1.393768 A    
C161  C165  1.393746 A    
Zn16  O4    1.954564 S    
Zn12  O4    1.944153 S    
C107  H55   1.082360 S    
C125  C133  1.420180 A    
C26   C28   1.547050 S    
C123  C131  1.422289 A    
Zn4   O16   1.938614 S    
C84   C91   1.413587 A    
C85   C94   1.413415 A    
C117  C125  1.401857 A    
C42   C50   1.393663 A    
C170  C174  1.401233 A    
C127  H67   1.080737 S    
C128  H68   1.077525 S    
C155  H75   1.082374 S    
N2    O55   1.301532 A    
C71   H43   1.081867 S    
C162  C166  1.394090 A    
Zn10  O22   1.938165 S    
C97   C105  1.390323 A    
C113  C121  1.401571 A    
O25   C8    1.274979 A    
Zn13  O29   1.937134 S    
Zn10  O2    1.944153 S    
N6    O63   1.301588 A    
H18   C61   1.082651 S    
C71   C79   1.417601 A    
O29   C12   1.278606 A    
C72   C80   1.416549 A    
C31   C39   1.534104 S    
C6    C149  1.455278 S    
C41   C49   1.393148 A    
C100  H48   1.080237 S    
C132  C144  1.410399 A    
O5    C1    1.278905 A    
O37   C17   1.271105 A    
C44   C84   1.416324 A    
O48   C23   1.278552 A    
C45   C85   1.416824 A    
C135  C151  1.416059 A    
C136  C140  1.409428 A    
C136  C152  1.421079 A    
C43   H23   1.081880 S    
C121  H61   1.079156 S    
C48   C88   1.417510 A    
C103  H51   1.080255 S    
C171  C175  1.401235 A    
C10   C89   1.455149 S    
N7    O65   1.301231 A    
C78   C94   1.413888 A    
Zn16  O35   1.936421 S    
C137  C146  1.415463 A    
C75   C87   1.413388 A    
C27   C37   1.536138 S    
Zn15  O33   1.937134 S    
C105  H53   1.082884 S    
C175  C180  1.410136 A    
Zn7   O10   1.935380 S    
C176  C179  1.410210 A    
O33   C16   1.278518 A    
C167  H83   1.082451 S    
C111  C115  1.392444 A    
O40   C20   1.271107 A    
C111  H59   1.082936 S    
C112  H60   1.082355 S    
C102  H50   1.080784 S    
C2    C145  1.455183 S    
Zn5   O17   1.938931 S    
C160  H80   1.082143 S    
C47   C55   1.393854 A    
C25   C27   1.547037 S    
C13   C94   1.455131 S    
C67   H39   1.082435 S    
C99   H47   1.081726 S    
Zn8   O3    1.951108 S    
C12   C91   1.455363 S    
C69   C77   1.417454 A    
O38   C18   1.268636 A    
C67   C75   1.416553 A    
C153  H73   1.082393 S    
C63   C71   1.393609 A    
O32   C9    1.278172 A    
C72   H44   1.082434 S    
C46   C86   1.417724 A    
Zn15  O51   1.940425 S    
C103  C143  1.418942 A    
Zn11  O28   1.938667 S    
H70   C161  1.082689 S    
C119  N8    1.440934 S    
C26   C34   1.547814 S    
C122  C130  1.420193 A    
C78   C82   1.413339 A    
C75   C91   1.413359 A    
C165  H81   1.082470 S    
C144  C151  1.415037 A    
C100  C140  1.418904 A    
O8    C4    1.281086 A    
C157  H77   1.082146 S    
C80   C84   1.413393 A    
Zn9   O1    1.944153 S    
C133  C137  1.410048 A    
C66   C74   1.417424 A    
C107  C119  1.397862 A    
C134  C150  1.418876 A    
O50   C18   1.266028 A    
C35   H3    1.110343 S    
C135  C139  1.410399 A    
C99   C107  1.392003 A    
Zn1   O1    1.949067 S    
C114  C122  1.401807 A    
Zn13  O1    1.954563 S    
Zn2   O14   1.938930 S    
C61   C69   1.393752 A    
C165  C169  1.418313 A    
C51   C63   1.389353 A    
O9    C5    1.279228 A    
C113  N2    1.436942 S    
O39   C19   1.268636 A    
O36   C13   1.277968 A    
C74   C90   1.414700 A    
C43   C51   1.393392 A    
C164  C168  1.393745 A    
O13   C9    1.278532 A    
H15   C60   1.082253 S    
C4    C147  1.455428 S    
N8    O67   1.301428 A    
Zn2   O7    1.935908 S    
C157  C161  1.390026 A    
H13   C58   1.082638 S    
Zn3   O6    1.935380 S    
O18   C14   1.278492 A    
O31   C10   1.277962 A    
C98   C138  1.417874 A    
C153  C173  1.418348 A    
C168  C172  1.418316 A    
C25   H5    1.110166 S    
C156  C176  1.418348 A    
C102  C142  1.417557 A    
C32   H12   1.110195 S    
C125  H65   1.079453 S    
Zn14  O30   1.937132 S    
C97   H45   1.080798 S    
Zn11  O3    1.944153 S    
O41   C21   1.278151 A    
Zn16  O34   1.937132 S    
C31   H11   1.110299 S    
N4    O60   1.301230 A    
O52   C20   1.263528 A    
C108  H56   1.082918 S    
H72   C163  1.082507 S    
C127  C135  1.418401 A    
Zn8   O20   1.938614 S    
C106  C118  1.393903 A    
C101  C109  1.389882 A    
C122  H62   1.079449 S    
C171  C179  1.409409 A    
C172  C180  1.409904 A    
C115  N4    1.436593 S    
N5    O62   1.300893 A    
C138  C145  1.415577 A    
C76   C92   1.414726 A    
C174  C177  1.410136 A    
C50   H30   1.082683 S    
C31   C36   1.547787 S    
C133  C149  1.418415 A    
C104  C144  1.415786 A    
C28   C33   1.547104 S    
Zn8   O9    1.935383 S    
C66   H38   1.081809 S    
N1    O54   1.300765 A    
C82   C89   1.413429 A    
C70   H42   1.082366 S    
O7    C3    1.275542 A    
N2    O56   1.300875 A    
O19   C15   1.279178 A    
C26   H6    1.110163 S    
C32   C35   1.547911 S    
Zn6   O18   1.938930 S    
C103  C111  1.388814 A    
Zn10  O23   1.938665 S    
C46   C54   1.393122 A    
C73   C85   1.413335 A    
N3    O57   1.301760 A    
C126  C134  1.420506 A    
N6    O64   1.300761 A    
C131  C147  1.421124 A    
Zn15  O36   1.936421 S    
O15   C11   1.279432 A    
O42   C22   1.278008 A    
C47   H27   1.082374 S    
Zn4   O1    1.951108 S    
C30   C32   1.546954 S    
Zn9   O37   1.945752 S    
O12   C8    1.275537 A    
C36   H4    1.110132 S    
Zn11  O39   1.945752 S    
C70   C78   1.416440 A    
C41   C81   1.417716 A    
C7    C152  1.455349 S    
C159  H79   1.082550 S    
C62   C70   1.394090 A    
C118  N5    1.436978 S    
Zn2   O43   1.943685 S    
C155  C159  1.394207 A    
N7    O66   1.301587 A    
C114  N1    1.437327 S    
Zn5   O3    1.949067 S    
C44   C52   1.393849 A    
Zn6   O4    1.949068 S    
C116  N3    1.440939 S    
C45   C53   1.393657 A    
C33   C37   1.534256 S    
C129  C141  1.409909 A    
C48   C56   1.393390 A    
C46   H26   1.081869 S    
C42   C82   1.416821 A    
C15   C96   1.455380 S    
C76   C88   1.412949 A    
C167  C171  1.417963 A    
Zn9   O24   1.938667 S    
C153  C157  1.394137 A    
O28   C5    1.273129 A    
C132  C148  1.416058 A    
H17   C62   1.082431 S    
Zn3   O42   1.942659 S    
C156  C160  1.394137 A    
C143  C152  1.415721 A    
Zn7   O4    1.951107 S    
O21   C4    1.270465 A    
C128  C136  1.422302 A    
C11   C92   1.455400 S    
C60   C68   1.393610 A    
C159  C163  1.390161 A    
C160  C164  1.390025 A    
C140  C147  1.415741 A    
C97   C137  1.417599 A    
C87   C96   1.413594 A    
C36   C40   1.534011 S    
C141  C150  1.415581 A    
C88   C95   1.414388 A    
C64   C72   1.393752 A    
Zn2   O2    1.949068 S    
Zn14  O2    1.954564 S    
C109  H57   1.082863 S    
C56   C60   1.389354 A    
C30   C39   1.536179 S    
Zn13  O49   1.940425 S    
O44   C21   1.276234 A    
C50   C62   1.390199 A    
C55   C59   1.390245 A    
C28   H8    1.110154 S    
C129  C145  1.418807 A    
C28   C38   1.536156 S    
Zn12  O27   1.938665 S    
C166  H82   1.082452 S    
C110  C114  1.394356 A    
C158  H78   1.082551 S    
Zn3   O2    1.951107 S    
C119  C127  1.403685 A    
H14   C57   1.082427 S    
C105  C117  1.394384 A    
C17   C178  1.422952 S    
C154  C174  1.418160 A    
C169  C177  1.409905 A    
C79   C95   1.414730 A    
C80   C96   1.413370 A    
C56   H36   1.082712 S    
O47   C24   1.278153 A    
C34   H2    1.110346 S    
Zn16  O52   1.940428 S    
C110  H58   1.082859 S    
C34   C38   1.534091 S    
Zn8   O45   1.942659 S    
C57   C65   1.394095 A    
O27   C6    1.273327 A    
C106  H54   1.082880 S    
C54   H34   1.082528 S    
C49   C61   1.389481 A    
C86   C93   1.414399 A    
Zn1   O13   1.938931 S    
C29   C31   1.546991 S    
C33   H1    1.110366 S    
C49   H29   1.082525 S    
O24   C1    1.273329 A    
C108  C120  1.392410 A    
C163  C167  1.394089 A    
C170  C178  1.409411 A    
C3    C148  1.455144 S    
C172  C176  1.401474 A    
O46   C24   1.276210 A    
O43   C22   1.276555 A    
C47   C87   1.416321 A    
Zn4   O41   1.942659 S    
Zn3   O15   1.938613 S    
H19   C64   1.082378 S    
Zn5   O12   1.935911 S    
H20   C63   1.082260 S    
Zn6   O11   1.935908 S    
C155  C175  1.418160 A    
Zn9   O21   1.938164 S    
Zn14  O50   1.940428 S    
C29   C35   1.547130 S    
C52   H32   1.082615 S    
O35   C14   1.278187 A    
Zn12  O40   1.945749 S    
Zn1   O8    1.935911 S    
C32   C40   1.534164 S    
C121  C129  1.420520 A    
N3    O58   1.301433 A    
C8    C151  1.455146 S    
N8    O68   1.301764 A    
C130  C142  1.410023 A    
C83   C92   1.414389 A    
C118  C126  1.401649 A    
C25   C38   1.534086 S    
C29   H9    1.110142 S    
C68   H40   1.081868 S    
C81   C90   1.414438 A    
C5    C150  1.455267 S    
C134  C138  1.409913 A    
O22   C3    1.274969 A    
Zn7   O19   1.938613 S    
C16   C95   1.455404 S    
C35   C39   1.534087 S    
C168  H84   1.082467 S    
C126  H66   1.079169 S    
Zn13  O32   1.936421 S    
C42   H22   1.082448 S    
O49   C17   1.263526 A    
Zn14  O31   1.936421 S    
C74   C86   1.412819 A    
C115  C123  1.401333 A    
O51   C19   1.266023 A    
C9    C90   1.455208 S    
C98   C106  1.389850 A    
C77   C93   1.414695 A    
C124  C132  1.418405 A    
C29   C40   1.536469 S    
C27   H7    1.110118 S    
Zn4   O5    1.935383 S    
C117  N6    1.437329 S    
O17   C13   1.278546 A    
O20   C16   1.279435 A    
C30   C36   1.547009 S    
O10   C6    1.278953 A    
O23   C2    1.273136 A    
O6    C2    1.279173 A    
Zn11  O25   1.938164 S    
Zn10  O38   1.945749 S    
C116  C124  1.403682 A    
O14   C10   1.278568 A    
C21   C38   1.472412 S    
C68   C76   1.417597 A    
C156  H76   1.082393 S    
C101  H49   1.080578 S    
C120  C128  1.401290 A    
C23   C40   1.472792 S    
C99   C139  1.415784 A    
N5    O61   1.301564 A    
C73   C89   1.413895 A    
C104  H52   1.081725 S    
O45   C23   1.276026 A    
C1    C146  1.455197 S    
