data_mof_unit_6697.cif
_audit_creation_date              2012-10-26T19:46:57-0400
_audit_creation_method            fapswitch 2.2
_symmetry_space_group_name_H-M    P1
_symmetry_Int_Tables_number       1
_space_group_crystal_system       triclinic
_cell_length_a                    10.788716
_cell_length_b                    9.532484
_cell_length_c                    15.979121
_cell_angle_alpha                 90.037781
_cell_angle_beta                  90.189542
_cell_angle_gamma                 90.032359
_cell_volume                      1643.33532438

loop_
_atom_site_label
_atom_site_type_symbol
_atom_type_description
_atom_site_fract_x
_atom_site_fract_y
_atom_site_fract_z
_atom_type_partial_charge
C1    C     C_R   0.871322 0.500084 0.500006 -0.069861
C2    C     C_R   0.506536 0.372858 0.956274 -0.086178
C3    C     C_R   0.501106 0.500047 0.912678 0.046786
C4    C     C_R   0.500930 0.499986 0.087326 0.046788
C5    C     C_1   0.500932 0.500065 0.823111 -0.029437
C6    C     C_1   0.500652 0.499949 0.176892 -0.029618
C7    C     C_1   0.500392 0.499926 0.252023 -0.008901
C8    C     C_1   0.500699 0.500078 0.747979 -0.008527
C9    C     C_R   0.420969 0.074246 0.449326 0.033406
C10   C     C_R   0.579013 0.925751 0.550683 0.028698
C11   C     C_R   0.579010 0.074481 0.550688 0.030777
C12   C     C_R   0.128467 0.499954 0.499996 -0.073912
C13   C     C_R   0.420963 0.925514 0.449324 0.030394
C14   C     C_R   0.065273 0.449522 0.571087 0.003944
C15   C     C_R   0.934461 0.543400 0.427233 0.004831
C16   C     C_R   0.935082 0.456732 0.572780 0.001843
C17   C     C_R   0.064677 0.550556 0.428935 0.004377
C18   C     C_2   0.136935 0.389466 0.642574 0.317260
C19   C     C_2   0.863146 0.573246 0.348997 0.293930
C20   C     C_2   0.864442 0.426896 0.650996 0.284456
C21   C     C_2   0.135754 0.610843 0.357527 0.301969
C22   C     C_R   0.262606 0.499973 0.499998 0.498998
C23   C     C_R   0.737333 0.500032 0.499997 0.505616
C24   C     C_R   0.500118 0.499964 0.341232 0.534613
C25   C     C_R   0.500374 0.500036 0.658768 0.535042
C26   C     C_R   0.495657 0.627209 0.956381 -0.088909
C27   C     C_R   0.506450 0.372828 0.043624 -0.088488
C28   C     C_R   0.495569 0.627179 0.043731 -0.086639
Cu1   Cu    Cu3+1 0.500000 0.640660 0.500000 0.956253
Cu2   Cu    Cu3+1 0.500000 0.359340 0.500000 0.959806
H1    H     H_    0.357636 0.130107 0.408686 0.125946
H2    H     H_    0.772480 0.621846 0.351840 0.123524
H3    H     H_    0.773639 0.378474 0.648136 0.111021
H4    H     H_    0.225217 0.567630 0.340570 0.099396
H5    H     H_    0.642332 0.869888 0.591332 0.127004
H6    H     H_    0.642329 0.130527 0.591338 0.115791
H7    H     H_    0.357614 0.869459 0.408689 0.135718
H8    H     H_    0.491280 0.725945 0.077203 0.124713
H9    H     H_    0.510755 0.274088 0.922800 0.124896
H10   H     H_    0.491428 0.726000 0.922991 0.123438
H11   H     H_    0.510611 0.274033 0.077013 0.123473
H12   H     H_    0.226515 0.432869 0.659568 0.105618
N1    N     N_R   0.500000 0.852070 0.500000 -0.229811
N2    N     N_R   0.500000 0.147930 0.500000 -0.225673
O1    O     O_R   0.319640 0.618740 0.499990 -0.498788
O2    O     O_2   0.902786 0.538099 0.280634 -0.455581
O3    O     O_2   0.904808 0.461899 0.719371 -0.457480
O4    O     O_2   0.097444 0.713009 0.319333 -0.462761
O5    O     O_R   0.680360 0.381260 0.500010 -0.505253
O6    O     O_R   0.680360 0.618740 0.500010 -0.508461
O7    O     O_R   0.319640 0.381260 0.499990 -0.500182
O8    O     O_R   0.499970 0.618750 0.380310 -0.506939
O9    O     O_R   0.500030 0.381250 0.619690 -0.504105
O10   O     O_R   0.500030 0.618750 0.619690 -0.490250
O11   O     O_R   0.499970 0.381250 0.380310 -0.491177
O12   O     O_2   0.098934 0.287313 0.680811 -0.453392

loop_
_geom_bond_atom_site_label_1
_geom_bond_atom_site_label_2
_ccdc_geom_bond_type
C12   C17   A    
C24   O8    A    
C5    C8    T    
Cu2   O7    S    
C6    C7    T    
C1    C15   A    
C28   H8    S    
Cu2   O11   S    
C14   C18   S    
C13   H7    S    
C18   O12   D    
C16   C20   S    
C21   O4    D    
Cu2   N2    S    
C22   O1    A    
C2    C3    A    
C19   O2    D    
C11   N2    A    
C1    C16   A    
C2    C27   A    
Cu1   N1    S    
C24   O11   A    
C15   C19   S    
C8    C25   S    
C26   H10   S    
Cu1   Cu2   S    
C19   H2    S    
C11   H6    S    
C4    C28   A    
Cu2   O5    S    
C12   C14   A    
C1    C23   S    
Cu1   O6    S    
C18   H12   S    
Cu2   O9    S    
C14   C16   A    
C23   O5    A    
C20   O3    D    
C10   C11   A    
C20   H3    S    
C7    C24   S    
C10   H5    S    
C12   C22   S    
C13   N1    A    
C4    C27   A    
C25   O10   A    
C4    C6    S    
Cu1   O10   S    
Cu1   O1    S    
C15   C17   A    
C9    H1    S    
C9    N2    A    
C9    C13   A    
C21   H4    S    
C27   H11   S    
C3    C5    S    
C10   N1    A    
C26   C28   A    
C2    H9    S    
C3    C26   A    
C17   C21   S    
C25   O9    A    
C22   O7    A    
C23   O6    A    
Cu1   O8    S    
