data_mof_unit_45389.cif
_audit_creation_date              2012-12-10T18:22:34-0500
_audit_creation_method            fapswitch 2.2
_symmetry_space_group_name_H-M    P1
_symmetry_Int_Tables_number       1
_space_group_crystal_system       triclinic
_cell_length_a                    22.866279
_cell_length_b                    10.742512
_cell_length_c                    9.51854
_cell_angle_alpha                 88.247618
_cell_angle_beta                  90.102646
_cell_angle_gamma                 89.530641
_cell_volume                      2336.96952048

loop_
_atom_site_label
_atom_site_type_symbol
_atom_type_description
_atom_site_fract_x
_atom_site_fract_y
_atom_site_fract_z
_atom_type_partial_charge
C1    C     C_R   0.501641 0.259828 0.502045 0.815422
C2    C     C_R   0.708382 0.557924 0.416719 -0.321194
C3    C     C_R   0.230466 0.429566 0.538035 0.152450
C4    C     C_R   0.769548 0.558359 0.433903 0.123709
C5    C     C_R   0.205190 0.551168 0.527121 0.042063
C6    C     C_R   0.794390 0.493512 0.553944 0.048943
C7    C     C_3   0.509358 0.032642 0.635586 -0.310820
C8    C     C_3   0.492081 0.967448 0.364113 -0.310072
C9    C     C_3   0.551315 0.952303 0.547341 0.023184
C10   C     C_3   0.450159 0.047767 0.452229 0.025046
C11   C     C_3   0.499212 0.877148 0.493646 -0.107567
C12   C     C_R   0.498970 0.740232 0.497917 0.815800
C13   C     C_3   0.502158 0.122935 0.506086 -0.106185
C14   C     C_3   0.457689 0.957563 0.578933 0.429122
C15   C     C_3   0.543684 0.042641 0.420694 0.427990
C16   C     C_R   0.390612 0.502239 0.499877 0.809102
C17   C     C_R   0.609402 0.497085 0.500386 0.811451
C18   C     C_3   0.514643 0.607140 0.045234 0.174118
C19   C     C_3   0.485398 0.392834 0.954749 0.175040
C20   C     C_3   0.463443 0.581160 0.948010 0.155196
C21   C     C_3   0.536580 0.418825 0.052042 0.155860
C22   C     C_3   0.551302 0.526109 0.947863 -0.105225
C23   C     C_R   0.238549 0.639377 0.446747 0.445406
C24   C     C_3   0.448709 0.473819 0.052125 -0.102848
C25   C     C_R   0.871963 0.647358 0.593680 0.611226
C26   C     C_R   0.126729 0.501907 0.697214 0.588242
C27   C     C_R   0.880939 0.457701 0.714155 0.537400
C28   C     C_R   0.117188 0.688919 0.569527 0.548591
C29   C     C_R   0.942675 0.466760 0.724105 -0.075914
C30   C     C_R   0.055658 0.692233 0.592868 -0.081566
C31   C     C_R   0.968595 0.572185 0.657509 -0.117044
C32   C     C_R   0.029785 0.583854 0.652364 -0.116783
C33   C     C_R   0.932685 0.668405 0.600387 -0.072723
C34   C     C_R   0.761359 0.390233 0.606572 0.446875
C35   C     C_R   0.065755 0.492661 0.717974 -0.068942
C36   C     C_R   0.978874 0.377160 0.797881 -0.017120
C37   C     C_R   0.019196 0.798227 0.561890 -0.005871
C38   C     C_R   0.040599 0.395353 0.800270 0.375065
C39   C     C_R   0.957831 0.781451 0.552361 0.386564
C40   C     C_3   0.954872 0.252388 0.851943 -0.350886
C41   C     C_3   0.937214 0.254005 0.007999 -0.320711
C42   C     C_3   0.918755 0.124852 0.061398 -0.830512
C43   C     C_3   0.043218 0.930293 0.557377 -0.353758
C44   C     C_3   0.068956 0.962430 0.701298 -0.312619
C45   C     C_R   0.299685 0.628022 0.443201 0.365783
C46   C     C_3   0.105182 0.080396 0.691103 -0.788525
C47   C     C_3   0.415909 0.670383 0.890875 -0.372371
C48   C     C_3   0.378214 0.723718 0.008807 -0.387859
C49   C     C_3   0.324763 0.793604 0.949970 -0.752364
C50   C     C_3   0.584083 0.329616 0.109552 -0.384509
C51   C     C_3   0.622317 0.277337 0.992073 -0.376509
C52   C     C_3   0.675734 0.207563 0.051248 -0.748652
C53   C     C_3   0.536726 0.731796 0.094888 -0.373272
C54   C     C_3   0.561615 0.811916 0.973561 -0.413347
C55   C     C_3   0.584931 0.934561 0.025091 -0.861100
C56   C     C_R   0.700517 0.390876 0.591766 0.367896
C57   C     C_3   0.463665 0.268041 0.904784 -0.370038
C58   C     C_3   0.438919 0.187523 0.025817 -0.414023
C59   C     C_3   0.416164 0.064543 0.973955 -0.857883
C60   C     C_3   0.194507 0.313842 0.512787 -0.374185
C61   C     C_3   0.172622 0.315020 0.360070 -0.384043
C62   C     C_3   0.136801 0.199537 0.329842 -0.836189
C63   C     C_3   0.805912 0.614143 0.313551 -0.347880
C64   C     C_3   0.853154 0.523542 0.262766 -0.389012
C65   C     C_3   0.888637 0.582420 0.142566 -0.808586
C66   C     C_3   0.609345 0.893698 0.596263 -0.441081
C67   C     C_R   0.326757 0.518380 0.499319 -0.238606
C68   C     C_3   0.653303 0.992543 0.639190 -0.306567
C69   C     C_3   0.707451 0.932716 0.707368 -0.749716
C70   C     C_3   0.392514 0.106887 0.401943 -0.454149
C71   C     C_3   0.348762 0.008559 0.357224 -0.264860
C72   C     C_3   0.296533 0.068047 0.280664 -0.823044
C73   C     C_R   0.673391 0.483117 0.504350 -0.238645
C74   C     C_R   0.291645 0.417233 0.538109 -0.295415
Cu1   Cu    Cu3+1 0.500010 0.499990 0.643150 0.918126
Cu2   Cu    Cu3+1 0.499990 0.500010 0.356850 0.912517
H1    H     H_    0.594337 0.548370 0.900175 0.124241
H2    H     H_    0.973933 0.285748 0.073895 0.190586
H3    H     H_    0.900303 0.319373 0.023599 0.271081
H4    H     H_    0.917735 0.222225 0.786360 0.235004
H5    H     H_    0.988027 0.177883 0.836990 0.189796
H6    H     H_    0.142610 0.067052 0.618855 0.270434
H7    H     H_    0.077668 0.159838 0.652186 0.253035
H8    H     H_    0.122788 0.101320 0.796422 0.277672
H9    H     H_    0.032679 0.975727 0.777106 0.201218
H10   H     H_    0.097231 0.886262 0.745129 0.246518
H11   H     H_    0.075039 0.942718 0.470439 0.237531
H12   H     H_    0.405659 0.451493 0.099715 0.125342
H13   H     H_    0.008798 0.001405 0.534701 0.184120
H14   H     H_    0.338136 0.869819 0.876236 0.267534
H15   H     H_    0.295821 0.728962 0.893871 0.260503
H16   H     H_    0.299774 0.834456 0.037527 0.261554
H17   H     H_    0.362288 0.648000 0.080459 0.246472
H18   H     H_    0.404491 0.787896 0.071757 0.213792
H19   H     H_    0.436982 0.747271 0.831200 0.256675
H20   H     H_    0.387030 0.619025 0.819827 0.236833
H21   H     H_    0.704173 0.271871 0.109256 0.252343
H22   H     H_    0.662286 0.130143 0.123212 0.263514
H23   H     H_    0.311770 0.326898 0.558483 0.146445
H24   H     H_    0.701306 0.168331 0.963658 0.269970
H25   H     H_    0.596421 0.213448 0.927793 0.216115
H26   H     H_    0.638403 0.353910 0.921952 0.256084
H27   H     H_    0.612652 0.380778 0.181434 0.235229
H28   H     H_    0.562971 0.252261 0.168331 0.257897
H29   H     H_    0.549462 0.990780 0.071576 0.271676
H30   H     H_    0.620143 0.916368 0.103535 0.251693
H31   H     H_    0.603611 0.988558 0.935451 0.251528
H32   H     H_    0.598492 0.761903 0.924163 0.219102
H33   H     H_    0.527417 0.831490 0.892853 0.234972
H34   H     H_    0.687924 0.616455 0.335524 0.161778
H35   H     H_    0.499563 0.781008 0.141584 0.202795
H36   H     H_    0.571431 0.714377 0.175126 0.218307
H37   H     H_    0.380723 0.082173 0.895973 0.255042
H38   H     H_    0.451827 0.009324 0.926851 0.270957
H39   H     H_    0.397989 0.009796 0.063591 0.251979
H40   H     H_    0.473079 0.168382 0.106706 0.234064
H41   H     H_    0.401822 0.237040 0.074927 0.221027
H42   H     H_    0.428956 0.285162 0.824495 0.223445
H43   H     H_    0.500999 0.219276 0.858179 0.202060
H44   H     H_    0.057036 0.276848 0.955412 0.320797
H45   H     H_    0.518703 0.051971 0.746368 0.151878
H46   H     H_    0.942693 0.911855 0.412473 0.302346
H47   H     H_    0.175572 0.687713 0.321310 0.319331
H48   H     H_    0.825001 0.271635 0.602210 0.312283
H49   H     H_    0.372640 0.713653 0.396605 0.317020
H50   H     H_    0.630719 0.288325 0.613669 0.315490
H51   H     H_    0.162826 0.113521 0.352579 0.270645
H52   H     H_    0.096490 0.197862 0.394677 0.246581
H53   H     H_    0.123852 0.201498 0.217292 0.258278
H54   H     H_    0.144737 0.398819 0.338885 0.225104
H55   H     H_    0.210560 0.319310 0.287225 0.235502
H56   H     H_    0.482838 0.948441 0.253216 0.151549
H57   H     H_    0.221504 0.228693 0.533228 0.191029
H58   H     H_    0.156596 0.304836 0.583316 0.238043
H59   H     H_    0.860317 0.600702 0.049120 0.272854
H60   H     H_    0.908254 0.671242 0.175463 0.252301
H61   H     H_    0.924682 0.518630 0.113172 0.236825
H62   H     H_    0.883693 0.497605 0.349786 0.218458
H63   H     H_    0.832286 0.437187 0.226122 0.229265
H64   H     H_    0.776985 0.637560 0.222218 0.186302
H65   H     H_    0.825952 0.703503 0.340061 0.249920
H66   H     H_    0.695303 0.879602 0.804807 0.235482
H67   H     H_    0.880818 0.092108 0.999929 0.276232
H68   H     H_    0.728977 0.868877 0.633405 0.285687
H69   H     H_    0.738884 0.006328 0.735148 0.279469
H70   H     H_    0.667079 0.048496 0.545166 0.264881
H71   H     H_    0.632823 0.056583 0.714388 0.234030
H72   H     H_    0.600482 0.828815 0.686223 0.212892
H73   H     H_    0.627945 0.838660 0.509745 0.184563
H74   H     H_    0.274937 0.136372 0.348674 0.251346
H75   H     H_    0.310741 0.116173 0.181787 0.248799
H76   H     H_    0.264561 0.995016 0.254430 0.283953
H77   H     H_    0.370195 0.941670 0.286772 0.236184
H78   H     H_    0.955590 0.057507 0.052348 0.243472
H79   H     H_    0.332728 0.956445 0.451841 0.274270
H80   H     H_    0.373610 0.161117 0.488467 0.172345
H81   H     H_    0.401900 0.172358 0.312887 0.216625
H82   H     H_    0.386843 0.983880 0.680717 0.312594
H83   H     H_    0.614127 0.016391 0.317457 0.312804
H84   H     H_    0.905883 0.128758 0.173640 0.241017
N1    N     N_R   0.850758 0.529659 0.616105 -0.447559
N2    N     N_R   0.148245 0.579871 0.593088 -0.443748
N3    N     N_3   0.500040 0.499970 0.858290 -0.196955
N4    N     N_3   0.499960 0.500030 0.141710 -0.197145
O1    O     O_R   0.500030 0.316850 0.620870 -0.607695
O2    O     O_2   0.164158 0.436074 0.780956 -0.485413
O3    O     O_2   0.851354 0.391520 0.812101 -0.523254
O4    O     O_2   0.145480 0.793659 0.532428 -0.525449
O5    O     O_3   0.077713 0.314902 0.874245 -0.714836
O6    O     O_3   0.921971 0.873263 0.493959 -0.697658
O7    O     O_3   0.213553 0.722619 0.350896 -0.657165
O8    O     O_3   0.786830 0.279055 0.650773 -0.656394
O9    O     O_3   0.330409 0.722700 0.376301 -0.725413
O10   O     O_3   0.670024 0.294490 0.656356 -0.725195
O11   O     O_3   0.411235 0.910558 0.658507 -0.772174
O12   O     O_R   0.499970 0.683150 0.379130 -0.608738
O13   O     O_3   0.590001 0.089793 0.340803 -0.776952
O14   O     O_R   0.500000 0.316860 0.379090 -0.573402
O15   O     O_R   0.500000 0.683140 0.620910 -0.573098
O16   O     O_R   0.417890 0.499960 0.620920 -0.579908
O17   O     O_R   0.582110 0.500040 0.379080 -0.586519
O18   O     O_R   0.417870 0.499970 0.379140 -0.577390
O19   O     O_R   0.582130 0.500030 0.620860 -0.573310
O20   O     O_2   0.834354 0.743801 0.575509 -0.508428

loop_
_geom_bond_atom_site_label_1
_geom_bond_atom_site_label_2
_ccdc_geom_bond_type
C66   C68   S    
C34   C56   A    
C23   C45   A    
C27   C29   A    
C69   H69   S    
C41   C42   S    
C5    C23   A    
C49   H14   S    
C43   C44   S    
Cu1   O19   S    
C28   N2    A    
C64   H62   S    
C53   C54   S    
C19   C57   S    
C51   H26   S    
C50   H28   S    
C4    C63   S    
C43   H13   S    
C48   H18   S    
C55   H29   S    
C70   H80   S    
C19   C21   S    
C7    H45   S    
C39   O6    S    
Cu2   O14   S    
C8    C11   S    
C62   H51   S    
C11   C14   S    
C16   O18   A    
H44   O5    S    
C16   O16   A    
C71   H77   S    
C52   H21   S    
C18   C20   S    
Cu1   N3    S    
C63   H64   S    
C3    C74   A    
C9    C66   S    
C18   C53   S    
C46   H6    S    
C18   N4    S    
C7    C14   S    
C26   O2    S    
C20   C24   S    
C25   N1    A    
C68   C69   S    
H46   O6    S    
H48   O8    S    
C45   C67   A    
C47   H20   S    
C31   C33   A    
C70   C71   S    
C1    O1    A    
Cu1   O15   S    
C66   H72   S    
H50   O10   S    
C25   O20   S    
C57   H43   S    
C65   H61   S    
C3    C60   S    
C53   H35   S    
H49   O9    S    
C50   H27   S    
C21   N4    S    
C21   C22   S    
C58   H40   S    
C62   H53   S    
C24   N4    S    
C49   H15   S    
C44   H10   S    
C21   C50   S    
C44   C46   S    
C2    C73   A    
C37   C39   A    
C48   H17   S    
C55   H30   S    
C51   C52   S    
C65   H60   S    
C32   C35   A    
C36   C40   S    
C35   C38   A    
C66   H73   S    
C4    C6    A    
C10   C14   S    
C26   N2    A    
C41   H2    S    
C17   C73   S    
C61   H55   S    
C19   N3    S    
C72   H76   S    
C69   H66   S    
H83   O13   S    
C20   N3    S    
C34   O8    S    
C52   H24   S    
C58   H41   S    
C6    C34   A    
C30   C37   A    
C55   H31   S    
C60   C61   S    
C69   H68   S    
C37   C43   S    
C2    C4    A    
Cu1   Cu2   S    
C8    H56   S    
C14   O11   S    
C45   O9    S    
C24   H12   S    
C1    O14   A    
C17   O19   A    
C47   C48   S    
C29   C36   A    
C6    N1    S    
Cu2   O12   S    
C59   H37   S    
C72   H75   S    
C71   H79   S    
C40   H4    S    
C50   C51   S    
C63   H65   S    
Cu1   O1    S    
C16   C67   S    
C33   C39   A    
Cu1   O16   S    
C9    C11   S    
C65   H59   S    
C68   H71   S    
C61   H54   S    
C46   H8    S    
C10   C70   S    
C53   H36   S    
C8    C10   S    
C48   C49   S    
C8    C15   S    
C72   H74   S    
C15   O13   S    
Cu2   N4    S    
C1    C13   S    
C49   H16   S    
C44   H9    S    
C60   H58   S    
C68   H70   S    
C38   O5    S    
C7    C9    S    
C54   C55   S    
C2    H34   S    
C56   C73   A    
Cu2   O18   S    
C42   H78   S    
C62   H52   S    
C18   C22   S    
C40   H5    S    
C31   C32   A    
C42   H84   S    
C22   H1    S    
C63   C64   S    
C3    C5    A    
C10   C13   S    
C41   H3    S    
C11   C12   S    
C74   H23   S    
C54   H32   S    
C51   H25   S    
C12   O12   A    
C70   H81   S    
C43   H11   S    
C5    N2    S    
C13   C15   S    
C19   C24   S    
C58   C59   S    
C71   C72   S    
C29   C31   A    
C64   C65   S    
C36   C38   A    
C30   C32   A    
C22   N3    S    
C57   C58   S    
C59   H38   S    
C52   H22   S    
C28   C30   A    
C26   C35   A    
C67   C74   A    
C9    C15   S    
C61   C62   S    
H47   O7    S    
C20   C47   S    
C25   C33   A    
C28   O4    S    
C46   H7    S    
C17   O17   A    
H82   O11   S    
C7    C13   S    
C12   O15   A    
C23   O7    S    
C54   H33   S    
C59   H39   S    
C56   O10   S    
C42   H67   S    
C47   H19   S    
C40   C41   S    
C60   H57   S    
C27   N1    A    
Cu2   O17   S    
C27   O3    S    
C57   H42   S    
C64   H63   S    
