data_mof_unit_43815.cif
_audit_creation_date              2012-12-11T14:46:02-0500
_audit_creation_method            fapswitch 2.2
_symmetry_space_group_name_H-M    P1
_symmetry_Int_Tables_number       1
_space_group_crystal_system       triclinic
_cell_length_a                    10.923411
_cell_length_b                    10.933839
_cell_length_c                    18.826902
_cell_angle_alpha                 89.948817
_cell_angle_beta                  90.078308
_cell_angle_gamma                 119.926238
_cell_volume                      1948.77789535

loop_
_atom_site_label
_atom_site_type_symbol
_atom_type_description
_atom_site_fract_x
_atom_site_fract_y
_atom_site_fract_z
_atom_type_partial_charge
C1    C     C_R   0.864812 0.637216 0.603637 0.541069
C2    C     C_R   0.426370 0.629461 0.777193 -0.115566
C3    C     C_R   0.404172 0.620167 0.704918 -0.122804
C4    C     C_R   0.321489 0.671290 0.675574 0.019592
C5    C     C_R   0.838484 0.161312 0.821084 -0.015625
C6    C     C_R   0.087933 0.224469 0.824537 -0.152923
C7    C     C_R   0.210384 0.248491 0.789746 -0.100283
C8    C     C_R   0.207986 0.225913 0.716961 0.359698
C9    C     C_R   0.084468 0.184096 0.678289 -0.050954
C10   C     C_R   0.962309 0.171529 0.711143 -0.048100
C11   C     C_R   0.961929 0.183011 0.786287 -0.021486
C12   C     C_R   0.270056 0.632499 0.603837 0.539393
C13   C     C_R   0.715789 0.113441 0.707224 0.012938
C14   C     C_R   0.723142 0.148428 0.779272 0.025691
C15   C     C_R   0.585469 0.059096 0.670964 -0.078998
C16   C     C_R   0.472942 0.065259 0.701635 -0.067949
C17   C     C_R   0.488474 0.124005 0.768685 -0.098487
C18   C     C_R   0.612992 0.167803 0.806720 -0.090523
C19   C     C_R   0.841670 0.149363 0.671168 -0.038115
C20   C     C_R   0.728422 0.533856 0.713897 -0.118177
C21   C     C_R   0.719389 0.545291 0.787022 -0.152503
C22   C     C_R   0.803016 0.675879 0.819631 0.023626
C23   C     C_R   0.860812 0.221333 0.601535 0.530747
C24   C     C_R   0.886034 0.796658 0.778287 -0.130992
C25   C     C_R   0.893331 0.785865 0.705902 -0.147605
C26   C     C_R   0.820353 0.653745 0.673703 0.018272
C27   C     C_R   0.233777 0.538892 0.275004 -0.080377
C28   C     C_R   0.251657 0.555871 0.202448 0.358770
C29   C     C_R   0.337759 0.690814 0.174419 0.027835
C30   C     C_R   0.395645 0.809637 0.219356 -0.168411
C31   C     C_R   0.375849 0.792225 0.292414 -0.092857
C32   C     C_R   0.299194 0.656166 0.320342 0.004267
C33   C     C_R   0.786206 0.252303 0.275147 -0.131246
C34   C     C_R   0.871226 0.636020 0.394958 0.561983
C35   C     C_R   0.785441 0.236067 0.202580 -0.124498
C36   C     C_R   0.850848 0.166192 0.173029 0.068727
C37   C     C_R   0.928387 0.124175 0.216398 -0.080214
C38   C     C_R   0.931391 0.143120 0.289550 -0.145930
C39   C     C_R   0.855569 0.202350 0.319179 0.015822
C40   C     C_R   0.967560 0.717172 0.275552 0.362329
C41   C     C_R   0.950870 0.716452 0.203174 -0.090151
C42   C     C_R   0.815594 0.649199 0.173899 -0.035024
C43   C     C_R   0.696990 0.568955 0.217062 -0.165851
C44   C     C_R   0.713783 0.565974 0.290092 -0.212996
C45   C     C_R   0.267432 0.631750 0.395249 0.546723
C46   C     C_R   0.848570 0.644708 0.319808 0.028471
C47   C     C_R   0.807469 0.105618 0.895046 0.535134
C48   C     C_R   0.399674 0.702313 0.895392 0.545923
C49   C     C_R   0.794228 0.696278 0.895011 0.543902
C50   C     C_R   0.808971 0.107639 0.102228 0.556849
C51   C     C_R   0.394509 0.704819 0.103389 0.577676
C52   C     C_R   0.797845 0.692405 0.103805 0.548368
C53   C     C_R   0.864199 0.234646 0.394157 0.537461
C54   C     C_R   0.265504 0.736782 0.718772 -0.133580
C55   C     C_R   0.290664 0.748958 0.791361 -0.135547
C56   C     C_R   0.367535 0.691265 0.820697 0.039095
Cr1   Cr    Cr6+3 0.791660 0.390250 0.499930 1.036618
Cr2   Cr    Cr6+3 0.098520 0.708290 0.500540 1.059107
Cr3   Cr    Cr6+3 0.109770 0.401430 0.499480 1.037782
Cr4   Cr    Cr6+3 0.874790 0.925890 0.000070 1.028346
Cr5   Cr    Cr6+3 0.574120 0.948670 0.999300 1.017203
Cr6   Cr    Cr6+3 0.551420 0.625320 0.000920 1.037911
H1    H     H_    0.197684 0.773484 0.696985 0.140807
H2    H     H_    0.375493 0.028816 0.672383 0.158866
H3    H     H_    0.572914 0.017636 0.617548 0.123639
H4    H     H_    0.650110 0.452955 0.818053 0.117718
H5    H     H_    0.946342 0.900494 0.801831 0.150898
H6    H     H_    0.963109 0.879574 0.675796 0.131835
H7    H     H_    0.167903 0.433459 0.295833 0.159016
H8    H     H_    0.463471 0.914843 0.198638 0.148494
H9    H     H_    0.247225 0.798973 0.824502 0.119962
H10   H     H_    0.422426 0.883606 0.326980 0.146300
H11   H     H_    0.732846 0.304986 0.296763 0.148443
H12   H     H_    0.726479 0.270626 0.170014 0.136012
H13   H     H_    0.979218 0.069225 0.194481 0.153292
H14   H     H_    0.989711 0.109109 0.322914 0.137314
H15   H     H_    0.043593 0.777106 0.170473 0.157215
H16   H     H_    0.591131 0.516281 0.195161 0.166569
H17   H     H_    0.621998 0.505695 0.323368 0.141137
H18   H     H_    0.489426 0.587631 0.799287 0.146740
H19   H     H_    0.446566 0.568156 0.672487 0.167214
H20   H     H_    0.307249 0.284678 0.819512 0.118131
H21   H     H_    0.094602 0.245333 0.880991 0.146190
H22   H     H_    0.085479 0.159802 0.622745 0.151748
H23   H     H_    0.622697 0.219440 0.857051 0.132461
O1    O     O_R   0.766500 0.250040 0.579790 -0.507929
O2    O     O_R   0.218690 0.701900 0.425960 -0.455468
O3    O     O_R   0.249490 0.516440 0.419420 -0.532551
O4    O     O_R   0.982880 0.281910 0.424890 -0.507771
O5    O     O_3   0.999980 0.499990 0.499980 -0.258031
O6    O     O_R   0.895110 0.806860 0.920430 -0.523815
O7    O     O_R   0.872260 0.046970 0.925000 -0.503363
O8    O     O_R   0.691430 0.085060 0.918550 -0.525034
O9    O     O_R   0.451490 0.822460 0.925250 -0.498011
O10   O     O_R   0.413330 0.603360 0.920440 -0.526905
O11   O     O_R   0.676110 0.626250 0.926750 -0.513630
O12   O     O_R   0.798570 0.516780 0.574780 -0.496712
O13   O     O_R   0.895350 0.809870 0.080950 -0.522430
O14   O     O_R   0.872490 0.049760 0.073800 -0.493989
O15   O     O_R   0.691680 0.088070 0.079070 -0.531381
O16   O     O_R   0.451720 0.825250 0.074050 -0.521304
O17   O     O_R   0.413580 0.606370 0.080960 -0.452757
O18   O     O_R   0.676340 0.629040 0.075550 -0.502295
O19   O     O_3   0.666780 0.833290 0.000090 -0.257020
O20   O     O_R   0.984000 0.732950 0.581090 -0.531304
O21   O     O_R   0.218600 0.700890 0.574760 -0.518875
O22   O     O_R   0.249390 0.515350 0.579940 -0.496235
O23   O     O_R   0.982790 0.280900 0.573700 -0.506706
O24   O     O_R   0.766600 0.251130 0.419260 -0.523582
O25   O     O_R   0.798660 0.517790 0.425980 -0.520657
O26   O     O_R   0.984100 0.734040 0.420570 -0.445887
H24   H     H_    0.403442 0.134011 0.791777 0.134027
H25   H     H_    0.670381 0.430372 0.689729 0.182461
F1    F     F_    0.190678 0.440029 0.160000 -0.633429
F2    F     F_    0.100871 0.789526 0.301837 -0.629436
F3    F     F_    0.326690 0.247820 0.683154 -0.679539

loop_
_geom_bond_atom_site_label_1
_geom_bond_atom_site_label_2
_ccdc_geom_bond_type
C55   C56   A    
C52   O18   A    
C48   O10   A    
Cr6   O11   S    
C21   H4    S    
C41   C42   A    
C14   C18   A    
Cr5   O16   S    
C35   C36   A    
Cr4   O14   S    
Cr2   O2    S    
C7    C8    A    
C35   H12   S    
C38   H14   S    
C51   O17   A    
C40   C46   A    
C5    C47   S    
C28   C29   A    
C50   O14   A    
C29   C30   A    
C48   O9    A    
C21   C22   A    
C36   C37   A    
C45   O2    A    
C39   C53   S    
C5    C11   A    
Cr4   O13   S    
Cr3   O4    S    
C30   C31   A    
C41   H15   S    
Cr5   O8    S    
C40   F2    S    
C54   H1    S    
C15   C16   A    
C15   H3    S    
Cr1   O1    S    
C32   C45   S    
Cr3   O3    S    
C24   H5    S    
Cr1   O24   S    
Cr1   O25   S    
Cr6   O10   S    
C8    C9    A    
C23   O1    A    
C3    H19   S    
C34   C46   S    
C4    C12   S    
C9    C10   A    
C27   H7    S    
C37   H13   S    
C13   C14   A    
C34   O26   A    
C25   H6    S    
C49   O6    A    
C47   O7    A    
C30   H8    S    
C44   C46   A    
Cr6   O19   S    
Cr4   O7    S    
C38   C39   A    
C18   H23   S    
Cr1   O5    S    
C13   C19   A    
C43   H16   S    
Cr2   O26   S    
C45   O3    A    
C24   C25   A    
C1    O12   A    
C6    C11   A    
Cr5   O9    S    
C16   C17   A    
C25   C26   A    
Cr3   O22   S    
Cr2   O21   S    
Cr3   O5    S    
C19   C23   S    
C43   C44   A    
C37   C38   A    
C31   C32   A    
C10   C19   A    
Cr1   O12   S    
Cr5   O19   S    
C17   C18   A    
C47   O8    A    
C33   C39   A    
Cr2   O5    S    
C5    C14   A    
C28   F1    S    
C22   C49   S    
C33   H11   S    
C40   C41   A    
C13   C15   A    
C53   O4    A    
C1    C26   S    
C34   O25   A    
C22   C24   A    
Cr5   O15   S    
C42   C43   A    
C3    C4    A    
C17   H24   S    
C36   C50   S    
Cr6   O18   S    
C29   C51   S    
Cr4   O6    S    
C53   O24   A    
C48   C56   S    
C54   C55   A    
C31   H10   S    
C6    H21   S    
C4    C54   A    
C27   C32   A    
C44   H17   S    
C12   O22   A    
C6    C7    A    
C51   O16   A    
C50   O15   A    
Cr3   O23   S    
Cr2   O20   S    
C2    C3    A    
C2    C56   A    
C12   O21   A    
C20   H25   S    
C20   C26   A    
C23   O23   A    
C52   O13   A    
C33   C35   A    
C49   O11   A    
C2    H18   S    
C10   C11   A    
C8    F3    S    
C9    H22   S    
C7    H20   S    
C20   C21   A    
C1    O20   A    
C27   C28   A    
C16   H2    S    
Cr4   O19   S    
C55   H9    S    
C42   C52   S    
Cr6   O17   S    
