data_mof_unit_68335.cif
_audit_creation_date              2012-12-10T18:39:02-0500
_audit_creation_method            fapswitch 2.2
_symmetry_space_group_name_H-M    P1
_symmetry_Int_Tables_number       1
_space_group_crystal_system       triclinic
_cell_length_a                    11.193298
_cell_length_b                    11.885643
_cell_length_c                    10.673777
_cell_angle_alpha                 92.353285
_cell_angle_beta                  89.720334
_cell_angle_gamma                 89.878966
_cell_volume                      1418.81612226

loop_
_atom_site_label
_atom_site_type_symbol
_atom_type_description
_atom_site_fract_x
_atom_site_fract_y
_atom_site_fract_z
_atom_type_partial_charge
Br1   Br    Br    0.142979 0.547318 0.786466 -0.481320
Br2   Br    Br    0.120857 0.528847 0.219229 -0.511257
Br3   Br    Br    0.875898 0.567343 0.777585 -0.511763
Br4   Br    Br    0.855383 0.493817 0.206852 -0.491756
C1    C     C_R   0.501510 0.280411 0.497491 0.886850
C2    C     C_R   0.501549 0.719670 0.501777 0.817652
C3    C     C_1   0.504020 0.160007 0.492484 -0.234264
C4    C     C_3   0.077860 0.458866 0.633092 0.114926
C5    C     C_3   0.067047 0.448080 0.367649 0.123877
C6    C     C_3   0.931946 0.466363 0.635319 0.128850
C7    C     C_3   0.921306 0.443261 0.375279 0.149111
C8    C     C_1   0.505255 0.058910 0.493856 -0.029394
C9    C     C_3   0.074695 0.661401 0.504553 0.009582
C10   C     C_3   0.923055 0.658968 0.479706 0.005531
C11   C     C_R   0.140768 0.338030 0.668466 0.115660
C12   C     C_3   0.120849 0.518986 0.499762 -0.178915
C13   C     C_R   0.168234 0.250039 0.580983 -0.257555
C14   C     C_R   0.237589 0.155522 0.605687 -0.122036
C15   C     C_R   0.287765 0.143578 0.721724 -0.088928
C16   C     C_R   0.262043 0.222940 0.815067 -0.163729
C17   C     C_R   0.186236 0.313001 0.792067 -0.036585
C18   C     C_R   0.121658 0.335946 0.298592 0.108354
C19   C     C_R   0.240174 0.295134 0.313887 -0.068961
C20   C     C_R   0.292658 0.213337 0.233550 -0.156866
C21   C     C_R   0.229124 0.166708 0.133521 -0.160694
C22   C     C_R   0.112824 0.200233 0.114594 -0.168133
C23   C     C_3   0.878947 0.520746 0.499613 -0.172120
C24   C     C_R   0.061303 0.283642 0.193100 -0.015707
C25   C     C_R   0.875639 0.358264 0.697293 0.089054
C26   C     C_R   0.774151 0.297341 0.653148 -0.069188
C27   C     C_R   0.711578 0.223985 0.729022 -0.129014
C28   C     C_R   0.747216 0.207275 0.850899 -0.154006
C29   C     C_R   0.849634 0.258377 0.895458 -0.121848
C30   C     C_R   0.912643 0.331283 0.820818 -0.058444
C31   C     C_R   0.864810 0.319918 0.371744 0.037958
C32   C     C_R   0.919730 0.233382 0.432514 -0.248316
C33   C     C_R   0.909231 0.121572 0.392455 -0.129379
C34   C     C_1   0.503092 0.840065 0.503299 -0.187878
C35   C     C_R   0.822873 0.088900 0.305671 -0.100678
C36   C     C_R   0.746350 0.170003 0.261606 -0.194128
C37   C     C_R   0.765608 0.283589 0.294648 -0.053703
C38   C     C_R   0.117676 0.728130 0.632014 0.128396
C39   C     C_R   0.242452 0.745781 0.646592 -0.035243
C40   C     C_R   0.293524 0.813552 0.742009 -0.118003
C41   C     C_R   0.221247 0.869260 0.829759 -0.125620
C42   C     C_R   0.098885 0.854404 0.823456 -0.117957
C43   C     C_R   0.048495 0.783607 0.729927 -0.040442
C44   C     C_R   0.143403 0.749826 0.414602 0.023550
C45   C     C_1   0.504481 0.940963 0.499462 0.016753
C46   C     C_R   0.242481 0.727626 0.332046 -0.108291
C47   C     C_R   0.297368 0.807130 0.259106 -0.131425
C48   C     C_R   0.262472 0.917490 0.269359 -0.112108
C49   C     C_R   0.174830 0.948980 0.355025 -0.147948
C50   C     C_R   0.123363 0.868888 0.431394 -0.202537
C51   C     C_R   0.851326 0.755899 0.562652 0.014045
C52   C     C_R   0.754186 0.742056 0.647505 -0.110496
C53   C     C_R   0.707531 0.827460 0.726278 -0.144521
C54   C     C_R   0.745229 0.935909 0.714088 -0.137402
C55   C     C_R   0.821612 0.959433 0.616690 -0.113928
C56   C     C_R   0.256548 0.509159 0.500061 0.854121
C57   C     C_R   0.866374 0.871515 0.537620 -0.199711
C58   C     C_R   0.879656 0.702611 0.344761 0.118528
C59   C     C_R   0.755132 0.719443 0.328606 -0.037563
C60   C     C_R   0.703017 0.762737 0.222063 -0.119254
C61   C     C_R   0.774185 0.793221 0.123058 -0.137043
C62   C     C_R   0.896739 0.781884 0.132554 -0.078634
C63   C     C_R   0.948340 0.739382 0.240174 -0.041364
C64   C     C_R   0.743060 0.511049 0.500314 0.837163
C65   C     C_1   0.500004 0.499996 0.069480 0.079743
C66   C     C_1   0.500010 0.499987 0.930522 0.101312
H1    H     H_    0.135384 0.248677 0.491851 0.123511
H2    H     H_    0.975124 0.309887 0.164570 0.178844
H3    H     H_    0.737152 0.307689 0.562373 0.140440
H4    H     H_    0.633300 0.180591 0.694735 0.145908
H5    H     H_    0.695410 0.154653 0.911143 0.114089
H6    H     H_    0.876066 0.246469 0.990937 0.133097
H7    H     H_    0.980010 0.379846 0.868826 0.195829
H8    H     H_    0.962360 0.252166 0.517436 0.138797
H9    H     H_    0.965514 0.061352 0.434844 0.121157
H10   H     H_    0.811584 0.001139 0.277723 0.138763
H11   H     H_    0.674096 0.145648 0.199174 0.127052
H12   H     H_    0.256776 0.092923 0.532875 0.142110
H13   H     H_    0.703559 0.340547 0.253436 0.207022
H14   H     H_    0.299199 0.708912 0.577639 0.132128
H15   H     H_    0.389324 0.824465 0.746534 0.134350
H16   H     H_    0.259905 0.923063 0.903079 0.113638
H17   H     H_    0.042217 0.896948 0.892851 0.117906
H18   H     H_    0.956931 0.771602 0.746723 0.202471
H19   H     H_    0.282911 0.651357 0.313396 0.233654
H20   H     H_    0.369836 0.782748 0.195850 0.135353
H21   H     H_    0.309832 0.978280 0.216698 0.122961
H22   H     H_    0.152846 0.037084 0.367450 0.142575
H23   H     H_    0.345925 0.073133 0.739162 0.120948
H24   H     H_    0.079692 0.903887 0.513515 0.146963
H25   H     H_    0.711205 0.667891 0.663397 0.224488
H26   H     H_    0.639433 0.809234 0.795040 0.134986
H27   H     H_    0.707342 0.001066 0.774260 0.124525
H28   H     H_    0.841366 0.046173 0.601051 0.154832
H29   H     H_    0.904337 0.893520 0.450212 0.134776
H30   H     H_    0.698644 0.702901 0.404334 0.141002
H31   H     H_    0.607236 0.773897 0.217214 0.140292
H32   H     H_    0.734777 0.826511 0.039847 0.128154
H33   H     H_    0.952949 0.805330 0.055394 0.145529
H34   H     H_    0.302163 0.215876 0.905914 0.133603
H35   H     H_    0.041298 0.733399 0.229021 0.200834
H36   H     H_    0.169177 0.361782 0.877358 0.176525
H37   H     H_    0.290148 0.316193 0.395406 0.162898
H38   H     H_    0.382427 0.183995 0.250639 0.144043
H39   H     H_    0.269503 0.103388 0.071091 0.111823
H40   H     H_    0.063531 0.163815 0.036051 0.127145
N1    N     N_1   0.500000 0.500010 0.180630 -0.083677
N2    N     N_1   0.500000 0.500010 0.819370 -0.064347
O1    O     O_R   0.500000 0.334450 0.602530 -0.597197
O2    O     O_R   0.500000 0.334450 0.397470 -0.640883
O3    O     O_R   0.314800 0.499980 0.602530 -0.562581
O4    O     O_R   0.314800 0.499980 0.397470 -0.631648
O5    O     O_R   0.685200 0.499980 0.602530 -0.612534
O6    O     O_R   0.685200 0.499980 0.397470 -0.598222
O7    O     O_R   0.500000 0.665550 0.602530 -0.642220
O8    O     O_R   0.500000 0.665550 0.397470 -0.644123
Zn1   Zn    Zn3+2 0.500000 0.500000 0.636920 1.010088
Zn2   Zn    Zn3+2 0.500000 0.500000 0.363080 0.967361

loop_
_geom_bond_atom_site_label_1
_geom_bond_atom_site_label_2
_ccdc_geom_bond_type
C6    C23   S    
C52   H25   S    
C51   C52   A    
O3    Zn1   S    
C1    O2    A    
Br1   C4    S    
C15   C16   A    
C28   H5    S    
C8    C45   S    
C34   C45   T    
C57   H29   S    
C49   C50   A    
C48   C49   A    
C44   C50   A    
C33   H9    S    
C59   H30   S    
O4    Zn2   S    
C58   C63   A    
C32   C33   A    
C5    C12   S    
C47   H20   S    
C12   C56   S    
C26   C27   A    
C5    C18   S    
C10   C58   S    
C52   C53   A    
C14   C15   A    
O6    Zn2   S    
O5    Zn1   S    
C23   C64   S    
C29   H6    S    
C64   O6    A    
C58   C59   A    
C31   C32   A    
C53   H26   S    
C19   C20   A    
C2    C34   S    
C20   H38   S    
C43   H18   S    
C10   C23   S    
C22   H40   S    
C17   H36   S    
C15   H23   S    
C21   H39   S    
C44   C46   A    
C10   C51   S    
C4    C12   S    
C18   C24   A    
C9    C10   S    
N1    Zn2   S    
C39   H14   S    
C24   H2    S    
C54   H27   S    
C61   H32   S    
C62   H33   S    
C2    O8    A    
C9    C38   S    
O8    Zn2   S    
C29   C30   A    
O7    Zn1   S    
C60   H31   S    
C55   C57   A    
C47   C48   A    
C20   C21   A    
C35   C36   A    
C1    C3    S    
C26   H3    S    
C63   H35   S    
C27   H4    S    
C46   C47   A    
C21   C22   A    
C41   C42   A    
C25   C30   A    
C39   C40   A    
C25   C26   A    
C64   O5    A    
C46   H19   S    
C27   C28   A    
C7    C23   S    
C19   H37   S    
C30   H7    S    
C49   H22   S    
C13   C14   A    
Br4   C7    S    
C5    C7    S    
C66   N2    T    
C36   C37   A    
C13   H1    S    
C4    C11   S    
C3    C8    T    
C56   O4    A    
C38   C39   A    
C40   H15   S    
C2    O7    A    
C40   C41   A    
C42   H17   S    
C11   C13   A    
C42   C43   A    
C1    O1    A    
C36   H11   S    
C48   H21   S    
C9    C44   S    
C16   H34   S    
C22   C24   A    
C35   H10   S    
C7    C31   S    
C41   H16   S    
C54   C55   A    
N2    Zn1   S    
C33   C35   A    
Br3   C6    S    
C32   H8    S    
C28   C29   A    
C65   N1    T    
C6    C25   S    
C53   C54   A    
C51   C57   A    
C60   C61   A    
C14   H12   S    
C62   C63   A    
C38   C43   A    
C65   C66   S    
C31   C37   A    
C50   H24   S    
C59   C60   A    
O2    Zn2   S    
C11   C17   A    
O1    Zn1   S    
C16   C17   A    
C4    C6    S    
C61   C62   A    
C9    C12   S    
C55   H28   S    
C18   C19   A    
C56   O3    A    
Br2   C5    S    
C37   H13   S    
