data_mof_unit_36722.cif
_audit_creation_date              2012-12-10T17:36:49-0500
_audit_creation_method            fapswitch 2.2
_symmetry_space_group_name_H-M    P1
_symmetry_Int_Tables_number       1
_space_group_crystal_system       triclinic
_cell_length_a                    10.632746
_cell_length_b                    12.324523
_cell_length_c                    13.171958
_cell_angle_alpha                 116.672816
_cell_angle_beta                  77.826917
_cell_angle_gamma                 100.883503
_cell_volume                      1498.94983138

loop_
_atom_site_label
_atom_site_type_symbol
_atom_type_description
_atom_site_fract_x
_atom_site_fract_y
_atom_site_fract_z
_atom_type_partial_charge
C1    C     C_R   0.511421 0.854880 0.286548 0.767548
C2    C     C_3   0.021045 0.026479 0.604551 0.177457
C3    C     C_3   0.935269 0.916365 0.533219 0.171460
C4    C     C_3   0.876329 0.999059 0.501844 -0.018143
C5    C     C_R   0.321547 0.275758 0.021501 0.166118
C6    C     C_R   0.451896 0.228143 0.834731 -0.078982
C7    C     C_R   0.597266 0.813808 0.084912 -0.195568
C8    C     C_R   0.622034 0.734324 0.969881 -0.149579
C9    C     C_R   0.574728 0.611583 0.932342 -0.180814
C10   C     C_R   0.496731 0.566150 0.009447 0.092912
C11   C     C_R   0.458715 0.650740 0.123616 0.087664
C12   C     C_R   0.740033 0.999609 0.500676 0.795043
C13   C     C_R   0.454099 0.439862 0.976637 0.034672
C14   C     C_R   0.363875 0.401327 0.053716 0.148452
C15   C     C_R   0.315181 0.489169 0.160401 -0.223975
C16   C     C_R   0.360581 0.611574 0.194178 -0.220520
C17   C     C_R   0.500092 0.350592 0.869537 -0.262340
C18   C     C_R   0.365045 0.190164 0.911102 -0.213952
C19   C     C_R   0.518558 0.772838 0.163356 -0.100019
C20   C     C_R   0.704432 0.344585 0.326648 -0.301909
C21   C     C_R   0.325360 0.760554 0.646014 0.074558
C22   C     C_R   0.287606 0.664363 0.677803 -0.257455
C23   C     C_R   0.480360 0.145143 0.713453 0.817326
C24   C     C_R   0.352988 0.560316 0.622510 -0.192107
C25   C     C_R   0.457605 0.551223 0.534108 -0.007045
C26   C     C_R   0.492760 0.652342 0.504547 0.300308
C27   C     C_R   0.528934 0.446455 0.474413 -0.037338
C28   C     C_R   0.632619 0.444997 0.386363 0.179350
C29   C     C_R   0.664801 0.543996 0.358698 -0.302030
C30   C     C_R   0.597132 0.645526 0.416988 -0.185690
C31   C     C_R   0.502700 0.342317 0.497923 0.013689
C32   C     C_R   0.673842 0.245514 0.354123 0.073782
C33   C     C_R   0.260067 0.000814 0.500019 0.809202
C34   C     C_3   0.979045 0.973973 0.394335 -0.200442
C35   C     C_3   0.038355 0.889189 0.426247 -0.255154
C36   C     C_3   0.124072 0.001742 0.499401 -0.016091
C37   C     C_3   0.067126 0.086306 0.467268 -0.156522
C38   C     C_3   0.962359 0.111682 0.574949 -0.189720
Cu1   Cu    Cu3+1 0.529830 0.098270 0.475420 0.932164
Cu2   Cu    Cu3+1 0.470170 0.901730 0.524580 0.927589
H1    H     H_    0.071014 0.798433 0.366363 0.137494
H2    H     H_    0.573297 0.373720 0.810130 0.153236
H3    H     H_    0.642338 0.907107 0.112901 0.150921
H4    H     H_    0.598448 0.555623 0.841883 0.130908
H5    H     H_    0.681719 0.767258 0.909824 0.145518
H6    H     H_    0.314732 0.675143 0.275353 0.171888
H7    H     H_    0.728600 0.167476 0.308243 0.122353
H8    H     H_    0.744550 0.543825 0.291961 0.152855
H9    H     H_    0.783806 0.342842 0.259231 0.141727
H10   H     H_    0.425517 0.335218 0.562997 0.126802
H11   H     H_    0.274257 0.841060 0.689521 0.118465
H12   H     H_    0.958826 0.952719 0.307643 0.137573
H13   H     H_    0.319692 0.488723 0.650668 0.137826
H14   H     H_    0.207467 0.670511 0.745598 0.142795
H15   H     H_    0.631945 0.717615 0.391414 0.206719
H16   H     H_    0.124213 0.155961 0.439384 0.148696
H17   H     H_    0.929310 0.201751 0.636552 0.139368
H18   H     H_    0.327889 0.094680 0.883578 0.144574
H19   H     H_    0.241461 0.464009 0.218923 0.171410
N1    N     N_R   0.575030 0.246270 0.438190 -0.181471
N2    N     N_R   0.425760 0.754330 0.561190 -0.205318
O1    O     O_R   0.537510 0.972500 0.318130 -0.582013
O2    O     O_R   0.487140 0.806530 0.359650 -0.605406
O3    O     O_R   0.708330 0.082950 0.479220 -0.585465
O4    O     O_R   0.657960 0.916980 0.520740 -0.582317
O5    O     O_R   0.512860 0.193470 0.640350 -0.587341
O6    O     O_R   0.462490 0.027500 0.681870 -0.584627
O7    O     O_R   0.342040 0.083020 0.479260 -0.587116
O8    O     O_R   0.291670 0.917050 0.520780 -0.600189
N3    N     N_3   0.046716 0.054994 0.718732 -0.602112
H20   H     H_    0.957626 0.062012 0.771821 0.226097
H21   H     H_    0.084664 0.980098 0.713489 0.206615
N4    N     N_3   0.863276 0.825693 0.571971 -0.580771
H22   H     H_    0.929308 0.793246 0.597474 0.204998
H23   H     H_    0.830358 0.752016 0.500298 0.226692
N5    N     N_3   0.232031 0.236131 0.099761 -0.613486
H24   H     H_    0.281611 0.249107 0.165656 0.214900
H25   H     H_    0.203194 0.142448 0.059495 0.213299

loop_
_geom_bond_atom_site_label_1
_geom_bond_atom_site_label_2
_ccdc_geom_bond_type
C34   C37   S    
Cu1   O7    S    
C30   H15   S    
C35   C36   S    
C1    O1    A    
C7    C8    A    
C22   H14   S    
Cu1   O3    S    
C11   C19   A    
C20   H9    S    
Cu2   O2    S    
C23   O5    A    
C36   C37   S    
C26   N2    A    
N5    H25   S    
C12   O3    A    
Cu1   N1    S    
C15   C16   A    
C33   C36   S    
C34   C35   S    
N4    H22   S    
C23   O6    A    
Cu1   O1    S    
C17   H2    S    
C13   C14   A    
C8    H5    S    
C37   H16   S    
C18   H18   S    
C8    C9    A    
Cu2   O6    S    
N3    H20   S    
C7    H3    S    
C4    C12   S    
C29   C30   A    
C9    C10   A    
C21   N2    A    
C33   O8    A    
C21   C22   A    
N4    H23   S    
C35   H1    S    
C1    O2    A    
C6    C18   A    
C4    C34   S    
C1    C19   S    
Cu2   O8    S    
C29   H8    S    
C27   C31   A    
N5    H24   S    
C16   H6    S    
Cu1   Cu2   S    
C5    C18   A    
C20   C28   A    
C25   C26   A    
Cu2   N2    S    
C31   N1    A    
C37   C38   S    
C38   H17   S    
C11   C16   A    
C2    C38   S    
C3    C35   S    
C24   C25   A    
C5    C14   A    
C4    C38   S    
C26   C30   A    
C7    C19   A    
Cu2   O4    S    
Cu1   O5    S    
C22   C24   A    
C32   N1    A    
C31   H10   S    
C3    C4    S    
C21   H11   S    
C20   C32   A    
C2    C36   S    
C6    C17   A    
C28   C29   A    
C9    H4    S    
C15   H19   S    
C10   C13   A    
C25   C27   A    
C12   O4    A    
C34   H12   S    
C13   C17   A    
C5    N5    S    
C2    C3    S    
C24   H13   S    
C6    C23   S    
C32   H7    S    
C3    N4    S    
C10   C11   A    
C27   C28   A    
C14   C15   A    
N3    H21   S    
C2    N3    S    
C33   O7    A    
