data_mof_unit_28015.cif
_audit_creation_date              2012-12-10T20:31:51-0500
_audit_creation_method            fapswitch 2.2
_symmetry_space_group_name_H-M    P1
_symmetry_Int_Tables_number       1
_space_group_crystal_system       triclinic
_cell_length_a                    9.877281
_cell_length_b                    10.686815
_cell_length_c                    15.49418
_cell_angle_alpha                 90.004184
_cell_angle_beta                  68.20117
_cell_angle_gamma                 89.50129
_cell_volume                      1518.49693504

loop_
_atom_site_label
_atom_site_type_symbol
_atom_type_description
_atom_site_fract_x
_atom_site_fract_y
_atom_site_fract_z
_atom_type_partial_charge
C1    C     C_R   0.501454 0.740171 0.496921 0.893406
C2    C     C_R   0.428660 0.438645 0.906673 0.097032
C3    C     C_R   0.289632 0.388070 0.956840 0.176447
C4    C     C_R   0.537195 0.440658 0.945779 0.071694
C5    C     C_R   0.496787 0.414332 0.041342 0.068520
C6    C     C_R   0.357305 0.362914 0.090331 -0.230191
C7    C     C_R   0.256598 0.347905 0.047839 -0.241052
C8    C     C_R   0.684968 0.466969 0.892111 -0.234878
C9    C     C_R   0.786024 0.483215 0.933736 -0.247078
C10   C     C_R   0.742023 0.476978 0.029927 0.179135
C11   C     C_R   0.596834 0.442630 0.084505 0.095675
C12   C     C_R   0.409058 0.497623 0.675882 0.865070
C13   C     C_R   0.840061 0.508552 0.072592 -0.217627
C14   C     C_R   0.793335 0.512606 0.169098 -0.201060
C15   C     C_R   0.552571 0.448369 0.181023 -0.254510
C16   C     C_R   0.393956 0.937717 0.473357 0.077225
C17   C     C_R   0.511087 0.871598 0.480969 -0.114758
C18   C     C_R   0.641223 0.934208 0.469212 -0.218858
C19   C     C_R   0.642107 0.063611 0.468804 -0.208834
C20   C     C_R   0.512920 0.128879 0.480016 -0.186122
C21   C     C_R   0.395098 0.065587 0.472666 0.196240
C22   C     C_3   0.236294 0.075520 0.530798 0.245240
C23   C     C_R   0.502609 0.260030 0.496465 0.881560
C24   C     C_3   0.234856 0.933619 0.531657 -0.559673
C25   C     C_R   0.882778 0.529495 0.578864 0.228144
C26   C     C_R   0.972192 0.459687 0.424697 -0.145171
C27   C     C_R   0.115966 0.459623 0.424701 -0.066919
C28   C     C_R   0.025028 0.527824 0.579236 0.201195
C29   C     C_3   0.000148 0.646973 0.632628 -0.525558
C30   C     C_3   0.848127 0.651020 0.630165 -0.506594
C31   C     C_R   0.591003 0.497722 0.324178 0.871924
C32   C     C_R   0.355306 0.474742 0.775750 -0.056224
C33   C     C_R   0.648020 0.485979 0.223242 -0.054725
C34   C     C_R   0.186154 0.378407 0.914778 -0.224068
C35   C     C_R   0.219906 0.419717 0.823658 -0.216236
C36   C     C_R   0.454041 0.489699 0.819513 -0.254068
H1    H     H_    0.151321 0.307566 0.087092 0.152520
H2    H     H_    0.951049 0.534755 0.031456 0.150630
H3    H     H_    0.738324 0.884543 0.467419 0.172576
H4    H     H_    0.739478 0.111319 0.466952 0.181121
H5    H     H_    0.212431 0.120602 0.599818 0.092972
H6    H     H_    0.213321 0.894296 0.601911 0.166693
H7    H     H_    0.170702 0.892515 0.493133 0.228431
H8    H     H_    0.954036 0.429083 0.363359 0.146326
H9    H     H_    0.205386 0.428430 0.363321 0.148173
H10   H     H_    0.000821 0.632954 0.703574 0.199198
H11   H     H_    0.441148 0.430416 0.224863 0.149519
H12   H     H_    0.070926 0.722666 0.592262 0.218624
H13   H     H_    0.761634 0.643010 0.700153 0.192426
H14   H     H_    0.831652 0.728689 0.587184 0.214069
H15   H     H_    0.869001 0.540550 0.201123 0.156953
H16   H     H_    0.897414 0.506087 0.890776 0.145536
H17   H     H_    0.080998 0.336325 0.951461 0.146775
H18   H     H_    0.142731 0.405449 0.790030 0.151845
H19   H     H_    0.552045 0.540964 0.783595 0.143950
H20   H     H_    0.324683 0.329636 0.160810 0.149483
H21   H     H_    0.726034 0.472724 0.817262 0.147050
N1    N     N_R   0.856900 0.500860 0.500610 -0.108821
N2    N     N_R   0.142540 0.500820 0.500610 -0.105026
O1    O     O_R   0.385310 0.683210 0.499990 -0.608841
O2    O     O_R   0.614650 0.683240 0.500000 -0.623445
O3    O     O_R   0.319830 0.499970 0.632240 -0.618861
O4    O     O_R   0.549170 0.500000 0.632250 -0.612257
O5    O     O_R   0.385350 0.316760 0.500000 -0.593406
O6    O     O_R   0.614690 0.316790 0.500010 -0.615732
O7    O     O_R   0.450830 0.500000 0.367750 -0.622476
O8    O     O_R   0.680170 0.500030 0.367760 -0.622888
Zn1   Zn    Zn3+2 0.346870 0.499980 0.499990 0.958089
Zn2   Zn    Zn3+2 0.653130 0.500020 0.500010 0.942278
O9    O     O_3   0.158088 0.126445 0.479819 -0.736936
H22   H     H_    0.054804 0.130168 0.523298 0.329149

loop_
_geom_bond_atom_site_label_1
_geom_bond_atom_site_label_2
_ccdc_geom_bond_type
C31   O7    A    
O7    Zn1   S    
C18   H3    S    
C31   C33   S    
N1    Zn2   S    
O9    H22   S    
C15   H11   S    
N2    Zn1   S    
C24   H6    S    
C9    C10   A    
C1    C17   S    
C19   C20   A    
C3    C34   A    
C20   C23   S    
O3    Zn1   S    
C29   H10   S    
C4    C8    A    
C27   H9    S    
C14   C33   A    
C17   C18   A    
C13   H2    S    
C26   H8    S    
C16   C24   S    
C36   H19   S    
C27   N2    A    
C21   C22   S    
C12   C32   S    
C35   H18   S    
C31   O8    A    
C26   N1    A    
C23   O6    A    
C26   C27   A    
C29   C30   S    
C9    H16   S    
C11   C15   A    
O6    Zn2   S    
C2    C4    A    
O5    Zn1   S    
C23   O5    A    
C30   H13   S    
C22   O9    S    
C5    C11   A    
C6    C7    A    
C2    C3    A    
C2    C36   A    
C14   H15   S    
C7    H1    S    
C5    C6    A    
C30   H14   S    
C22   C24   S    
C28   N2    A    
C22   H5    S    
C16   C17   A    
C19   H4    S    
C25   C28   A    
C29   H12   S    
C25   N1    A    
C13   C14   A    
C28   C29   S    
C32   C35   A    
C32   C36   A    
C12   O3    A    
C20   C21   A    
O1    Zn1   S    
C34   H17   S    
C34   C35   A    
C10   C11   A    
C1    O1    A    
O2    Zn2   S    
C25   C30   S    
C24   H7    S    
C18   C19   A    
C4    C5    A    
C3    C7    A    
C12   O4    A    
C16   C21   A    
C15   C33   A    
C8    H21   S    
O4    Zn2   S    
C6    H20   S    
C8    C9    A    
O8    Zn2   S    
C10   C13   A    
C1    O2    A    
