data_mof_unit_59361.cif
_audit_creation_date              2012-12-10T16:59:15-0500
_audit_creation_method            fapswitch 2.2
_symmetry_space_group_name_H-M    P1
_symmetry_Int_Tables_number       1
_space_group_crystal_system       triclinic
_cell_length_a                    7.851608
_cell_length_b                    8.545179
_cell_length_c                    27.75934
_cell_angle_alpha                 92.06412
_cell_angle_beta                  86.300106
_cell_angle_gamma                 93.136572
_cell_volume                      1854.81562997

loop_
_atom_site_label
_atom_site_type_symbol
_atom_type_description
_atom_site_fract_x
_atom_site_fract_y
_atom_site_fract_z
_atom_type_partial_charge
C1    C     C_R   0.545020 0.794172 0.498817 0.973742
C2    C     C_R   0.544322 0.645215 0.127554 -0.021025
C3    C     C_R   0.501593 0.492227 0.646375 -0.040973
C4    C     C_R   0.498430 0.507753 0.353625 -0.040857
C5    C     C_R   0.540620 0.643368 0.025701 0.048225
C6    C     C_R   0.459717 0.356483 0.974290 0.048236
C7    C     C_R   0.463487 0.358462 0.025309 0.048227
C8    C     C_R   0.536818 0.641395 0.974683 0.048225
C9    C     C_R   0.503505 0.501964 0.050670 0.071845
C10   C     C_R   0.496804 0.497894 0.949322 0.071843
C11   C     C_R   0.580770 0.782405 0.052921 -0.227099
C12   C     C_R   0.454980 0.205828 0.501183 0.973597
C13   C     C_R   0.419621 0.217437 0.947069 -0.227103
C14   C     C_R   0.581875 0.782997 0.102783 -0.139424
C15   C     C_R   0.418482 0.216857 0.897207 -0.139415
C16   C     C_R   0.501693 0.498429 0.593753 0.863728
C17   C     C_R   0.498308 0.501564 0.406247 0.863733
C18   C     C_R   0.571456 0.778630 0.947845 -0.225867
C19   C     C_R   0.428795 0.221237 0.052148 -0.225892
C20   C     C_2   0.568843 0.957569 0.498126 -0.349716
C21   C     C_2   0.431157 0.042431 0.501873 -0.349769
C22   C     C_R   0.526744 0.629912 0.822567 0.505335
C23   C     C_R   0.494020 0.495749 0.898276 -0.049599
C24   C     C_R   0.473446 0.369982 0.177428 0.505327
C25   C     C_R   0.457024 0.354593 0.822040 0.508158
C26   C     C_R   0.543205 0.645295 0.177953 0.508162
C27   C     C_R   0.345080 0.453923 0.723517 -0.099171
C28   C     C_R   0.654988 0.546141 0.276495 -0.099105
C29   C     C_R   0.348008 0.455434 0.673458 -0.187223
C30   C     C_R   0.652009 0.544664 0.326554 -0.187421
C31   C     C_R   0.651758 0.525692 0.670186 -0.201999
C32   C     C_R   0.348322 0.474123 0.329801 -0.201656
C33   C     C_R   0.649188 0.522998 0.720180 -0.089863
C34   C     C_R   0.506257 0.504119 0.101717 -0.049599
C35   C     C_R   0.350938 0.476797 0.279806 -0.089967
C36   C     C_R   0.495660 0.488245 0.746907 0.306331
C37   C     C_R   0.504462 0.511673 0.253090 0.306254
C38   C     C_2   0.018091 0.409134 0.441036 1.103842
C39   C     C_2   0.981884 0.591032 0.558948 1.103667
C40   C     C_R   0.529588 0.634655 0.872894 -0.020697
C41   C     C_R   0.470643 0.365224 0.127100 -0.020687
C42   C     C_R   0.567605 0.774946 0.898030 -0.141349
C43   C     C_R   0.432617 0.224933 0.101964 -0.141352
C44   C     C_R   0.455964 0.354654 0.872439 -0.021022
H1    H     H_    0.769880 0.557721 0.650605 0.196066
H2    H     H_    0.225900 0.427369 0.744180 0.150114
H3    H     H_    0.612997 0.892636 0.121875 0.195306
H4    H     H_    0.387391 0.107215 0.878115 0.195297
H5    H     H_    0.612695 0.894051 0.037137 0.141509
H6    H     H_    0.387774 0.105777 0.962850 0.141486
H7    H     H_    0.602455 0.892096 0.963897 0.140077
H8    H     H_    0.397756 0.107778 0.036098 0.140107
H9    H     H_    0.699355 0.007479 0.494529 0.207075
H10   H     H_    0.300645 0.992521 0.505470 0.207013
H11   H     H_    0.125793 0.236662 0.399979 0.318142
H12   H     H_    0.230217 0.441959 0.349372 0.195917
H13   H     H_    0.873374 0.763315 0.599906 0.318148
H14   H     H_    0.765924 0.549865 0.738276 0.148338
H15   H     H_    0.234244 0.449808 0.261701 0.148379
H16   H     H_    0.595755 0.883188 0.879235 0.192908
H17   H     H_    0.404429 0.116701 0.120760 0.192932
H18   H     H_    0.769830 0.572326 0.343975 0.207518
H19   H     H_    0.230149 0.427877 0.656047 0.207599
H20   H     H_    0.774169 0.572782 0.255842 0.150180
N1    N     N_R   0.492388 0.490967 0.798333 -0.359107
N2    N     N_R   0.507790 0.508933 0.201663 -0.359086
N3    N     N_2   0.950320 0.457960 0.486880 -0.188056
N4    N     N_2   0.049680 0.542040 0.513120 -0.188047
O1    O     O_R   0.389250 0.738570 0.503220 -0.630474
O2    O     O_2   0.442876 0.236875 0.202052 -0.532577
O3    O     O_2   0.575301 0.780594 0.203177 -0.530308
O4    O     O_2   0.424920 0.219300 0.796813 -0.530278
O5    O     O_2   0.998628 0.488402 0.406309 -0.676936
O6    O     O_R   0.090899 0.263641 0.434934 -0.805290
O7    O     O_2   0.001877 0.512204 0.593733 -0.677091
O8    O     O_R   0.908440 0.736253 0.564968 -0.805069
O9    O     O_R   0.610750 0.261430 0.496780 -0.630412
O10   O     O_R   0.678390 0.711630 0.494810 -0.588935
O11   O     O_R   0.321610 0.288370 0.505190 -0.589278
O12   O     O_R   0.355440 0.513440 0.575450 -0.609745
O13   O     O_R   0.644560 0.486560 0.424550 -0.610070
O14   O     O_R   0.644590 0.486500 0.567040 -0.624353
O15   O     O_R   0.355410 0.513500 0.432960 -0.624180
O16   O     O_2   0.557285 0.763025 0.797944 -0.532546
Zn1   Zn    Zn3+2 0.306940 0.517990 0.505620 1.013589
Zn2   Zn    Zn3+2 0.693060 0.482010 0.494380 1.013515

loop_
_geom_bond_atom_site_label_1
_geom_bond_atom_site_label_2
_ccdc_geom_bond_type
C29   H19   S    
C33   H14   S    
N4    Zn1   S    
C27   C29   A    
C39   N4    S    
C24   O2    S    
H13   O8    S    
C35   C37   A    
C15   C44   A    
C5    C11   A    
C18   C42   A    
C30   H18   S    
C21   H10   S    
C11   C14   A    
C23   C40   A    
C12   O11   A    
C33   C36   A    
C35   H15   S    
C3    C29   A    
H11   O6    S    
C19   H8    S    
N3    Zn2   S    
C31   C33   A    
C39   O7    D    
O13   Zn2   S    
C24   N2    A    
C2    C34   A    
C40   C42   A    
C37   N2    S    
C1    O10   A    
C41   C43   A    
C34   C41   A    
C24   C41   A    
C15   H4    S    
C25   C44   A    
C19   C43   A    
C18   H7    S    
C6    C7    A    
N3    N4    D    
C26   N2    A    
C32   C35   A    
C25   N1    A    
C42   H16   S    
C36   N1    S    
O14   Zn2   S    
C12   C21   S    
C1    O1    A    
C23   C44   A    
C16   O12   A    
C22   O16   S    
C22   N1    A    
C5    C9    A    
O12   Zn1   S    
C11   H5    S    
C22   C40   A    
C12   O9    A    
C16   O14   A    
C2    C26   A    
C25   O4    S    
C39   O8    S    
C38   N3    S    
C3    C31   A    
C4    C32   A    
C4    C17   S    
C28   H20   S    
C27   H2    S    
O15   Zn1   S    
O9    Zn2   S    
C7    C19   A    
C13   C15   A    
C9    C34   A    
C10   C23   A    
O11   Zn1   S    
O1    Zn1   S    
C43   H17   S    
C38   O6    S    
C7    C9    A    
C1    C20   S    
C20   H9    S    
C6    C10   A    
C5    C8    A    
C14   H3    S    
C27   C36   A    
C28   C30   A    
C6    C13   A    
O10   Zn2   S    
C26   O3    S    
C28   C37   A    
C17   O13   A    
C2    C14   A    
C8    C18   A    
C13   H6    S    
C20   C21   D    
C8    C10   A    
C31   H1    S    
C17   O15   A    
C32   H12   S    
C4    C30   A    
C3    C16   S    
C38   O5    D    
