data_mof_unit_59822.cif
_audit_creation_date              2012-12-10T17:58:44-0500
_audit_creation_method            fapswitch 2.2
_symmetry_space_group_name_H-M    P1
_symmetry_Int_Tables_number       1
_space_group_crystal_system       triclinic
_cell_length_a                    16.809946
_cell_length_b                    13.806179
_cell_length_c                    9.614682
_cell_angle_alpha                 90.004134
_cell_angle_beta                  90.000829
_cell_angle_gamma                 89.999579
_cell_volume                      2231.38619413

loop_
_atom_site_label
_atom_site_type_symbol
_atom_type_description
_atom_site_fract_x
_atom_site_fract_y
_atom_site_fract_z
_atom_type_partial_charge
C1    C     C_R   0.123838 0.388344 0.500305 0.860599
C2    C     C_R   0.000606 0.587894 0.924218 0.291978
C3    C     C_R   0.999396 0.587893 0.075802 0.291965
C4    C     C_R   0.999394 0.412106 0.924198 0.291982
C5    C     C_R   0.500605 0.912107 0.075782 0.291955
C6    C     C_R   0.500603 0.087893 0.924218 0.291954
C7    C     C_R   0.499395 0.087894 0.075803 0.291947
C8    C     C_R   0.499398 0.912107 0.924198 0.291992
C9    C     C_R   0.773457 0.291963 0.369957 0.154110
C10   C     C_R   0.229253 0.706088 0.623757 0.170585
C11   C     C_R   0.226573 0.707971 0.369973 0.154113
C12   C     C_R   0.876164 0.611660 0.500309 0.860627
C13   C     C_R   0.770741 0.293938 0.623737 0.170582
C14   C     C_R   0.226565 0.292007 0.630026 0.154077
C15   C     C_R   0.770751 0.706085 0.376254 0.170530
C16   C     C_R   0.773455 0.708035 0.630038 0.154010
C17   C     C_R   0.229242 0.293893 0.376239 0.170507
C18   C     C_R   0.273439 0.791988 0.369972 0.154194
C19   C     C_R   0.729221 0.206144 0.623778 0.170512
C20   C     C_R   0.726586 0.207949 0.369982 0.154115
C21   C     C_R   0.270774 0.793881 0.623760 0.170514
C22   C     C_R   0.726589 0.792053 0.630019 0.154145
C23   C     C_R   0.876165 0.388340 0.499688 0.860638
C24   C     C_R   0.270759 0.206095 0.376237 0.170480
C25   C     C_R   0.273425 0.207984 0.630021 0.154050
C26   C     C_R   0.729234 0.793882 0.376230 0.170276
C27   C     C_R   0.196672 0.671880 0.497706 -0.183522
C28   C     C_R   0.803343 0.328096 0.497684 -0.183508
C29   C     C_R   0.803341 0.671905 0.502308 -0.183467
C30   C     C_R   0.196668 0.328107 0.502293 -0.183511
C31   C     C_R   0.696669 0.171887 0.497724 -0.183530
C32   C     C_R   0.303341 0.828093 0.497704 -0.183486
C33   C     C_R   0.303331 0.171887 0.502291 -0.183571
C34   C     C_R   0.123839 0.611653 0.499696 0.860674
C35   C     C_R   0.696674 0.828122 0.502282 -0.183626
C36   C     C_3   0.781506 0.348416 0.235248 -0.745371
C37   C     C_3   0.238838 0.639002 0.747526 -0.733682
C38   C     C_3   0.218529 0.651479 0.235285 -0.745413
C39   C     C_3   0.761148 0.361085 0.747448 -0.733822
C40   C     C_3   0.218521 0.348486 0.764723 -0.745441
C41   C     C_3   0.761170 0.638971 0.252502 -0.733884
C42   C     C_3   0.781507 0.651586 0.764750 -0.745431
C43   C     C_3   0.238834 0.360977 0.252469 -0.733629
C44   C     C_3   0.281491 0.848456 0.235278 -0.745415
C45   C     C_R   0.623840 0.888348 0.500302 0.860275
C46   C     C_3   0.738773 0.139124 0.747634 -0.733372
C47   C     C_3   0.718531 0.151445 0.235306 -0.745512
C48   C     C_3   0.261190 0.860965 0.747548 -0.733648
C49   C     C_3   0.718545 0.848560 0.764693 -0.745439
C50   C     C_3   0.261175 0.139005 0.252456 -0.733579
C51   C     C_3   0.281459 0.151495 0.764700 -0.745459
C52   C     C_3   0.738829 0.860943 0.252433 -0.733376
C53   C     C_R   0.376161 0.111655 0.500306 0.860491
C54   C     C_R   0.376164 0.888339 0.499693 0.860755
C55   C     C_R   0.623839 0.111654 0.499700 0.860831
C56   C     C_R   0.000604 0.412106 0.075782 0.291959
Cu1   Cu    Cu3+1 0.000000 0.500000 0.640660 1.076465
Cu2   Cu    Cu3+1 1.000000 0.500000 0.359340 1.076453
Cu3   Cu    Cu3+1 0.500000 1.000000 0.640660 1.076440
Cu4   Cu    Cu3+1 0.500000 1.000000 0.359340 1.076402
H1    H     H_    0.015997 0.212389 0.357551 0.355264
H2    H     H_    0.788158 0.426858 0.255023 0.209098
H3    H     H_    0.832621 0.321992 0.173943 0.279107
H4    H     H_    0.182237 0.616248 0.795078 0.261700
H5    H     H_    0.271663 0.573693 0.712871 0.200844
H6    H     H_    0.274860 0.672018 0.831514 0.269508
H7    H     H_    0.273211 0.658240 0.171190 0.247513
H8    H     H_    0.211858 0.573045 0.255093 0.209084
H9    H     H_    0.167427 0.677900 0.173943 0.279066
H10   H     H_    0.817758 0.383735 0.795122 0.261759
H11   H     H_    0.728433 0.426458 0.712667 0.200772
H12   H     H_    0.015895 0.787652 0.642474 0.355259
H13   H     H_    0.724997 0.328170 0.831363 0.269533
H14   H     H_    0.273214 0.341734 0.828799 0.247504
H15   H     H_    0.211832 0.426921 0.744937 0.209100
H16   H     H_    0.167432 0.322042 0.826075 0.279093
H17   H     H_    0.817776 0.616279 0.204884 0.261772
H18   H     H_    0.728407 0.573626 0.287203 0.200796
H19   H     H_    0.725083 0.671936 0.168557 0.269539
H20   H     H_    0.726822 0.658352 0.828833 0.247509
H21   H     H_    0.788195 0.573148 0.744987 0.209118
H22   H     H_    0.832599 0.678040 0.826085 0.279114
H23   H     H_    0.984029 0.787626 0.357608 0.355250
H24   H     H_    0.182233 0.383768 0.204939 0.261690
H25   H     H_    0.271691 0.426270 0.287116 0.200864
H26   H     H_    0.274830 0.327941 0.168460 0.269513
H27   H     H_    0.226825 0.841660 0.171147 0.247482
H28   H     H_    0.288134 0.926897 0.255077 0.209063
H29   H     H_    0.332612 0.822046 0.173976 0.279117
H30   H     H_    0.682154 0.116298 0.795067 0.261676
H31   H     H_    0.771710 0.073848 0.713118 0.200889
H32   H     H_    0.774684 0.172244 0.831713 0.269436
H33   H     H_    0.773191 0.158233 0.171153 0.247483
H34   H     H_    0.984021 0.212378 0.642388 0.355253
H35   H     H_    0.711901 0.073008 0.255142 0.209066
H36   H     H_    0.667398 0.177832 0.174008 0.279080
H37   H     H_    0.228340 0.926256 0.712916 0.200843
H38   H     H_    0.225188 0.827940 0.831543 0.269498
H39   H     H_    0.317786 0.883750 0.795082 0.261684
H40   H     H_    0.773223 0.841799 0.828797 0.247476
H41   H     H_    0.711886 0.926994 0.744864 0.209069
H42   H     H_    0.667437 0.822154 0.826030 0.279081
H43   H     H_    0.228336 0.073702 0.287095 0.200842
H44   H     H_    0.225165 0.172028 0.168460 0.269498
H45   H     H_    0.516518 0.712616 0.357694 0.355318
H46   H     H_    0.317779 0.116233 0.204913 0.261684
H47   H     H_    0.226778 0.158267 0.828787 0.247509
H48   H     H_    0.288121 0.073062 0.744880 0.209084
H49   H     H_    0.332559 0.177901 0.826051 0.279091
H50   H     H_    0.771757 0.926198 0.287026 0.200902
H51   H     H_    0.774760 0.827854 0.168381 0.269484
H52   H     H_    0.682231 0.883804 0.204967 0.261631
H53   H     H_    0.515809 0.287683 0.642494 0.355288
H54   H     H_    0.483858 0.287555 0.357661 0.355260
H55   H     H_    0.483989 0.712395 0.642380 0.355307
H56   H     H_    0.726835 0.341620 0.171126 0.247500
N1    N     N_R   1.000000 0.500000 0.852070 -0.326392
N2    N     N_R   0.000000 0.500000 0.147930 -0.326391
N3    N     N_R   0.500000 1.000000 0.852070 -0.326402
N4    N     N_R   0.500000 1.000000 0.147930 -0.326393
O1    O     O_R   0.090170 0.409820 0.618740 -0.527978
O2    O     O_R   0.409830 0.090180 0.381260 -0.529758
O3    O     O_R   0.409830 0.090180 0.618740 -0.527957
O4    O     O_R   0.590170 0.909820 0.381260 -0.529895
O5    O     O_R   0.409830 0.909820 0.381260 -0.527939
O6    O     O_R   0.590170 0.090180 0.618740 -0.529735
O7    O     O_R   0.590170 0.090180 0.381260 -0.527952
O8    O     O_R   0.409830 0.909820 0.618740 -0.529746
O9    O     O_2   0.950598 0.222972 0.109086 -0.229097
O10   O     O_2   0.091582 0.256680 0.134631 -0.307903
O11   O     O_3   0.999051 0.279744 0.337746 -0.490848
O12   O     O_R   0.909830 0.590180 0.381260 -0.529689
O13   O     O_2   0.950597 0.777027 0.890907 -0.229176
O14   O     O_2   0.091581 0.743324 0.865367 -0.307838
O15   O     O_3   0.999052 0.720255 0.662252 -0.490842
O16   O     O_2   0.049442 0.777005 0.109166 -0.229116
O17   O     O_2   0.908445 0.743350 0.134669 -0.307862
O18   O     O_3   0.000951 0.720258 0.337802 -0.490828
O19   O     O_2   0.049424 0.222984 0.890845 -0.229100
O20   O     O_2   0.908431 0.256661 0.865317 -0.307881
O21   O     O_3   0.000952 0.279741 0.662201 -0.490842
O22   O     O_2   0.450612 0.722962 0.109096 -0.228703
O23   O     O_R   0.909830 0.590180 0.618740 -0.528007
O24   O     O_2   0.591591 0.756700 0.134619 -0.308207
O25   O     O_3   0.499048 0.779741 0.337746 -0.490852
O26   O     O_2   0.450522 0.276986 0.890884 -0.229253
O27   O     O_2   0.591526 0.243382 0.865402 -0.307812
O28   O     O_3   0.499050 0.220254 0.662245 -0.490863
O29   O     O_2   0.549421 0.277020 0.109173 -0.228963
O30   O     O_2   0.408431 0.243333 0.134680 -0.307939
O31   O     O_3   0.500951 0.220258 0.337804 -0.490806
O32   O     O_2   0.549456 0.723001 0.890829 -0.229074
O33   O     O_2   0.408455 0.756650 0.865339 -0.307907
O34   O     O_R   0.090170 0.409820 0.381260 -0.529722
O35   O     O_3   0.500952 0.779742 0.662198 -0.490901
O36   O     O_R   0.909830 0.409820 0.381260 -0.528005
O37   O     O_R   0.090170 0.590180 0.618740 -0.529682
O38   O     O_R   0.090170 0.590180 0.381260 -0.527987
O39   O     O_R   0.909830 0.409820 0.618740 -0.529687
O40   O     O_R   0.590170 0.909820 0.618740 -0.527908
S1    S     S_3+6 0.009710 0.294008 0.165792 0.072897
S2    S     S_3+6 0.009711 0.705993 0.834206 0.072904
S3    S     S_3+6 0.990306 0.705994 0.165841 0.072929
S4    S     S_3+6 0.990298 0.294006 0.834159 0.072929
S5    S     S_3+6 0.509715 0.794010 0.165793 0.072944
S6    S     S_3+6 0.509678 0.205995 0.834206 0.072894
S7    S     S_3+6 0.490298 0.205993 0.165845 0.072957
S8    S     S_3+6 0.490313 0.794008 0.834159 0.072933

loop_
_geom_bond_atom_site_label_1
_geom_bond_atom_site_label_2
_ccdc_geom_bond_type
C10   C27   A    
C6    S6    S    
C11   C18   A    
C50   H44   S    
C17   C30   A    
C12   C29   S    
O28   S6    S    
C42   H22   S    
C52   H52   S    
C19   C31   A    
O13   S2    D    
C2    S2    S    
C25   C51   S    
C19   C46   S    
O25   S5    S    
Cu3   O6    S    
C42   H20   S    
C48   H37   S    
C45   O40   A    
C10   C37   S    
H53   O28   S    
Cu4   O5    S    
C3    N2    A    
C26   C52   S    
C53   O2    A    
C41   H17   S    
C46   H32   S    
O11   S1    S    
Cu2   N2    S    
Cu4   O4    S    
C7    S7    S    
C8    S8    S    
Cu2   O12   S    
C51   H48   S    
C23   O39   A    
C9    C36   S    
Cu3   N3    S    
C47   H36   S    
C4    S4    S    
C13   C28   A    
O18   S3    S    
C5    S5    S    
C44   H27   S    
Cu2   O34   S    
C3    S3    S    
C21   C48   S    
C36   H3    S    
O26   S6    D    
C38   H9    S    
C50   H43   S    
C27   C34   S    
C39   H11   S    
C23   O36   A    
C4    C56   A    
C33   C53   S    
C43   H24   S    
C43   H26   S    
C42   H21   S    
H54   O31   S    
C14   C30   A    
C36   H2    S    
C32   C54   S    
O32   S8    D    
C2    N1    A    
C11   C27   A    
C15   C29   A    
C45   O4    A    
Cu3   O3    S    
C54   O5    A    
C17   C24   A    
C13   C19   A    
C5    N4    A    
C43   H25   S    
C15   C41   S    
Cu2   O38   S    
C49   H42   S    
O17   S3    D    
Cu1   O23   S    
C15   C26   A    
C46   H31   S    
C52   H51   S    
Cu3   O8    S    
C54   O8    A    
C56   S1    S    
O14   S2    D    
C37   H5    S    
C11   C38   S    
C17   C43   S    
C22   C35   A    
O27   S6    D    
C18   C44   S    
Cu3   O40   S    
C9    C20   A    
C55   O6    A    
C52   H50   S    
O35   S8    S    
H45   O25   S    
C37   H6    S    
C47   H33   S    
O9    S1    D    
C23   C28   S    
Cu4   O2    S    
C24   C50   S    
Cu2   O36   S    
C22   C49   S    
C34   O38   A    
O10   S1    D    
C51   H47   S    
C55   O7    A    
O33   S8    D    
C53   O3    A    
O15   S2    S    
C4    N1    A    
C18   C32   A    
C35   C45   S    
C16   C42   S    
C6    N3    A    
C41   H18   S    
C37   H4    S    
O29   S7    D    
Cu1   N1    S    
C48   H39   S    
Cu1   O37   S    
O19   S4    D    
C16   C22   A    
C12   O12   A    
H55   O35   S    
H34   O21   S    
C56   N2    A    
C7    N4    A    
Cu4   O7    S    
C38   H8    S    
H12   O15   S    
Cu1   O1    S    
C10   C21   A    
C41   H19   S    
C5    C8    A    
C40   H15   S    
C6    C7    A    
C46   H30   S    
O20   S4    D    
C48   H38   S    
C24   C33   A    
C12   O23   A    
O24   S5    D    
C2    C3    A    
C16   C29   A    
C21   C32   A    
C49   H40   S    
C49   H41   S    
Cu1   Cu2   S    
O31   S7    S    
O30   S7    D    
C1    C30   S    
C39   H10   S    
C40   H14   S    
Cu4   N4    S    
C39   H13   S    
C14   C25   A    
Cu1   O39   S    
C1    O34   A    
C1    O1    A    
C13   C39   S    
C20   C47   S    
H1    O11   S    
C14   C40   S    
C34   O37   A    
C40   H16   S    
C26   C35   A    
Cu3   Cu4   S    
C38   H7    S    
C8    N3    A    
O21   S4    S    
C51   H49   S    
C50   H46   S    
C47   H35   S    
C31   C55   S    
C44   H28   S    
O16   S3    D    
H23   O18   S    
C44   H29   S    
C9    C28   A    
C25   C33   A    
O22   S5    D    
C20   C31   A    
C36   H56   S    
