data_mof_unit_35201.cif
_audit_creation_date              2012-12-10T16:34:44-0500
_audit_creation_method            fapswitch 2.2
_symmetry_space_group_name_H-M    P1
_symmetry_Int_Tables_number       1
_space_group_crystal_system       triclinic
_cell_length_a                    28.321033
_cell_length_b                    18.556809
_cell_length_c                    17.067441
_cell_angle_alpha                 89.998666
_cell_angle_beta                  60.895884
_cell_angle_gamma                 89.999681
_cell_volume                      7837.21328305

loop_
_atom_site_label
_atom_site_type_symbol
_atom_type_description
_atom_site_fract_x
_atom_site_fract_y
_atom_site_fract_z
_atom_type_partial_charge
C1    C     C_R   0.702361 0.269964 0.675692 0.906520
C2    C     C_R   0.297636 0.730332 0.324492 0.881192
C3    C     C_R   0.297636 0.269969 0.324311 0.906573
C4    C     C_R   0.702366 0.730328 0.675504 0.880873
C5    C     C_R   0.202363 0.769968 0.675690 0.906445
C6    C     C_R   0.797632 0.230325 0.324497 0.881238
C7    C     C_R   0.797638 0.769964 0.324310 0.906573
C8    C     C_R   0.202365 0.230331 0.675504 0.880914
C9    C     C_R   0.907939 0.495459 0.477396 0.065434
C10   C     C_R   0.091837 0.495518 0.523143 0.065412
C11   C     C_R   0.407722 0.995472 0.478054 0.065394
C12   C     C_R   0.591613 0.995531 0.523830 0.065465
C13   C     C_R   0.079882 0.367671 0.552631 -0.218950
C14   C     C_R   0.895960 0.620574 0.519948 -0.227117
C15   C     C_R   0.920112 0.367686 0.447390 -0.219058
C16   C     C_R   0.103500 0.620768 0.481211 -0.227894
C17   C     C_R   0.579724 0.867666 0.553265 -0.219357
C18   C     C_R   0.395714 0.120600 0.520533 -0.227149
C19   C     C_R   0.419971 0.867721 0.447976 -0.218779
C20   C     C_R   0.603254 0.120761 0.481809 -0.227834
C21   C     C_R   0.717492 0.257260 0.956233 0.102942
C22   C     C_R   0.274433 0.734902 0.052564 0.107319
C23   C     C_R   0.282489 0.257268 0.043789 0.102941
C24   C     C_R   0.725585 0.734877 0.947406 0.107364
C25   C     C_R   0.217510 0.757286 0.956215 0.102918
C26   C     C_R   0.774396 0.234850 0.052608 0.107337
C27   C     C_R   0.782464 0.757282 0.043819 0.102944
C28   C     C_R   0.225600 0.234866 0.947390 0.107362
C29   C     C_R   0.768930 0.287568 0.926222 -0.193890
C30   C     C_R   0.222999 0.704544 0.082746 -0.197242
C31   C     C_R   0.231054 0.287579 0.073786 -0.193916
C32   C     C_R   0.777005 0.704495 0.917287 -0.197424
C33   C     C_R   0.268952 0.787589 0.926176 -0.193941
C34   C     C_R   0.722966 0.204489 0.082764 -0.197180
C35   C     C_R   0.731036 0.787609 0.073796 -0.193907
C36   C     C_R   0.277027 0.204499 0.917249 -0.197474
C37   C     C_R   0.796981 0.276695 0.973985 -0.158935
C38   C     C_R   0.194993 0.715167 0.034739 -0.165359
C39   C     C_R   0.203010 0.276708 0.026012 -0.159008
C40   C     C_R   0.804990 0.715132 0.965323 -0.165345
C41   C     C_R   0.297014 0.776725 0.973924 -0.159077
C42   C     C_R   0.694967 0.215130 0.034748 -0.165337
C43   C     C_R   0.702997 0.776738 0.026013 -0.158953
C44   C     C_R   0.305016 0.215131 0.965281 -0.165325
C45   C     C_R   0.636973 0.314559 0.953455 -0.024839
C46   C     C_R   0.354142 0.673760 0.053449 -0.029776
C47   C     C_R   0.363007 0.314591 0.046558 -0.024740
C48   C     C_R   0.645893 0.673697 0.946507 -0.029869
C49   C     C_R   0.136976 0.814562 0.953452 -0.024767
C50   C     C_R   0.854097 0.173690 0.053505 -0.029816
C51   C     C_R   0.862973 0.814633 0.046581 -0.024803
C52   C     C_R   0.145910 0.173679 0.946494 -0.029840
C53   C     C_R   0.613389 0.342028 0.902023 -0.115229
C54   C     C_R   0.382328 0.652759 0.100616 -0.117220
C55   C     C_R   0.386596 0.342048 0.097987 -0.115319
C56   C     C_R   0.617691 0.652722 0.899360 -0.117250
C57   C     C_R   0.113393 0.842032 0.902018 -0.115258
C58   C     C_R   0.882301 0.152715 0.100649 -0.117235
C59   C     C_R   0.886583 0.842063 0.097992 -0.115315
C60   C     C_R   0.117699 0.152716 0.899356 -0.117249
C61   C     C_R   0.633064 0.322089 0.813941 -0.286940
C62   C     C_R   0.365580 0.677091 0.186229 -0.285531
C63   C     C_R   0.366924 0.322107 0.186067 -0.286844
C64   C     C_R   0.634433 0.677066 0.813755 -0.285540
C65   C     C_R   0.133069 0.822098 0.813936 -0.286923
C66   C     C_R   0.865559 0.177056 0.186252 -0.285531
C67   C     C_R   0.866924 0.822102 0.186063 -0.286877
C68   C     C_R   0.134434 0.177071 0.813758 -0.285546
C69   C     C_R   0.679656 0.282296 0.771342 -0.051976
C70   C     C_R   0.318890 0.716489 0.229907 -0.046455
C71   C     C_R   0.320333 0.282313 0.228667 -0.052051
C72   C     C_R   0.681123 0.716466 0.770077 -0.046299
C73   C     C_R   0.179662 0.782307 0.771337 -0.051983
C74   C     C_R   0.818871 0.216458 0.229927 -0.046445
C75   C     C_R   0.820332 0.782308 0.228668 -0.052014
C76   C     C_R   0.181122 0.216473 0.770078 -0.046301
C77   C     C_R   0.706969 0.259994 0.818193 -0.218018
C78   C     C_R   0.289447 0.736576 0.185891 -0.215386
C79   C     C_R   0.293015 0.260018 0.181823 -0.218040
C80   C     C_R   0.710574 0.736542 0.814079 -0.215551
C81   C     C_R   0.206979 0.760014 0.818184 -0.218022
C82   C     C_R   0.789417 0.236527 0.185927 -0.215354
C83   C     C_R   0.793008 0.760015 0.181835 -0.218110
C84   C     C_R   0.210576 0.236548 0.814077 -0.215572
C85   C     C_R   0.693946 0.127874 0.525546 0.904784
C86   C     C_R   0.308922 0.870130 0.464075 0.904531
C87   C     C_R   0.305980 0.127865 0.474664 0.904740
C88   C     C_R   0.691062 0.870123 0.536008 0.904385
C89   C     C_R   0.193963 0.627874 0.525490 0.904769
C90   C     C_R   0.808934 0.370121 0.464012 0.904504
C91   C     C_R   0.806000 0.627862 0.474609 0.904677
C92   C     C_R   0.191072 0.370130 0.535954 0.904472
C93   C     C_R   0.685884 0.275590 0.909685 0.020053
C94   C     C_R   0.306997 0.716057 0.097252 0.013921
C95   C     C_R   0.314096 0.275617 0.090332 0.020066
C96   C     C_R   0.693032 0.716007 0.902708 0.013944
C97   C     C_R   0.185894 0.775606 0.909677 0.020080
C98   C     C_R   0.806954 0.215990 0.097302 0.013900
C99   C     C_R   0.814073 0.775637 0.090356 0.020001
C100  C     C_R   0.193043 0.216000 0.902698 0.013950
C101  C     C_R   0.074386 0.099618 0.934038 0.893707
C102  C     C_R   0.927515 0.898310 0.064441 0.889712
C103  C     C_R   0.925616 0.099620 0.065960 0.893714
C104  C     C_R   0.072477 0.898301 0.935565 0.889753
C105  C     C_R   0.574381 0.599623 0.934043 0.893683
C106  C     C_R   0.427520 0.398305 0.064438 0.889750
C107  C     C_R   0.425624 0.599632 0.065951 0.893687
C108  C     C_R   0.572474 0.398299 0.935567 0.889752
C109  C     C_R   0.550988 0.124313 0.493655 0.023752
C110  C     C_R   0.458247 0.864254 0.477681 0.025231
C111  C     C_R   0.447836 0.124219 0.509315 0.024090
C112  C     C_R   0.541214 0.864244 0.524056 0.025393
C113  C     C_R   0.051274 0.624306 0.492883 0.023758
C114  C     C_R   0.958493 0.364228 0.476872 0.025324
C115  C     C_R   0.948117 0.624197 0.508570 0.024061
C116  C     C_R   0.041483 0.364236 0.523186 0.025369
C117  C     C_R   0.525894 0.190684 0.495419 -0.050823
C118  C     C_R   0.478381 0.797798 0.490225 -0.047326
C119  C     C_R   0.472862 0.190629 0.507558 -0.051043
C120  C     C_R   0.521209 0.797794 0.511186 -0.047234
C121  C     C_R   0.026149 0.690677 0.494771 -0.050915
C122  C     C_R   0.978618 0.297773 0.489446 -0.047369
C123  C     C_R   0.973112 0.690603 0.506938 -0.051017
C124  C     C_R   0.021464 0.297790 0.510359 -0.047231
C125  C     C_R   0.475118 0.059571 0.500481 0.010622
C126  C     C_R   0.521396 0.929123 0.509895 0.008083
C127  C     C_R   0.523761 0.059614 0.502553 0.010859
C128  C     C_R   0.477808 0.929112 0.492435 0.008030
C129  C     C_R   0.975437 0.559556 0.499565 0.010618
C130  C     C_R   0.021718 0.429106 0.508915 0.008009
C131  C     C_R   0.024084 0.559596 0.501621 0.010893
C132  C     C_R   0.978119 0.429095 0.491484 0.008084
C133  C     C_R   0.953747 0.494555 0.489685 -0.015868
C134  C     C_R   0.045955 0.494597 0.511049 -0.015827
C135  C     C_R   0.453447 0.994568 0.490576 -0.015854
C136  C     C_R   0.545646 0.994616 0.511970 -0.015828
C137  C     C_R   0.890465 0.431608 0.455843 0.030978
C138  C     C_R   0.120936 0.559959 0.510594 0.024488
C139  C     C_R   0.109469 0.431623 0.544319 0.030782
C140  C     C_R   0.878762 0.559843 0.490077 0.024120
C141  C     C_R   0.390327 0.931631 0.456344 0.030953
C142  C     C_R   0.620750 0.059963 0.511106 0.024428
C143  C     C_R   0.609327 0.931623 0.544842 0.030807
C144  C     C_R   0.378576 0.059858 0.490573 0.024147
C145  C     C_R   0.843451 0.433736 0.445221 -0.166917
C146  C     C_R   0.163770 0.561747 0.532762 -0.158475
C147  C     C_R   0.156543 0.433748 0.554776 -0.166845
C148  C     C_R   0.836104 0.561696 0.467519 -0.158412
C149  C     C_R   0.343403 0.933754 0.445464 -0.166847
C150  C     C_R   0.663703 0.061747 0.532986 -0.158627
C151  C     C_R   0.656503 0.933741 0.555001 -0.166909
C152  C     C_R   0.336029 0.061704 0.467745 -0.158262
C153  C     C_R   0.823657 0.499462 0.434719 -0.105766
C154  C     C_R   0.176328 0.499466 0.565323 -0.105925
C155  C     C_R   0.323629 0.999466 0.434889 -0.106045
C156  C     C_R   0.676327 0.999464 0.565455 -0.105684
H1    H     H_    0.655441 0.191022 0.059300 0.134486
H2    H     H_    0.336779 0.800216 0.948910 0.131616
H3    H     H_    0.344541 0.191023 0.940739 0.134528
H4    H     H_    0.663243 0.800249 0.050977 0.131596
H5    H     H_    0.155465 0.691059 0.059309 0.134512
H6    H     H_    0.836742 0.300192 0.948993 0.131630
H7    H     H_    0.844513 0.691018 0.940793 0.134482
H8    H     H_    0.163250 0.300206 0.050993 0.131596
H9    H     H_    0.613787 0.341610 0.776496 0.174243
H10   H     H_    0.387172 0.661280 0.221395 0.181480
H11   H     H_    0.386205 0.341619 0.223507 0.174438
H12   H     H_    0.612832 0.661272 0.778598 0.181457
H13   H     H_    0.113791 0.841616 0.776493 0.174297
H14   H     H_    0.887161 0.161262 0.221408 0.181485
H15   H     H_    0.886214 0.841600 0.223495 0.174409
H16   H     H_    0.112829 0.161282 0.778605 0.181469
O1    O     O_R   0.746490 0.236330 0.638080 -0.644155
O2    O     O_R   0.253510 0.763670 0.361920 -0.634383
O3    O     O_R   0.253510 0.236330 0.361920 -0.644357
O4    O     O_R   0.746490 0.763670 0.638080 -0.634457
O5    O     O_R   0.246490 0.736330 0.638080 -0.644168
O6    O     O_R   0.753510 0.263670 0.361920 -0.634382
O7    O     O_R   0.753510 0.736330 0.361920 -0.644267
O8    O     O_R   0.246490 0.263670 0.638080 -0.634467
O9    O     O_R   0.674170 0.186160 0.516270 -0.639292
O10   O     O_R   0.325830 0.813840 0.483730 -0.638750
O11   O     O_R   0.325830 0.186160 0.483730 -0.638782
O12   O     O_R   0.674170 0.813840 0.516270 -0.638765
O13   O     O_R   0.174170 0.686160 0.516270 -0.639332
O14   O     O_R   0.825830 0.313840 0.483730 -0.638757
O15   O     O_R   0.825830 0.686160 0.483730 -0.638772
O16   O     O_R   0.174170 0.313840 0.516270 -0.638724
O17   O     O_R   0.739960 0.127620 0.525000 -0.626474
O18   O     O_R   0.260040 0.872380 0.475000 -0.626972
O19   O     O_R   0.260040 0.127620 0.475000 -0.626724
O20   O     O_R   0.739960 0.872380 0.525000 -0.627007
O21   O     O_R   0.239960 0.627620 0.525000 -0.626563
O22   O     O_R   0.760040 0.372380 0.475000 -0.627179
O23   O     O_R   0.760040 0.627620 0.475000 -0.626351
O24   O     O_R   0.239960 0.372380 0.525000 -0.626969
O25   O     O_R   0.680700 0.294870 0.629350 -0.638467
O26   O     O_R   0.319300 0.705130 0.370650 -0.631611
O27   O     O_R   0.319300 0.294870 0.370650 -0.637668
O28   O     O_R   0.680700 0.705130 0.629350 -0.631681
O29   O     O_R   0.180700 0.794870 0.629350 -0.638248
O30   O     O_R   0.819300 0.205130 0.370650 -0.631615
O31   O     O_R   0.819300 0.794870 0.370650 -0.637686
O32   O     O_R   0.180700 0.205130 0.629350 -0.631674
O33   O     O_R   0.062020 0.072840 0.007170 -0.606576
O34   O     O_R   0.937980 0.927160 0.992830 -0.600619
O35   O     O_R   0.937980 0.072840 0.992830 -0.606534
O36   O     O_R   0.062020 0.927160 0.007170 -0.600498
O37   O     O_R   0.562020 0.572840 0.007170 -0.606606
O38   O     O_R   0.437980 0.427160 0.992830 -0.600552
O39   O     O_R   0.437980 0.572840 0.992830 -0.606477
O40   O     O_R   0.562020 0.427160 0.007170 -0.600547
O41   O     O_R   0.947860 0.073950 0.109290 -0.622752
O42   O     O_R   0.052140 0.926050 0.890710 -0.625400
O43   O     O_R   0.052140 0.073950 0.890710 -0.622755
O44   O     O_R   0.947860 0.926050 0.109290 -0.625328
O45   O     O_R   0.447860 0.573950 0.109290 -0.622751
O46   O     O_R   0.552140 0.426050 0.890710 -0.625371
O47   O     O_R   0.552140 0.573950 0.890710 -0.622759
O48   O     O_R   0.447860 0.426050 0.109290 -0.625332
Zn1   Zn    Zn3+2 0.792340 0.208750 0.507670 0.937799
Zn2   Zn    Zn3+2 0.207660 0.791250 0.492330 0.944725
Zn3   Zn    Zn3+2 0.207660 0.208750 0.492330 0.937629
Zn4   Zn    Zn3+2 0.792340 0.791250 0.507670 0.945055
Zn5   Zn    Zn3+2 0.292340 0.708750 0.507670 0.937822
Zn6   Zn    Zn3+2 0.707660 0.291250 0.492330 0.944333
Zn7   Zn    Zn3+2 0.707660 0.708750 0.492330 0.937993
Zn8   Zn    Zn3+2 0.292340 0.291250 0.507670 0.945098
Zn9   Zn    Zn3+2 0.505960 0.500000 0.080520 0.967830
Zn10  Zn    Zn3+2 0.494040 0.500000 0.919480 0.967890
Zn11  Zn    Zn3+2 0.005960 0.000000 0.080520 0.967840
Zn12  Zn    Zn3+2 0.994040 0.000000 0.919480 0.967821
C157  C     C_R   0.048925 0.229365 0.509895 0.094514
C158  C     C_R   0.020715 0.174389 0.571203 -0.162284
C159  C     C_R   0.047029 0.110650 0.571174 -0.151135
C160  C     C_R   0.101608 0.101294 0.509150 -0.134660
C161  C     C_R   0.129583 0.154696 0.445658 -0.107226
C162  C     C_R   0.103506 0.218713 0.446119 -0.141025
H17   H     H_    0.978265 0.181165 0.618146 0.135775
H18   H     H_    0.025220 0.068577 0.619234 0.128804
H19   H     H_    0.122186 0.052729 0.510284 0.102466
H20   H     H_    0.171555 0.146672 0.396492 0.149502
H21   H     H_    0.125755 0.259973 0.396928 0.138755
C163  C     C_R   0.946020 0.759212 0.508584 0.116696
C164  C     C_R   0.922776 0.802180 0.585846 -0.165367
C165  C     C_R   0.893959 0.864208 0.588594 -0.151519
C166  C     C_R   0.888252 0.883177 0.514348 -0.098718
C167  C     C_R   0.911532 0.840669 0.437174 -0.111296
C168  C     C_R   0.940083 0.778563 0.434461 -0.154998
H22   H     H_    0.925882 0.786499 0.644210 0.139370
H23   H     H_    0.875461 0.897022 0.648509 0.119406
H24   H     H_    0.865279 0.930190 0.516706 0.092418
H25   H     H_    0.906853 0.855369 0.379975 0.127306
H26   H     H_    0.956714 0.744486 0.375619 0.126929
C169  C     C_R   0.951208 0.229296 0.489860 0.094361
C170  C     C_R   0.979506 0.174217 0.428779 -0.162287
C171  C     C_R   0.953300 0.110302 0.429067 -0.150597
C172  C     C_R   0.898729 0.100873 0.491093 -0.135075
C173  C     C_R   0.870632 0.154447 0.554241 -0.107779
C174  C     C_R   0.896613 0.218615 0.553558 -0.140523
H27   H     H_    0.021958 0.181014 0.381865 0.135744
H28   H     H_    0.975196 0.068121 0.381249 0.128583
H29   H     H_    0.878269 0.052090 0.490256 0.102710
H30   H     H_    0.828652 0.146418 0.603374 0.149308
H31   H     H_    0.874289 0.259948 0.602578 0.138931
C175  C     C_R   0.053158 0.759403 0.493063 0.115609
C176  C     C_R   0.075208 0.803167 0.416485 -0.163253
C177  C     C_R   0.103771 0.865489 0.413622 -0.151416
C178  C     C_R   0.110451 0.883951 0.487055 -0.101757
C179  C     C_R   0.088378 0.840653 0.563555 -0.111195
C180  C     C_R   0.060074 0.778259 0.566375 -0.154674
H32   H     H_    0.071344 0.787899 0.358708 0.138784
H33   H     H_    0.121302 0.898955 0.354239 0.119300
H34   H     H_    0.133250 0.931194 0.484554 0.092904
H35   H     H_    0.093773 0.854997 0.620149 0.128551
H36   H     H_    0.044398 0.743595 0.624636 0.127524
C181  C     C_R   0.548806 0.729381 0.510315 0.094414
C182  C     C_R   0.520703 0.674080 0.571163 -0.162344
C183  C     C_R   0.547095 0.610206 0.570374 -0.150769
C184  C     C_R   0.601646 0.601054 0.508071 -0.135055
C185  C     C_R   0.629536 0.654841 0.445131 -0.107503
C186  C     C_R   0.603377 0.718975 0.446337 -0.140681
H37   H     H_    0.478262 0.680662 0.618245 0.135846
H38   H     H_    0.525356 0.567837 0.617998 0.128702
H39   H     H_    0.622258 0.552330 0.508541 0.102537
H40   H     H_    0.671489 0.646997 0.395754 0.149387
H41   H     H_    0.625541 0.760494 0.397493 0.138904
C187  C     C_R   0.445847 0.259244 0.508938 0.116582
C188  C     C_R   0.422661 0.302409 0.586029 -0.165410
C189  C     C_R   0.393985 0.364505 0.588494 -0.151488
C190  C     C_R   0.388349 0.383339 0.514143 -0.098854
C191  C     C_R   0.411561 0.340629 0.437143 -0.111233
C192  C     C_R   0.439984 0.278463 0.434702 -0.154842
H42   H     H_    0.425717 0.286841 0.644471 0.139452
H43   H     H_    0.375549 0.397484 0.648267 0.119283
H44   H     H_    0.365489 0.430413 0.516281 0.092410
H45   H     H_    0.406937 0.355230 0.379863 0.127298
H46   H     H_    0.456586 0.244262 0.375972 0.126901
C193  C     C_R   0.451040 0.729328 0.490394 0.094434
C194  C     C_R   0.479368 0.674436 0.429019 -0.162266
C195  C     C_R   0.453200 0.610568 0.429005 -0.150762
C196  C     C_R   0.398636 0.601011 0.490996 -0.134894
C197  C     C_R   0.370512 0.654396 0.554422 -0.107632
C198  C     C_R   0.396456 0.718515 0.554050 -0.140495
H47   H     H_    0.521807 0.681349 0.382100 0.135754
H48   H     H_    0.475115 0.568529 0.380966 0.128647
H49   H     H_    0.378199 0.552284 0.489903 0.102658
H50   H     H_    0.328537 0.646268 0.603513 0.149275
H51   H     H_    0.374106 0.759718 0.603256 0.138739
C199  C     C_R   0.552996 0.259393 0.493424 0.115572
C200  C     C_R   0.575068 0.302969 0.416681 -0.163114
C201  C     C_R   0.603906 0.365119 0.413395 -0.151793
C202  C     C_R   0.610828 0.383603 0.486582 -0.101680
C203  C     C_R   0.588694 0.340530 0.563274 -0.110869
C204  C     C_R   0.560128 0.278298 0.566505 -0.155216
H52   H     H_    0.571044 0.287649 0.359074 0.138751
H53   H     H_    0.621486 0.398405 0.353860 0.119522
H54   H     H_    0.633874 0.430671 0.483734 0.092888
H55   H     H_    0.594274 0.354891 0.619675 0.128924
H56   H     H_    0.544460 0.243755 0.624869 0.127661
C205  C     C_R   0.802722 0.504266 0.369831 0.153473
C206  C     C_R   0.747188 0.501241 0.397310 -0.024168
C207  C     C_R   0.729436 0.507160 0.334014 -0.196241
C208  C     C_R   0.766709 0.516372 0.243331 -0.109804
C209  C     C_R   0.821894 0.519461 0.215521 -0.132294
C210  C     C_R   0.839866 0.513357 0.278384 -0.188434
H57   H     H_    0.717816 0.495385 0.467602 0.124636
H58   H     H_    0.686775 0.505259 0.354999 0.107486
H59   H     H_    0.752797 0.521304 0.194668 0.119039
H60   H     H_    0.850766 0.526738 0.145241 0.127872
H61   H     H_    0.882785 0.516080 0.255921 0.130440
C211  C     C_R   0.197314 0.504169 0.630149 0.153607
C212  C     C_R   0.160181 0.512770 0.721680 -0.188572
C213  C     C_R   0.178177 0.518531 0.784544 -0.132240
C214  C     C_R   0.233379 0.515635 0.756641 -0.109759
C215  C     C_R   0.270645 0.506985 0.665857 -0.196827
C216  C     C_R   0.252864 0.501335 0.602574 -0.023977
H62   H     H_    0.117249 0.515324 0.744213 0.130457
H63   H     H_    0.149308 0.525379 0.854898 0.127840
H64   H     H_    0.247305 0.520284 0.805315 0.118977
H65   H     H_    0.313322 0.505298 0.644789 0.107513
H66   H     H_    0.282219 0.495809 0.532229 0.124443
C217  C     C_R   0.302662 0.004193 0.370029 0.153555
C218  C     C_R   0.247117 0.001241 0.397554 -0.023820
C219  C     C_R   0.229355 0.006836 0.334241 -0.196210
C220  C     C_R   0.266634 0.015597 0.243478 -0.109774
C221  C     C_R   0.321827 0.018643 0.215630 -0.132305
C222  C     C_R   0.339804 0.012906 0.278521 -0.188579
H67   H     H_    0.217746 0.995626 0.467881 0.124465
H68   H     H_    0.186684 0.004999 0.355268 0.107606
H69   H     H_    0.252727 0.020207 0.194776 0.118997
H70   H     H_    0.350702 0.025574 0.145292 0.127876
H71   H     H_    0.382729 0.015558 0.256026 0.130442
C223  C     C_R   0.697325 0.004193 0.630259 0.153687
C224  C     C_R   0.660198 0.012854 0.721785 -0.188530
C225  C     C_R   0.678197 0.018673 0.784637 -0.132258
C226  C     C_R   0.733399 0.015778 0.756731 -0.109709
C227  C     C_R   0.770660 0.007071 0.665954 -0.196902
C228  C     C_R   0.752875 0.001358 0.602679 -0.024234
H72   H     H_    0.617266 0.015417 0.744321 0.130472
H73   H     H_    0.649332 0.025568 0.854985 0.127831
H74   H     H_    0.747328 0.020475 0.805396 0.118946
H75   H     H_    0.813337 0.005387 0.644889 0.107503
H76   H     H_    0.782226 0.995795 0.532338 0.124486
H77   H     H_    0.084798 0.320280 0.584561 0.187790
H78   H     H_    0.870234 0.665502 0.553761 0.200126
H79   H     H_    0.915244 0.320341 0.415334 0.187603
H80   H     H_    0.129090 0.665801 0.447416 0.200469
H81   H     H_    0.584759 0.820243 0.585013 0.187701
H82   H     H_    0.369987 0.165564 0.554210 0.200073
H83   H     H_    0.415212 0.820404 0.415758 0.187630
H84   H     H_    0.628851 0.165745 0.447852 0.200576
H85   H     H_    0.786971 0.320849 0.866563 0.136529
H86   H     H_    0.205142 0.671101 0.142262 0.137150
H87   H     H_    0.213010 0.320862 0.133440 0.136520
H88   H     H_    0.794865 0.671026 0.857796 0.137062
H89   H     H_    0.286990 0.820858 0.866507 0.136543
H90   H     H_    0.705106 0.171033 0.142268 0.137140
H91   H     H_    0.712996 0.820906 0.133437 0.136504
H92   H     H_    0.294889 0.171044 0.857746 0.137077
C229  C     C_R   0.610478 0.327022 0.051760 0.128348
C230  C     C_R   0.558329 0.299583 0.106825 -0.139671
C231  C     C_R   0.529531 0.319244 0.196998 -0.123522
C232  C     C_R   0.553053 0.364701 0.233638 -0.148494
C233  C     C_R   0.605632 0.390206 0.180079 -0.140390
C234  C     C_R   0.634150 0.372288 0.089066 -0.089137
H93   H     H_    0.539163 0.265593 0.078809 0.104288
H94   H     H_    0.488595 0.300300 0.237599 0.114203
H95   H     H_    0.530482 0.380474 0.303381 0.133036
H96   H     H_    0.623829 0.425014 0.208753 0.111658
H97   H     H_    0.673926 0.394976 0.047382 0.118959
C235  C     C_R   0.372165 0.650472 0.960112 0.146325
C236  C     C_R   0.341322 0.601275 0.941211 -0.105243
C237  C     C_R   0.359226 0.578738 0.853139 -0.137371
C238  C     C_R   0.408722 0.603237 0.784186 -0.135714
C239  C     C_R   0.439655 0.651837 0.803112 -0.145075
C240  C     C_R   0.420896 0.676729 0.890241 -0.119256
H98   H     H_    0.303589 0.580529 0.994576 0.117337
H99   H     H_    0.334984 0.541751 0.838573 0.109102
H100  H     H_    0.422999 0.584244 0.716431 0.120729
H101  H     H_    0.478478 0.670167 0.751174 0.129306
H102  H     H_    0.445119 0.714514 0.903974 0.107245
C241  C     C_R   0.389528 0.326998 0.948234 0.128455
C242  C     C_R   0.441712 0.299636 0.893258 -0.139663
C243  C     C_R   0.470494 0.319151 0.803038 -0.123120
C244  C     C_R   0.446908 0.364311 0.766220 -0.147959
C245  C     C_R   0.394312 0.389782 0.819712 -0.141738
C246  C     C_R   0.365822 0.372066 0.910793 -0.089394
H103  H     H_    0.460915 0.265822 0.921376 0.104217
H104  H     H_    0.511464 0.300318 0.762547 0.114190
H105  H     H_    0.469436 0.379869 0.696391 0.134445
H106  H     H_    0.376075 0.424398 0.790920 0.111857
H107  H     H_    0.326024 0.394716 0.952405 0.119112
C247  C     C_R   0.627863 0.650464 0.039862 0.146711
C248  C     C_R   0.658719 0.601343 0.058838 -0.105120
C249  C     C_R   0.640935 0.579142 0.146996 -0.137782
C250  C     C_R   0.591550 0.603916 0.215977 -0.136004
C251  C     C_R   0.560588 0.652404 0.196969 -0.145512
C252  C     C_R   0.579212 0.676917 0.109722 -0.119406
H108  H     H_    0.696398 0.580461 0.005479 0.117270
H109  H     H_    0.665201 0.542246 0.161626 0.109121
H110  H     H_    0.577393 0.585236 0.283823 0.120890
H111  H     H_    0.521866 0.670992 0.248943 0.129418
H112  H     H_    0.554990 0.714664 0.095935 0.107283
C253  C     C_R   0.110460 0.826998 0.051765 0.128228
C254  C     C_R   0.058276 0.799640 0.106767 -0.139494
C255  C     C_R   0.029443 0.819336 0.196921 -0.123318
C256  C     C_R   0.052973 0.864708 0.233628 -0.148575
C257  C     C_R   0.105592 0.890107 0.180145 -0.140502
C258  C     C_R   0.134137 0.872189 0.089134 -0.089237
H113  H     H_    0.039103 0.765715 0.078701 0.104218
H114  H     H_    0.988472 0.800490 0.237447 0.114153
H115  H     H_    0.030381 0.880496 0.303362 0.133036
H116  H     H_    0.123796 0.924843 0.208875 0.111643
H117  H     H_    0.173940 0.894822 0.047503 0.119029
C259  C     C_R   0.872137 0.150462 0.960153 0.146559
C260  C     C_R   0.841315 0.101290 0.941169 -0.105255
C261  C     C_R   0.859175 0.078972 0.853031 -0.137349
C262  C     C_R   0.908600 0.103680 0.784091 -0.135820
C263  C     C_R   0.939517 0.152235 0.803113 -0.145510
C264  C     C_R   0.920812 0.176879 0.890322 -0.119359
H118  H     H_    0.803619 0.080432 0.994508 0.117267
H119  H     H_    0.834945 0.042019 0.838394 0.109087
H120  H     H_    0.922827 0.084891 0.716271 0.120987
H121  H     H_    0.978277 0.170758 0.751191 0.129394
H122  H     H_    0.945013 0.214656 0.904121 0.107288
C265  C     C_R   0.889448 0.827089 0.948273 0.128645
C266  C     C_R   0.941601 0.799676 0.893199 -0.139672
C267  C     C_R   0.970315 0.819158 0.802962 -0.123418
C268  C     C_R   0.946698 0.864363 0.766239 -0.147940
C269  C     C_R   0.894134 0.889901 0.819841 -0.141624
C270  C     C_R   0.865707 0.872197 0.910929 -0.089400
H123  H     H_    0.960826 0.765820 0.921240 0.104241
H124  H     H_    0.011256 0.800255 0.762379 0.114241
H125  H     H_    0.969176 0.879901 0.696399 0.134570
H126  H     H_    0.875869 0.924548 0.791126 0.111863
H127  H     H_    0.825929 0.894875 0.952616 0.119052
C271  C     C_R   0.127908 0.150391 0.039820 0.146595
C272  C     C_R   0.158782 0.101240 0.058716 -0.105162
C273  C     C_R   0.140986 0.078900 0.146827 -0.137626
C274  C     C_R   0.091567 0.103553 0.215834 -0.135986
C275  C     C_R   0.060592 0.152079 0.196904 -0.145341
C276  C     C_R   0.079238 0.176755 0.109720 -0.119287
H128  H     H_    0.196475 0.080422 0.005328 0.117305
H129  H     H_    0.165263 0.041974 0.161395 0.109114
H130  H     H_    0.077391 0.084743 0.283633 0.120675
H131  H     H_    0.021835 0.170558 0.248883 0.129452
H132  H     H_    0.054997 0.214520 0.095996 0.107278
H133  H     H_    0.744904 0.231024 0.783627 0.157970
H134  H     H_    0.252258 0.767110 0.220756 0.166153
H135  H     H_    0.255080 0.231045 0.216392 0.157927
H136  H     H_    0.747760 0.767084 0.779217 0.166045
H137  H     H_    0.244918 0.731052 0.783615 0.157940
H138  H     H_    0.752231 0.267069 0.220789 0.166176
H139  H     H_    0.755079 0.731031 0.216403 0.157899
H140  H     H_    0.247759 0.267096 0.779214 0.166047

loop_
_geom_bond_atom_site_label_1
_geom_bond_atom_site_label_2
_ccdc_geom_bond_type
C164  H22   S    
O24   Zn8   S    
C226  C227  A    
C83   H139  S    
C253  C254  A    
C190  C191  A    
C34   C42   A    
C272  C273  A    
C81   H137  S    
C16   C113  A    
C110  C118  A    
C202  H54   S    
C166  H24   S    
C194  C195  A    
C27   C99   S    
C54   C107  S    
C13   C139  A    
C24   C96   S    
O15   Zn4   S    
C85   O17   A    
C106  O38   A    
C163  C164  A    
C16   H80   S    
C14   H78   S    
C184  H39   S    
C123  C163  S    
C7    O31   A    
C117  C199  S    
C213  H63   S    
C109  C127  A    
C234  H97   S    
C208  C209  A    
O2    Zn2   S    
C111  C125  A    
C116  C124  A    
C250  H110  S    
C125  C135  A    
C143  C151  A    
C126  C136  A    
C19   C141  A    
C164  C165  A    
C92   C147  S    
C82   C98   A    
C191  H45   S    
C130  C134  A    
C73   C81   A    
C50   C98   A    
C207  C208  A    
C84   C100  A    
C8    O32   A    
C127  C136  A    
C271  C272  A    
C128  C135  A    
C122  C169  S    
C112  C120  A    
C90   O14   A    
C27   C35   A    
C203  C204  A    
C212  C213  A    
C121  C175  S    
C21   C29   A    
C255  C256  A    
C23   C31   A    
C239  H101  S    
C243  H104  S    
C24   C32   A    
C91   O23   A    
C176  H32   S    
C8    O8    A    
C197  C198  A    
C146  C154  A    
C89   O21   A    
C18   H82   S    
C211  C212  A    
C240  H102  S    
C129  C133  A    
C161  H20   S    
O14   Zn1   S    
C63   C71   A    
C229  C230  A    
C36   C44   A    
C42   H1    S    
C148  C153  A    
O47   Zn10  S    
C231  C232  A    
O19   Zn3   S    
C32   C40   A    
C259  C260  A    
C269  H126  S    
C255  H114  S    
C185  H40   S    
C57   C104  S    
C218  H67   S    
C48   C96   A    
C167  H25   S    
C59   C102  S    
C16   C138  A    
C45   C229  S    
C215  C216  A    
C92   O24   A    
O10   Zn5   S    
C236  C237  A    
C246  H107  S    
O23   Zn7   S    
C266  C267  A    
C117  C119  A    
C149  C155  A    
O21   Zn5   S    
C184  C185  A    
C243  C244  A    
C249  C250  A    
C155  C217  S    
C53   C108  S    
C142  C150  A    
C21   C93   S    
C78   C94   A    
C161  C162  A    
C23   C95   S    
O31   Zn4   S    
C118  C120  A    
C121  C123  A    
C237  C238  A    
C49   C97   A    
C21   C42   A    
C116  C130  A    
C34   H90   S    
C205  C206  A    
C125  C127  A    
C24   C43   A    
O3    Zn3   S    
C263  H121  S    
C10   C138  A    
C39   H8    S    
C205  C210  A    
C157  C158  A    
C110  C128  A    
C37   H6    S    
C15   C137  A    
C9    C133  A    
C194  H47   S    
C50   C259  S    
C181  C186  A    
O39   Zn10  S    
C159  H18   S    
C69   C77   A    
C19   H83   S    
C45   C93   A    
C71   C79   A    
C220  H69   S    
C257  C258  A    
C31   H87   S    
C204  H56   S    
C178  H34   S    
C195  H48   S    
C103  O35   A    
C175  C180  A    
O18   Zn2   S    
C5    O29   A    
C9    C140  A    
C88   O12   A    
C66   C74   A    
C8    C76   S    
C49   C57   A    
C160  C161  A    
C111  C119  A    
C171  C172  A    
C192  H46   S    
C231  H94   S    
C52   C60   A    
C59   C67   A    
C221  H70   S    
C85   C150  S    
C53   C61   A    
C229  C234  A    
C248  C249  A    
C105  O47   A    
C55   C63   A    
C253  C258  A    
C56   C64   A    
C228  H76   S    
C35   C43   A    
O27   Zn8   S    
C216  H66   S    
O41   Zn11  S    
O25   Zn6   S    
C63   H11   S    
C45   C53   A    
C186  H41   S    
C181  C182  A    
C49   C253  S    
C22   C94   S    
O30   Zn1   S    
C108  O40   A    
C165  H23   S    
C180  H36   S    
C86   O18   A    
C163  C168  A    
C77   H133  S    
O43   Zn12  S    
C242  C243  A    
C213  C214  A    
C208  H59   S    
C249  H109  S    
C162  H21   S    
C52   C100  A    
C214  C215  A    
C160  H19   S    
C235  C240  A    
C25   C38   A    
C102  O34   A    
C238  H100  S    
C46   C94   A    
C27   C40   A    
C183  C184  A    
C78   H134  S    
C188  C189  A    
C51   C265  S    
C273  C274  A    
C11   C141  A    
C28   C36   A    
C25   C97   S    
C62   H10   S    
C14   C140  A    
C87   C152  S    
O32   Zn3   S    
C276  H132  S    
C88   C151  S    
O33   Zn11  S    
C67   C75   A    
C122  C124  A    
C256  C257  A    
C102  O44   A    
C203  H55   S    
C44   H3    S    
C91   O15   A    
C169  C174  A    
C126  C128  A    
O4    Zn4   S    
C36   H92   S    
C248  H108  S    
C89   O13   A    
C179  H35   S    
C1    O25   A    
C211  C216  A    
C176  C177  A    
C92   O16   A    
C197  H50   S    
C68   C76   A    
C12   C143  A    
C182  H37   S    
C79   H135  S    
C172  C173  A    
C174  H31   S    
C144  C152  A    
C232  H95   S    
O40   Zn9   S    
C120  C181  S    
C230  H93   S    
C138  C146  A    
C61   H9    S    
C261  H119  S    
O7    Zn7   S    
C259  C264  A    
O5    Zn5   S    
C269  C270  A    
O16   Zn3   S    
C15   H79   S    
C4    O28   A    
C113  C121  A    
C218  C219  A    
C223  C224  A    
C12   C136  A    
C156  C223  S    
C20   H84   S    
C182  C183  A    
C244  H105  S    
C178  C179  A    
C29   H85   S    
C258  H117  S    
C260  C261  A    
C169  C170  A    
C25   C33   A    
C256  H115  S    
C106  O48   A    
C236  H98   S    
C230  C231  A    
C82   H138  S    
C200  C201  A    
C131  C134  A    
O42   Zn12  S    
C76   C84   A    
C109  C117  A    
C266  H123  S    
C261  C262  A    
C137  C145  A    
C90   C145  S    
C237  H99   S    
C115  C129  A    
C214  H64   S    
O35   Zn12  S    
C22   C41   A    
C107  O39   A    
C254  C255  A    
C14   C115  A    
O44   Zn11  S    
C105  O37   A    
C263  C264  A    
C189  C190  A    
C265  C270  A    
O46   Zn10  S    
C165  C166  A    
C9    C137  A    
C38   H5    S    
C172  H29   S    
C85   O9    A    
C159  C160  A    
C22   C30   A    
C112  C126  A    
C108  O46   A    
C206  C207  A    
C168  H26   S    
C262  C263  A    
C83   C99   A    
C170  H27   S    
C6    O6    A    
C74   C82   A    
C6    C74   S    
C199  C204  A    
C198  H51   S    
C101  O43   A    
C55   C106  S    
C46   C235  S    
C171  H28   S    
C50   C58   A    
C264  H122  S    
C115  C123  A    
C239  C240  A    
O20   Zn4   S    
C173  H30   S    
C221  C222  A    
C275  C276  A    
C54   C62   A    
C28   C39   A    
C274  C275  A    
O34   Zn12  S    
C196  H49   S    
O8    Zn8   S    
C1    C69   S    
C23   C44   A    
C265  C266  A    
C65   H13   S    
C3    C71   S    
C157  C162  A    
C79   C95   A    
C11   C135  A    
C90   O22   A    
C152  C155  A    
C260  H118  S    
C1    O1    A    
C46   C54   A    
O38   Zn10  S    
C17   H81   S    
C209  H60   S    
C80   H136  S    
C187  C192  A    
C18   C111  A    
C124  C157  S    
O48   Zn9   S    
C3    O3    A    
O13   Zn2   S    
C247  C248  A    
C242  H103  S    
C4    C72   S    
C167  C168  A    
C87   O19   A    
C233  C234  A    
C88   O20   A    
C199  C200  A    
C84   H140  S    
C195  C196  A    
C57   C65   A    
C235  C236  A    
O11   Zn8   S    
C238  C239  A    
C26   C37   A    
O9    Zn6   S    
C272  H128  S    
C188  H42   S    
C17   C143  A    
C33   C41   A    
O22   Zn6   S    
C18   C144  A    
C190  H44   S    
C64   H12   S    
C262  H120  S    
C87   O11   A    
C68   H16   S    
C75   C83   A    
C202  C203  A    
C212  H62   S    
C77   C93   A    
C12   C142  A    
C241  C246  A    
C104  O36   A    
C209  C210  A    
C56   C105  S    
C13   C116  A    
O36   Zn11  S    
C177  C178  A    
C60   C68   A    
C72   C80   A    
C4    O4    A    
C29   C37   A    
C86   O10   A    
C244  C245  A    
O12   Zn7   S    
C270  H127  S    
C2    C70   S    
C48   C247  S    
O28   Zn7   S    
C179  C180  A    
C223  C228  A    
C217  C218  A    
C70   C78   A    
C130  C132  A    
C241  C242  A    
C193  C194  A    
C232  C233  A    
C140  C148  A    
C250  C251  A    
C141  C149  A    
C201  C202  A    
C251  H111  S    
C139  C147  A    
C118  C193  S    
C274  H130  S    
C191  C192  A    
C32   H88   S    
C6    O30   A    
O17   Zn1   S    
C267  H124  S    
C219  H68   S    
C65   C73   A    
C207  H58   S    
C147  C154  A    
O45   Zn9   S    
C58   C66   A    
C224  C225  A    
C132  C133  A    
C273  H129  S    
C3    O27   A    
C245  C246  A    
O1    Zn1   S    
C80   C96   A    
C11   C144  A    
C103  O41   A    
O26   Zn5   S    
C60   C101  S    
C145  C153  A    
C28   C100  S    
C35   H91   S    
C224  H72   S    
C107  O45   A    
C200  H52   S    
C5    C73   S    
C62   C70   A    
O29   Zn2   S    
C275  H131  S    
C91   C148  S    
C26   C34   A    
C222  H71   S    
C52   C271  S    
C254  H113  S    
C51   C99   A    
C89   C146  S    
C189  H43   S    
C20   C142  A    
C40   H7    S    
C43   H4    S    
C86   C149  S    
C7    C75   S    
C67   H15   S    
C185  C186  A    
C183  H38   S    
C20   C109  A    
C177  H33   S    
C154  C211  S    
C215  H65   S    
C158  C159  A    
C206  H57   S    
C170  C171  A    
C15   C114  A    
C7    O7    A    
C227  H75   S    
O37   Zn9   S    
C245  H106  S    
C5    O5    A    
C101  O33   A    
C247  C252  A    
C26   C98   S    
C267  C268  A    
C51   C59   A    
C173  C174  A    
C17   C112  A    
C153  C205  S    
C33   H89   S    
C47   C55   A    
C251  C252  A    
C193  C198  A    
C19   C110  A    
C61   C69   A    
C226  H74   S    
C48   C56   A    
C196  C197  A    
C13   H77   S    
C41   H2    S    
C113  C131  A    
C2    O26   A    
C114  C132  A    
C66   H14   S    
C10   C134  A    
C166  C167  A    
C271  C276  A    
C187  C188  A    
C252  H112  S    
C104  O42   A    
C268  H125  S    
C2    O2    A    
C220  C221  A    
C81   C97   A    
C257  H116  S    
C225  H73   S    
C225  C226  A    
C31   C39   A    
C268  C269  A    
C158  H17   S    
C64   C72   A    
C227  C228  A    
C47   C241  S    
O6    Zn6   S    
C175  C176  A    
C233  H96   S    
C114  C122  A    
C151  C156  A    
C10   C139  A    
C210  H61   S    
C47   C95   A    
C201  H53   S    
C150  C156  A    
C58   C103  S    
C30   H86   S    
C30   C38   A    
C219  C220  A    
C217  C222  A    
C119  C187  S    
C129  C131  A    
