data_mof_unit_20141.cif
_audit_creation_date              2012-12-10T16:50:19-0500
_audit_creation_method            fapswitch 2.2
_symmetry_space_group_name_H-M    P1
_symmetry_Int_Tables_number       1
_space_group_crystal_system       triclinic
_cell_length_a                    23.472714
_cell_length_b                    8.721598
_cell_length_c                    7.442228
_cell_angle_alpha                 103.134643
_cell_angle_beta                  94.037748
_cell_angle_gamma                 91.694077
_cell_volume                      1478.39958047

loop_
_atom_site_label
_atom_site_type_symbol
_atom_type_description
_atom_site_fract_x
_atom_site_fract_y
_atom_site_fract_z
_atom_type_partial_charge
C1    C     C_R   0.498349 0.200323 0.453470 0.791279
C2    C     C_R   0.502953 0.799538 0.545733 0.780755
C3    C     C_R   0.234214 0.565418 0.435463 -0.302737
C4    C     C_R   0.758464 0.413973 0.355689 -0.266392
C5    C     C_R   0.293334 0.583833 0.429885 0.422671
C6    C     C_R   0.698860 0.406226 0.351917 0.438240
C7    C     C_R   0.329214 0.489532 0.512924 -0.162931
C8    C     C_R   0.671568 0.499910 0.497713 -0.215093
C9    C     C_R   0.306095 0.389850 0.615888 -0.455932
C10   C     C_R   0.704693 0.586096 0.654526 -0.372358
C11   C     C_R   0.246905 0.383176 0.637483 0.518394
C12   C     C_R   0.764080 0.579552 0.667175 0.514410
C13   C     C_R   0.210956 0.468688 0.540973 0.205877
C14   C     C_R   0.791682 0.497697 0.513737 0.162210
C15   C     C_2   0.495195 0.032753 0.426088 0.120174
C16   C     C_2   0.508875 0.966590 0.569605 0.143304
C17   C     C_R   0.391209 0.499174 0.503289 0.844379
C18   C     C_R   0.608962 0.499496 0.497833 0.819186
C19   C     C_R   0.886274 0.628898 0.571750 0.595272
C20   C     C_R   0.117780 0.331548 0.489196 0.608472
C21   C     C_R   0.877746 0.347958 0.482062 0.529946
C22   C     C_R   0.126142 0.606725 0.631555 0.558828
C23   C     C_R   0.937645 0.338991 0.480319 -0.005015
C24   C     C_R   0.066203 0.616103 0.625351 -0.012930
C25   C     C_R   0.971835 0.479770 0.543488 -0.064427
C26   C     C_R   0.032092 0.476049 0.553624 -0.064703
C27   C     C_R   0.945848 0.624906 0.594468 -0.053318
C28   C     C_R   0.058107 0.332385 0.489677 -0.046431
C29   C     C_R   0.964428 0.195018 0.418170 0.164634
C30   C     C_R   0.039266 0.760304 0.684516 0.160820
C31   C     C_R   0.024089 0.193632 0.422062 -0.255476
C32   C     C_R   0.979671 0.763308 0.665780 -0.258056
Cu1   Cu    Cu3+1 0.506340 0.517380 0.684380 0.943736
Cu2   Cu    Cu3+1 0.493660 0.482620 0.315620 0.982476
H1    H     H_    0.043591 0.082647 0.370864 0.182173
H2    H     H_    0.960009 0.875154 0.709823 0.185338
H3    H     H_    0.206145 0.632729 0.364533 0.185468
H4    H     H_    0.778997 0.347136 0.238970 0.184795
H5    H     H_    0.334480 0.317781 0.678628 0.156117
H6    H     H_    0.684411 0.655136 0.770703 0.188743
H7    H     H_    0.455307 0.379655 0.948579 0.232910
H8    H     H_    0.544685 0.620370 0.051397 0.240457
N1    N     N_R   0.853200 0.491571 0.522124 -0.461170
N2    N     N_R   0.150375 0.467491 0.558384 -0.444016
N3    N     N_2   0.484110 0.456420 0.038520 -0.201483
N4    N     N_2   0.515890 0.543580 0.961480 -0.212984
O1    O     O_R   0.504120 0.286130 0.619770 -0.556336
O2    O     O_R   0.495880 0.713870 0.380230 -0.560500
O3    O     O_R   0.493410 0.256770 0.308360 -0.557647
O4    O     O_R   0.506590 0.743230 0.691640 -0.574622
O5    O     O_R   0.423230 0.514630 0.655730 -0.608150
O6    O     O_R   0.576770 0.485370 0.344270 -0.559032
O7    O     O_R   0.412530 0.485280 0.344320 -0.566468
O8    O     O_R   0.587470 0.514720 0.655680 -0.598799
O9    O     O_2   0.861622 0.769300 0.596873 -0.496549
O10   O     O_2   0.142989 0.196713 0.416691 -0.532581
O11   O     O_2   0.844252 0.214584 0.447696 -0.508551
O12   O     O_2   0.160333 0.735465 0.708138 -0.510167
N5    N     N_3   0.931605 0.050514 0.343125 -0.499315
H9    H     H_    0.944011 0.968400 0.419173 0.229623
H10   H     H_    0.941847 0.007598 0.206841 0.213900
N6    N     N_3   0.071769 0.905182 0.760513 -0.500757
H11   H     H_    0.059043 0.951803 0.893035 0.218251
H12   H     H_    0.061636 0.984689 0.678389 0.227870
O13   O     O_3   0.316199 0.696564 0.347772 -0.594128
C33   C     C_3   0.304690 0.850133 0.448559 0.021983
H13   H     H_    0.345989 0.915755 0.501183 0.120099
H14   H     H_    0.280280 0.853989 0.573056 0.177136
C34   C     C_3   0.272189 0.937636 0.321475 -0.733285
H15   H     H_    0.229800 0.877471 0.271691 0.266530
H16   H     H_    0.265655 0.059848 0.398248 0.233801
H17   H     H_    0.296605 0.942224 0.200356 0.226107
O14   O     O_3   0.668030 0.296539 0.213419 -0.592352
C35   C     C_3   0.661201 0.153217 0.271547 0.045837
H18   H     H_    0.616310 0.107505 0.233886 0.172819
H19   H     H_    0.668598 0.165159 0.423887 0.123476
C36   C     C_3   0.700987 0.030828 0.175525 -0.758721
H20   H     H_    0.746243 0.069721 0.219500 0.284970
H21   H     H_    0.692354 0.916915 0.213733 0.208381
H22   H     H_    0.694251 0.011959 0.023103 0.235533
O15   O     O_3   0.222053 0.288235 0.740654 -0.548017
C37   C     C_3   0.254603 0.293178 0.909335 0.034943
H23   H     H_    0.271882 0.414808 0.976695 0.168816
H24   H     H_    0.290224 0.211547 0.885438 0.137592
C38   C     C_3   0.216606 0.238223 0.041990 -0.681823
H25   H     H_    0.199223 0.116178 0.981008 0.277165
H26   H     H_    0.241903 0.239917 0.174253 0.199460
H27   H     H_    0.180585 0.317711 0.070698 0.247319
O16   O     O_3   0.794945 0.659087 0.827924 -0.540923
C39   C     C_3   0.808439 0.551068 0.938048 0.036990
H28   H     H_    0.826936 0.442645 0.857784 0.153091
H29   H     H_    0.769432 0.517028 0.999297 0.154294
C40   C     C_3   0.852755 0.628752 0.093400 -0.713128
H30   H     H_    0.834317 0.729376 0.187493 0.277919
H31   H     H_    0.866620 0.541454 0.173013 0.189609
H32   H     H_    0.890710 0.672106 0.035062 0.246300
O17   O     O_3   0.483765 0.944706 0.245539 -0.570391
C41   C     C_3   0.424227 0.936793 0.197829 0.082897
H33   H     H_    0.403871 0.051186 0.247128 0.110944
H34   H     H_    0.403815 0.845179 0.256676 0.199878
C42   C     C_3   0.412941 0.888689 0.988641 -0.702498
H35   H     H_    0.366260 0.883334 0.949672 0.171346
H36   H     H_    0.434152 0.975706 0.924043 0.261888
H37   H     H_    0.429545 0.770556 0.936403 0.279664
O18   O     O_3   0.526480 0.056085 0.745190 -0.576662
C43   C     C_3   0.585527 0.038711 0.785677 0.091722
H38   H     H_    0.605672 0.946854 0.682374 0.087514
H39   H     H_    0.590731 0.003586 0.919612 0.184969
C44   C     C_3   0.617974 0.195464 0.802490 -0.674511
H40   H     H_    0.600672 0.288106 0.910300 0.293825
H41   H     H_    0.664168 0.185219 0.837959 0.209069
H42   H     H_    0.613264 0.230065 0.668529 0.206771

loop_
_geom_bond_atom_site_label_1
_geom_bond_atom_site_label_2
_ccdc_geom_bond_type
C33   H14   S    
C40   H30   S    
O14   C35   S    
C20   O10   S    
C17   O5    A    
O15   C37   S    
C18   O6    A    
C36   H20   S    
C11   O15   S    
C42   H35   S    
C35   H19   S    
C39   C40   S    
C23   C29   A    
C24   C26   A    
C44   H41   S    
C8    C10   A    
C36   H22   S    
C33   C34   S    
C43   H38   S    
C15   C16   D    
C9    H5    S    
C10   H6    S    
H8    N4    S    
C34   H16   S    
N6    H12   S    
C2    O4    A    
C21   N1    A    
C22   N2    A    
C29   N5    S    
C7    C17   S    
C35   C36   S    
C1    C15   S    
C2    C16   S    
C3    C13   A    
C36   H21   S    
C33   H13   S    
N5    H9    S    
C42   H36   S    
Cu1   N4    S    
C15   O17   S    
C20   N2    A    
C19   N1    A    
O17   C41   S    
C38   H26   S    
N5    H10   S    
C35   H18   S    
C12   O16   S    
C4    C6    A    
C44   H42   S    
C5    C7    A    
C1    O1    A    
C6    C8    A    
C20   C28   A    
C2    O2    A    
Cu1   O4    S    
C38   H25   S    
C8    C18   S    
C34   H17   S    
C21   O11   S    
N6    H11   S    
C39   H29   S    
Cu1   Cu2   S    
Cu2   N3    S    
C9    C11   A    
C10   C12   A    
C16   O18   S    
C5    O13   S    
C12   C14   A    
C37   H23   S    
C40   H32   S    
C37   H24   S    
C30   N6    S    
C25   C27   A    
Cu1   O1    S    
C31   H1    S    
Cu2   O2    S    
O13   C33   S    
C41   C42   S    
C17   O7    A    
C19   C27   A    
C6    O14   S    
C38   H27   S    
C19   O9    S    
Cu1   O8    S    
C7    C9    A    
Cu2   O3    S    
C27   C32   A    
C26   C28   A    
C28   C31   A    
C4    H4    S    
C3    C5    A    
C22   O12   S    
C32   H2    S    
Cu1   O5    S    
C37   C38   S    
O18   C43   S    
Cu2   O6    S    
C21   C23   A    
C25   C26   A    
C29   C31   A    
C44   H40   S    
C30   C32   A    
C11   C13   A    
C39   H28   S    
C43   H39   S    
C22   C24   A    
C23   C25   A    
C4    C14   A    
C34   H15   S    
C41   H34   S    
C24   C30   A    
C18   O8    A    
N3    N4    D    
C3    H3    S    
Cu2   O7    S    
C40   H31   S    
C41   H33   S    
H7    N3    S    
C42   H37   S    
O16   C39   S    
C1    O3    A    
C13   N2    S    
C14   N1    S    
C43   C44   S    
