data_mof_unit_52041.cif
_audit_creation_date              2012-12-11T17:23:18-0500
_audit_creation_method            fapswitch 2.2
_symmetry_space_group_name_H-M    P1
_symmetry_Int_Tables_number       1
_space_group_crystal_system       triclinic
_cell_length_a                    22.378651
_cell_length_b                    7.1246
_cell_length_c                    19.369354
_cell_angle_alpha                 91.478656
_cell_angle_beta                  99.615356
_cell_angle_gamma                 89.31014
_cell_volume                      3043.73610216

loop_
_atom_site_label
_atom_site_type_symbol
_atom_type_description
_atom_site_fract_x
_atom_site_fract_y
_atom_site_fract_z
_atom_type_partial_charge
O1    O     O_R   0.443980 0.494320 0.557430 -0.537620
O2    O     O_R   0.556020 0.994320 0.442570 -0.539839
O3    O     O_R   0.441210 0.822520 0.414610 -0.534125
O4    O     O_R   0.558790 0.322520 0.585390 -0.536176
C1    C     C_R   0.427003 0.654289 0.388626 0.698154
C2    C     C_R   0.573061 0.157192 0.611485 0.703037
O5    O     O_R   0.436920 0.823940 0.555180 -0.538135
O6    O     O_R   0.563080 0.323940 0.444820 -0.534004
O7    O     O_R   0.551700 0.995760 0.584140 -0.529922
O8    O     O_R   0.448300 0.495760 0.415860 -0.534514
C3    C     C_R   0.421561 0.657986 0.574962 0.722020
C4    C     C_R   0.577905 0.153659 0.424835 0.725100
O9    O     O_3   0.537660 0.661290 0.509340 -0.369036
O10   O     O_3   0.462340 0.161290 0.490660 -0.374947
V1    V     V_3+5 0.493010 0.935560 0.498270 1.404186
V2    V     V_3+5 0.506990 0.435560 0.501730 1.402705
C5    C     C_R   0.735263 0.997780 0.181558 0.361632
C6    C     C_R   0.238542 0.408299 0.773132 0.405195
C7    C     C_R   0.790082 0.094834 0.199799 -0.062601
C8    C     C_R   0.201779 0.562041 0.787749 -0.094059
C9    C     C_R   0.800627 0.201764 0.261917 -0.198160
C10   C     C_R   0.202406 0.724050 0.749557 -0.209356
H1    H     H_    0.843277 0.275325 0.275391 0.187818
H2    H     H_    0.170806 0.836377 0.757108 0.206242
C11   C     C_R   0.757796 0.211803 0.307511 -0.049686
C12   C     C_R   0.241036 0.740845 0.699930 -0.032202
C13   C     C_R   0.701950 0.115140 0.289626 -0.122008
C14   C     C_R   0.284586 0.599412 0.692252 -0.154560
C15   C     C_R   0.691015 0.004420 0.225930 0.366225
C16   C     C_R   0.277906 0.421333 0.722610 0.399560
C17   C     C_1   0.836331 0.084451 0.155183 0.041943
C18   C     C_1   0.159587 0.555186 0.837855 0.035873
C19   C     C_1   0.657808 0.129690 0.337248 -0.018088
C20   C     C_1   0.334079 0.637345 0.653227 -0.030724
C21   C     C_1   0.621786 0.140609 0.377739 -0.220860
C22   C     C_1   0.374290 0.654258 0.618337 -0.212408
C23   C     C_1   0.875156 0.075908 0.118307 -0.181396
C24   C     C_1   0.123132 0.557966 0.878172 -0.187137
C25   C     C_R   0.635341 0.265909 0.801295 -0.005953
C26   C     C_R   0.370543 0.646945 0.193724 -0.004212
H3    H     H_    0.548550 0.283524 0.733453 0.149258
H4    H     H_    0.457164 0.669677 0.262133 0.131842
H5    H     H_    0.723895 0.277770 0.917318 0.106701
H6    H     H_    0.282512 0.647011 0.077152 0.105296
C27   C     C_R   0.615111 0.158754 0.679089 -0.086829
C28   C     C_R   0.385297 0.643438 0.321108 -0.076626
C29   C     C_R   0.906906 0.996345 0.761813 -0.153964
C30   C     C_R   0.090517 0.557371 0.239817 -0.157765
C31   C     C_R   0.868887 0.979959 0.697521 -0.106724
C32   C     C_R   0.127657 0.559685 0.304899 -0.111508
C33   C     C_R   0.807543 0.025613 0.691307 -0.159659
C34   C     C_R   0.190189 0.578549 0.310360 -0.163150
C35   C     C_R   0.782242 0.090595 0.749934 0.085839
C36   C     C_R   0.217681 0.596635 0.250076 0.087477
C37   C     C_R   0.822147 0.111988 0.815549 0.070324
C38   C     C_R   0.178997 0.594744 0.183313 0.069805
C39   C     C_R   0.718870 0.135330 0.745389 0.081877
C40   C     C_R   0.282093 0.615638 0.253978 0.079705
C41   C     C_R   0.697378 0.211540 0.805782 0.049246
C42   C     C_R   0.306679 0.629672 0.190750 0.052922
C43   C     C_R   0.738154 0.229019 0.869404 -0.220726
C44   C     C_R   0.266788 0.630151 0.126261 -0.204963
C45   C     C_R   0.798778 0.178814 0.874263 -0.174519
C46   C     C_R   0.204641 0.612453 0.122666 -0.176269
C47   C     C_R   0.676175 0.107511 0.682735 -0.215113
C48   C     C_R   0.322880 0.622488 0.318719 -0.212721
C49   C     C_R   0.595443 0.238081 0.737929 -0.136816
C50   C     C_R   0.408569 0.655843 0.259130 -0.150613
C51   C     C_R   0.884625 0.062686 0.821206 -0.090995
C52   C     C_R   0.115193 0.574776 0.178669 -0.086806
H7    H     H_    0.688938 0.049900 0.635299 0.102063
H8    H     H_    0.307799 0.614210 0.368507 0.096177
H9    H     H_    0.954176 0.956244 0.765368 0.116742
H10   H     H_    0.042082 0.541048 0.237068 0.113178
H11   H     H_    0.781399 0.009651 0.639599 0.112877
H12   H     H_    0.215542 0.577303 0.362702 0.108907
H13   H     H_    0.887063 0.929746 0.651960 0.134879
H14   H     H_    0.107795 0.545691 0.351772 0.130397
H15   H     H_    0.827464 0.194231 0.924919 0.112707
H16   H     H_    0.176609 0.613462 0.071364 0.104010
O11   O     O_R   0.051730 0.724670 0.084120 -0.533820
O12   O     O_R   0.948270 0.224670 0.915880 -0.532915
O13   O     O_R   0.063080 0.393540 0.944820 -0.533140
O14   O     O_R   0.936920 0.893540 0.055180 -0.530969
C53   C     C_R   0.078253 0.559260 0.924794 0.707871
C54   C     C_R   0.921647 0.063779 0.074564 0.710069
O15   O     O_R   0.058800 0.395030 0.085390 -0.534969
O16   O     O_R   0.941200 0.895030 0.914610 -0.535966
O17   O     O_R   0.943980 0.223310 0.057440 -0.536056
O18   O     O_R   0.056020 0.723310 0.942560 -0.533489
C55   C     C_R   0.072933 0.564613 0.111208 0.680608
C56   C     C_R   0.927030 0.062007 0.888729 0.679791
O19   O     O_3   0.962360 0.556290 0.990650 -0.369583
O20   O     O_3   0.037640 0.056290 0.009350 -0.370075
V3    V     V_3+5 0.006980 0.281990 0.001730 1.437221
V4    V     V_3+5 0.993020 0.781990 0.998270 1.438908
O21   O     O_3   0.636694 0.913971 0.199200 -0.562211
C57   C     C_3   0.610393 0.806847 0.246731 0.143384
H17   H     H_    0.576514 0.713873 0.214591 0.170673
H18   H     H_    0.582558 0.897317 0.276320 0.128659
C58   C     C_3   0.654568 0.677643 0.293813 -0.380327
H19   H     H_    0.670072 0.561507 0.261505 0.209668
H20   H     H_    0.695207 0.753304 0.320669 0.208845
C59   C     C_3   0.623062 0.596960 0.350143 -0.758201
H21   H     H_    0.605401 0.711236 0.381273 0.238153
H22   H     H_    0.655946 0.514064 0.386537 0.226134
H23   H     H_    0.584823 0.506508 0.325748 0.226243
O22   O     O_3   0.308578 0.255202 0.709259 -0.559647
C60   C     C_3   0.328456 0.231052 0.643460 0.150987
H24   H     H_    0.341940 0.081082 0.640283 0.135197
H25   H     H_    0.371823 0.303494 0.643560 0.126551
C61   C     C_3   0.280779 0.270157 0.577075 -0.373592
H26   H     H_    0.236135 0.212678 0.581226 0.239254
H27   H     H_    0.272586 0.421223 0.568204 0.188043
C62   C     C_3   0.301285 0.187115 0.511308 -0.810573
H28   H     H_    0.344512 0.251982 0.503785 0.249300
H29   H     H_    0.266453 0.216091 0.464774 0.227137
H30   H     H_    0.307699 0.032706 0.515307 0.223162
O23   O     O_3   0.727351 0.876899 0.123728 -0.555714
C63   C     C_3   0.693199 0.967395 0.065862 0.120111
H31   H     H_    0.723117 0.062341 0.042476 0.102039
H32   H     H_    0.654546 0.051156 0.080523 0.144700
C64   C     C_3   0.667556 0.817293 0.011411 -0.293233
H33   H     H_    0.705463 0.736937 0.993926 0.190114
H34   H     H_    0.639651 0.718062 0.035666 0.224413
C65   C     C_3   0.628269 0.903208 0.947912 -0.782247
H35   H     H_    0.590129 0.985059 0.964043 0.254279
H36   H     H_    0.609362 0.790061 0.910394 0.243585
H37   H     H_    0.655893 0.996343 0.921174 0.225484
O24   O     O_3   0.232447 0.237779 0.803639 -0.538747
C66   C     C_3   0.274042 0.230000 0.866898 0.108110
H38   H     H_    0.262930 0.339837 0.904890 0.100975
H39   H     H_    0.321354 0.250306 0.857514 0.138874
C67   C     C_3   0.270126 0.037114 0.898559 -0.284310
H40   H     H_    0.222705 0.011424 0.905908 0.199845
H41   H     H_    0.283141 0.927012 0.862033 0.210759
C68   C     C_3   0.311968 0.022817 0.969048 -0.819165
H42   H     H_    0.359726 0.047013 0.962921 0.249122
H43   H     H_    0.308692 0.880309 0.989904 0.223927
H44   H     H_    0.298602 0.127744 0.007199 0.232058
C69   C     C_2   0.772713 0.322519 0.374304 0.411222
H45   H     H_    0.744212 0.316344 0.414237 0.043403
O25   O     O_2   0.817514 0.422019 0.385866 -0.528478
C70   C     C_2   0.229737 0.895757 0.650572 0.476788
H46   H     H_    0.252655 0.897199 0.605608 0.017486
O26   O     O_2   0.192199 0.017762 0.657483 -0.523514
C71   C     C_2   0.610958 0.359896 0.860506 0.346207
H47   H     H_    0.640405 0.430388 0.903042 0.041670
O27   O     O_2   0.556581 0.362565 0.861879 -0.520354
C72   C     C_2   0.399511 0.651958 0.129882 0.371162
H48   H     H_    0.376922 0.597036 0.079812 0.042515
O28   O     O_2   0.450373 0.715351 0.132801 -0.527835

loop_
_geom_bond_atom_site_label_1
_geom_bond_atom_site_label_2
_ccdc_geom_bond_type
O16   V4    S    
O4    V2    S    
C58   H19   S    
C26   C42   A    
C2    C27   S    
O15   C55   A    
C13   C15   A    
C5    C15   A    
C71   H47   S    
O1    C3    A    
C66   C67   S    
C7    C17   S    
C67   C68   S    
C59   H22   S    
O21   C57   S    
C10   C12   A    
C64   H33   S    
C29   C31   A    
C45   H15   S    
C13   C19   S    
O5    C3    A    
C48   H8    S    
C68   H43   S    
C65   H35   S    
C3    C22   S    
C71   O27   D    
C33   H11   S    
C28   C48   A    
C60   H25   S    
C8    C18   S    
C39   C41   A    
C40   C42   A    
C62   H28   S    
O12   C56   A    
O22   C60   S    
C42   C44   A    
O14   V4    S    
C43   C45   A    
C61   H26   S    
C44   C46   A    
C5    C7    A    
C40   C48   A    
C29   C51   A    
O16   C56   A    
C63   H32   S    
C14   C16   A    
C31   C33   A    
C37   C45   A    
C27   C49   A    
C32   C34   A    
C38   C46   A    
C6    C16   A    
C18   C24   T    
C51   C56   S    
C20   C22   T    
C63   C64   S    
O6    V2    S    
O5    V1    S    
O2    C4    A    
C58   H20   S    
H4    C50   S    
C46   H16   S    
C2    O7    A    
C12   C70   S    
C32   H14   S    
C61   H27   S    
C59   H21   S    
C34   C36   A    
C35   C37   A    
C68   H44   S    
C36   C38   A    
C41   C43   A    
C24   C53   S    
C30   H10   S    
C23   C54   S    
C29   H9    S    
H3    C49   S    
C60   C61   S    
C30   C52   A    
O11   V4    S    
C35   C39   A    
C64   C65   S    
C67   H41   S    
C65   H37   S    
C62   H29   S    
C47   H7    S    
C17   C23   T    
O15   V3    S    
C33   C35   A    
O17   V3    S    
C28   C50   A    
C72   O28   D    
O6    C4    A    
C62   H30   S    
C25   C41   A    
C26   C72   S    
O1    V2    S    
O13   V3    S    
C4    C21   S    
O20   V4    S    
O2    V1    S    
C52   C55   S    
C37   C51   A    
C1    C28   S    
C70   O26   D    
O13   C53   A    
C8    C10   A    
O19   V4    S    
C38   C52   A    
C9    H1    S    
C34   H12   S    
C10   H2    S    
C6    O24   S    
O4    C2    A    
C66   H38   S    
O3    C1    A    
O3    V1    S    
C63   H31   S    
H5    C43   S    
C36   C40   A    
C9    C11   A    
C65   H36   S    
O12   V3    S    
C16   O22   S    
O10   V1    S    
C25   C49   A    
C11   C69   S    
C39   C47   A    
C70   H46   S    
C66   H39   S    
C54   O17   A    
O23   C63   S    
O18   V4    S    
C67   H40   S    
C11   C13   A    
C57   C58   S    
C68   H42   S    
C12   C14   A    
C15   O21   S    
H6    C44   S    
C53   O18   A    
C69   O25   D    
O24   C66   S    
O7    V1    S    
C1    O8    A    
O8    V2    S    
C60   H24   S    
C27   C47   A    
C30   C32   A    
C19   C21   T    
C31   H13   S    
C6    C8    A    
C59   H23   S    
O20   V3    S    
C57   H18   S    
C64   H34   S    
C5    O23   S    
C14   C20   S    
O11   C55   A    
O19   V3    S    
C57   H17   S    
C26   C50   A    
O9    V2    S    
C25   C71   S    
C72   H48   S    
O14   C54   A    
C58   C59   S    
C69   H45   S    
C61   C62   S    
C7    C9    A    
