data_mof_unit_54437.cif
_audit_creation_date              2012-12-10T17:20:51-0500
_audit_creation_method            fapswitch 2.2
_symmetry_space_group_name_H-M    P1
_symmetry_Int_Tables_number       1
_space_group_crystal_system       triclinic
_cell_length_a                    14.342788
_cell_length_b                    10.789998
_cell_length_c                    9.606652
_cell_angle_alpha                 90.058441
_cell_angle_beta                  90.027694
_cell_angle_gamma                 92.402701
_cell_volume                      1485.40451673

loop_
_atom_site_label
_atom_site_type_symbol
_atom_type_description
_atom_site_fract_x
_atom_site_fract_y
_atom_site_fract_z
_atom_type_partial_charge
C1    C     C_R   0.496592 0.262540 0.499978 0.786270
C2    C     C_1   0.771164 0.500518 0.500092 -0.199733
C3    C     C_R   0.350982 0.121155 0.652786 -0.192183
C4    C     C_R   0.283504 0.053258 0.729104 0.217863
C5    C     C_R   0.284069 0.923659 0.728893 -0.167959
C6    C     C_R   0.351550 0.862733 0.653822 -0.210104
C7    C     C_R   0.421722 0.930188 0.579046 0.099032
C8    C     C_R   0.421461 0.061237 0.578648 0.050358
C9    C     C_R   0.489928 0.128369 0.499775 -0.090504
C10   C     C_R   0.553845 0.066948 0.418041 -0.189934
C11   C     C_R   0.554033 0.939105 0.418260 -0.207260
C12   C     C_R   0.331191 0.499577 0.500016 0.791201
C13   C     C_R   0.490318 0.870599 0.500243 -0.078719
C14   C     C_R   0.623462 0.665478 0.144084 -0.137625
C15   C     C_R   0.683222 0.746944 0.072072 -0.211199
C16   C     C_R   0.683170 0.747034 0.928712 -0.198257
C17   C     C_R   0.623345 0.665670 0.856388 -0.131088
C18   C     C_R   0.560437 0.581553 0.925339 0.206014
C19   C     C_R   0.560459 0.581476 0.074879 0.211199
C20   C     C_R   0.442501 0.422349 0.073708 -0.056498
C21   C     C_R   0.442517 0.422384 0.925909 -0.055728
C22   C     C_R   0.497045 0.737168 0.500101 0.761086
C23   C     C_R   0.668803 0.500329 0.500009 0.793196
C24   C     C_1   0.228845 0.499809 0.500067 -0.195618
C25   C     C_1   0.143417 0.500043 0.500163 -0.000924
C26   C     C_1   0.042733 0.500303 0.500222 0.006791
C27   C     C_1   0.957294 0.500471 0.500215 0.004621
C28   C     C_1   0.856603 0.500564 0.500158 -0.007432
Cu1   Cu    Cu3+1 0.499990 0.499990 0.640660 0.924445
Cu2   Cu    Cu3+1 0.500010 0.500010 0.359340 0.932118
H1    H     H_    0.605431 0.118497 0.356283 0.152557
H2    H     H_    0.730212 0.810326 0.872751 0.151569
H3    H     H_    0.630086 0.672992 0.746731 0.192992
H4    H     H_    0.395399 0.358700 0.870720 0.132553
H5    H     H_    0.345970 0.220801 0.650429 0.147856
H6    H     H_    0.231400 0.869345 0.785404 0.136410
H7    H     H_    0.346585 0.762575 0.653231 0.164010
H8    H     H_    0.605757 0.893386 0.356632 0.137569
H9    H     H_    0.395383 0.358629 0.128655 0.137571
H10   H     H_    0.630318 0.672672 0.253728 0.188059
H11   H     H_    0.730280 0.810189 0.128290 0.147349
N1    N     N_R   0.500820 0.501210 0.147910 -0.191241
N2    N     N_R   0.500850 0.501290 0.852040 -0.191138
O1    O     O_R   0.499990 0.319640 0.618810 -0.572883
O2    O     O_R   0.500000 0.319660 0.381240 -0.569754
O3    O     O_R   0.376050 0.499990 0.618810 -0.568274
O4    O     O_R   0.376060 0.500010 0.381240 -0.552033
O5    O     O_R   0.500000 0.680340 0.618760 -0.597381
O6    O     O_R   0.500010 0.680360 0.381190 -0.584417
O7    O     O_R   0.623940 0.499990 0.618760 -0.569512
O8    O     O_R   0.623950 0.500010 0.381190 -0.573815
N3    N     N_3   0.213525 0.117700 0.803462 -0.592381
H12   H     H_    0.247259 0.169071 0.882446 0.206048
H13   H     H_    0.167167 0.054440 0.852580 0.214855

loop_
_geom_bond_atom_site_label_1
_geom_bond_atom_site_label_2
_ccdc_geom_bond_type
C11   H8    S    
C22   O5    A    
Cu2   O8    S    
C24   C25   T    
Cu1   Cu2   S    
C16   H2    S    
C9    C10   A    
C12   C24   S    
C1    O1    A    
C20   N1    A    
C19   N1    A    
C3    H5    S    
Cu1   O3    S    
C17   C18   A    
C6    H7    S    
C7    C8    A    
N3    H12   S    
Cu1   N2    S    
C11   C13   A    
C1    O2    A    
C26   C27   T    
C6    C7    A    
C17   H3    S    
C4    N3    S    
C12   O4    A    
C4    C5    A    
C10   H1    S    
Cu2   O6    S    
N3    H13   S    
C13   C22   S    
C3    C8    A    
Cu1   O7    S    
C22   O6    A    
Cu1   O1    S    
C5    C6    A    
C10   C11   A    
Cu1   O5    S    
C14   H10   S    
C3    C4    A    
C5    H6    S    
Cu2   O4    S    
C7    C13   A    
C1    C9    S    
C20   C21   A    
C15   H11   S    
C12   O3    A    
C18   C19   A    
C18   N2    A    
C2    C23   S    
C20   H9    S    
C14   C15   A    
C16   C17   A    
C23   O7    A    
C2    C28   T    
C21   H4    S    
Cu2   O2    S    
C25   C26   S    
C21   N2    A    
C23   O8    A    
C14   C19   A    
Cu2   N1    S    
C15   C16   A    
C8    C9    A    
C27   C28   S    
