data_mof_unit_15418.cif
_audit_creation_date              2012-12-10T18:09:53-0500
_audit_creation_method            fapswitch 2.2
_symmetry_space_group_name_H-M    P1
_symmetry_Int_Tables_number       1
_space_group_crystal_system       triclinic
_cell_length_a                    10.651111
_cell_length_b                    12.588848
_cell_length_c                    13.103204
_cell_angle_alpha                 81.961418
_cell_angle_beta                  91.233339
_cell_angle_gamma                 102.51409
_cell_volume                      1698.28236325

loop_
_atom_site_label
_atom_site_type_symbol
_atom_type_description
_atom_site_fract_x
_atom_site_fract_y
_atom_site_fract_z
_atom_type_partial_charge
C1    C     C_R   0.477679 0.438727 0.691070 0.886022
C2    C     C_R   0.453175 0.447134 0.972938 0.095409
C3    C     C_R   0.428170 0.470580 0.867574 0.044292
C4    C     C_R   0.742070 0.501061 0.501297 0.904564
C5    C     C_R   0.463003 0.532229 0.034343 0.053242
C6    C     C_R   0.427474 0.632760 0.994787 0.093443
C7    C     C_R   0.381545 0.646546 0.893666 0.113322
C8    C     C_R   0.380694 0.565356 0.831784 -0.220382
C9    C     C_R   0.511681 0.520682 0.133512 -0.231958
C10   C     C_R   0.476251 0.697542 0.160337 -0.178215
C11   C     C_R   0.453824 0.399281 0.800492 -0.107896
C12   C     C_3   0.121675 0.500822 0.501448 0.054640
C13   C     C_R   0.329367 0.092909 0.338218 -0.259008
C14   C     C_R   0.647304 0.798468 0.633780 -0.155928
C15   C     C_R   0.694139 0.906535 0.652246 0.426154
C16   C     C_R   0.514707 0.561295 0.308462 0.865747
C17   C     C_R   0.656227 0.991417 0.586501 0.440175
C18   C     C_R   0.551876 0.966406 0.517915 -0.193452
C19   C     C_R   0.514191 0.856369 0.498846 0.143843
C20   C     C_R   0.485398 0.045034 0.466809 0.002315
C21   C     C_R   0.394503 0.015157 0.388654 0.142524
C22   C     C_R   0.368482 0.907661 0.364452 0.084296
C23   C     C_3   0.064431 0.485597 0.393508 -0.400452
C24   C     C_R   0.425608 0.829649 0.421094 -0.191785
C25   C     C_R   0.499256 0.150648 0.494905 -0.002664
C26   C     C_R   0.351011 0.196793 0.367317 -0.011776
C27   C     C_R   0.258051 0.499609 0.500287 0.845731
C28   C     C_3   0.905985 0.401724 0.575530 0.010252
C29   C     C_3   0.051132 0.408579 0.584116 -0.437146
C30   C     C_3   0.922270 0.493310 0.392788 -0.482653
C31   C     C_3   0.961582 0.616073 0.534315 0.320275
C32   C     C_3   0.879497 0.504432 0.503115 -0.011223
C33   C     C_3   0.818956 0.110067 0.495279 -0.245323
C34   C     C_3   0.103811 0.613023 0.528906 -0.393179
C35   C     C_3   0.748449 0.881653 0.822420 -0.203700
C36   C     C_R   0.437823 0.715838 0.058176 -0.144553
C37   C     C_R   0.507981 0.597608 0.198697 -0.059725
C38   C     C_R   0.472161 0.294424 0.840373 -0.133786
C39   C     C_R   0.474615 0.263677 0.946145 -0.109165
C40   C     C_R   0.468460 0.339774 0.012287 -0.176020
H1    H     H_    0.864446 0.328735 0.537726 0.179131
H2    H     H_    0.487144 0.182258 0.976917 0.157919
H3    H     H_    0.341593 0.577143 0.755185 0.187171
H4    H     H_    0.302478 0.257853 0.328258 0.139546
H5    H     H_    0.261285 0.074656 0.277449 0.189951
H6    H     H_    0.559199 0.177422 0.557714 0.195947
H7    H     H_    0.681410 0.731705 0.677939 0.199615
H8    H     H_    0.398378 0.748066 0.402586 0.214733
H9    H     H_    0.084901 0.426534 0.662089 0.203247
H10   H     H_    0.072078 0.327834 0.573878 0.187195
H11   H     H_    0.863299 0.418392 0.365441 0.187835
H12   H     H_    0.154419 0.680067 0.470080 0.212942
H13   H     H_    0.072267 0.404121 0.373635 0.185564
H14   H     H_    0.151183 0.628300 0.603564 0.204531
H15   H     H_    0.850039 0.033737 0.482338 0.179442
H16   H     H_    0.908366 0.169583 0.509465 0.179075
H17   H     H_    0.773620 0.143634 0.424358 0.152603
H18   H     H_    0.748207 0.792538 0.832575 0.167162
H19   H     H_    0.651717 0.894799 0.840739 0.150790
H20   H     H_    0.816675 0.919131 0.879203 0.207475
H21   H     H_    0.908091 0.563929 0.336090 0.218940
H22   H     H_    0.118691 0.549840 0.333801 0.200429
H23   H     H_    0.476375 0.759232 0.210086 0.178015
H24   H     H_    0.412583 0.793504 0.030930 0.188442
H25   H     H_    0.550011 0.450048 0.163350 0.153546
H26   H     H_    0.488358 0.237404 0.789908 0.176620
H27   H     H_    0.472771 0.311599 0.093669 0.132713
I1    I     I_    0.316842 0.788395 0.825224 -0.371618
I2    I     I_    0.810652 0.354709 0.723887 -0.311304
I3    I     I_    0.239122 0.853310 0.246661 -0.422709
I4    I     I_    0.934382 0.762981 0.433728 -0.321733
I5    I     I_    0.922486 0.649503 0.687047 -0.281584
N1    N     N_R   0.433240 0.222190 0.444680 -0.117279
N2    N     N_R   0.566070 0.776970 0.554790 -0.134597
O1    O     O_R   0.468120 0.366740 0.627160 -0.607873
O2    O     O_3   0.791155 0.932349 0.722552 -0.546652
O3    O     O_R   0.510770 0.544830 0.662520 -0.609955
O4    O     O_R   0.663880 0.410950 0.482330 -0.621761
O5    O     O_R   0.706530 0.589040 0.517700 -0.573645
O6    O     O_R   0.489230 0.455170 0.337480 -0.622853
O7    O     O_R   0.531880 0.633260 0.372840 -0.621810
O8    O     O_R   0.293470 0.410960 0.482300 -0.620133
O9    O     O_R   0.336120 0.589050 0.517670 -0.648914
O10   O     O_3   0.734479 0.095113 0.580578 -0.589759
Zn1   Zn    Zn3+2 0.471520 0.381090 0.476390 0.951196
Zn2   Zn    Zn3+2 0.528480 0.618910 0.523610 0.966144

loop_
_geom_bond_atom_site_label_1
_geom_bond_atom_site_label_2
_ccdc_geom_bond_type
C33   H15   S    
C13   H5    S    
C30   H11   S    
C12   C29   S    
C1    O3    A    
C28   I2    S    
C1    C11   S    
C8    H3    S    
C10   H23   S    
C26   H4    S    
C7    C8    A    
C29   H9    S    
C4    O4    A    
C12   C23   S    
C10   C37   A    
C14   N2    A    
C28   C29   S    
C5    C6    A    
C20   C25   A    
C28   H1    S    
C26   N1    A    
C35   H19   S    
C18   C19   A    
C7    I1    S    
O1    Zn1   S    
C23   H22   S    
C38   H26   S    
C40   H27   S    
C25   N1    A    
O7    Zn2   S    
C16   C37   S    
C33   H16   S    
C31   I4    S    
C15   O2    S    
C21   C22   A    
C23   H13   S    
C39   H2    S    
C29   H10   S    
C19   N2    A    
C35   O2    S    
C12   C27   S    
C1    O1    A    
C23   C30   S    
C28   C32   S    
C4    O5    A    
C3    C8    A    
C39   C40   A    
C35   H20   S    
C16   O6    A    
C24   H8    S    
C11   C38   A    
C5    C9    A    
O6    Zn1   S    
C31   C32   S    
C9    C37   A    
C17   C18   A    
C31   C34   S    
C13   C21   A    
C4    C32   S    
N2    Zn2   S    
N1    Zn1   S    
C6    C7    A    
O4    Zn1   S    
C31   I5    S    
O3    Zn2   S    
C34   H14   S    
C35   H18   S    
C22   C24   A    
C13   C26   A    
C2    C5    A    
C12   C34   S    
C15   C17   A    
C33   H17   S    
C27   O8    A    
C14   H7    S    
O8    Zn1   S    
C34   H12   S    
C17   O10   S    
C27   O9    A    
C2    C3    A    
C30   C32   S    
C38   C39   A    
C16   O7    A    
C6    C36   A    
C19   C24   A    
C18   C20   A    
C33   O10   S    
C9    H25   S    
C3    C11   A    
C2    C40   A    
O9    Zn2   S    
C20   C21   A    
C30   H21   S    
C14   C15   A    
C10   C36   A    
C36   H24   S    
C25   H6    S    
C22   I3    S    
O5    Zn2   S    
