data_mof_unit_47067.cif
_audit_creation_date              2012-12-10T18:44:24-0500
_audit_creation_method            fapswitch 2.2
_symmetry_space_group_name_H-M    P1
_symmetry_Int_Tables_number       1
_space_group_crystal_system       triclinic
_cell_length_a                    12.925018
_cell_length_b                    10.791631
_cell_length_c                    9.880747
_cell_angle_alpha                 89.00139
_cell_angle_beta                  98.340534
_cell_angle_gamma                 93.211882
_cell_volume                      1361.40774502

loop_
_atom_site_label
_atom_site_type_symbol
_atom_type_description
_atom_site_fract_x
_atom_site_fract_y
_atom_site_fract_z
_atom_type_partial_charge
C1    C     C_R   0.507618 0.260311 0.502649 0.981981
C2    C     C_R   0.490475 0.739148 0.497300 0.977720
C3    C     C_R   0.480207 0.871797 0.494256 -0.400820
C4    C     C_R   0.513457 0.126945 0.506154 -0.406228
C5    C     C_R   0.567308 0.580012 0.081284 0.039503
C6    C     C_R   0.431854 0.421508 0.918443 0.061009
C7    C     C_R   0.566765 0.578941 0.937872 0.464206
C8    C     C_R   0.434556 0.419607 0.061857 0.449555
C9    C     C_R   0.298459 0.510150 0.471513 0.877810
C10   C     C_R   0.702103 0.493942 0.528322 0.895291
C11   C     C_R   0.815687 0.487508 0.547971 -0.133622
C12   C     C_R   0.186220 0.529324 0.451233 -0.185124
C13   C     C_R   0.016033 0.502283 0.314360 0.149821
C14   C     C_R   0.984681 0.531592 0.684229 0.069898
C15   C     C_R   0.123802 0.517200 0.322053 0.079205
C16   C     C_R   0.876425 0.513136 0.675431 0.083806
C17   C     C_R   0.138988 0.560256 0.564904 0.013510
C18   C     C_R   0.864740 0.460420 0.434776 -0.003024
C19   C     C_R   0.031803 0.531607 0.562958 0.057372
C20   C     C_R   0.970406 0.496002 0.436619 0.023857
C21   C     C_R   0.520312 0.064815 0.383585 0.361044
C22   C     C_R   0.472998 0.933369 0.617100 0.350062
C23   C     C_R   0.493240 0.939614 0.374293 0.310949
C24   C     C_R   0.496911 0.059492 0.625766 0.317310
N1    N     N_R   0.499970 0.499970 0.857200 -0.168483
N2    N     N_R   0.500030 0.500030 0.142800 -0.163459
O1    O     O_R   0.499990 0.316750 0.614620 -0.606482
O2    O     O_R   0.500010 0.683250 0.385380 -0.612831
O3    O     O_R   0.499990 0.316780 0.385290 -0.526463
O4    O     O_R   0.500010 0.683220 0.614710 -0.530606
O5    O     O_R   0.346360 0.499970 0.595710 -0.665421
O6    O     O_R   0.653640 0.500030 0.404290 -0.662009
O7    O     O_R   0.346360 0.499990 0.366380 -0.604298
O8    O     O_R   0.653640 0.500010 0.633620 -0.550704
Zn1   Zn    Zn3+2 0.500000 0.499980 0.653120 1.038925
Zn2   Zn    Zn3+2 0.500000 0.500020 0.346880 1.020776
N3    N     N_3   0.812134 0.381651 0.327069 -0.440797
H1    H     H_    0.769465 0.309012 0.368692 0.235061
H2    H     H_    0.762393 0.432436 0.257033 0.235695
N4    N     N_3   0.195452 0.637453 0.671252 -0.436500
H3    H     H_    0.243910 0.584999 0.740911 0.219092
H4    H     H_    0.240205 0.706941 0.627840 0.239592
N5    N     N_3   0.828883 0.516895 0.797670 -0.370927
H5    H     H_    0.852096 0.601337 0.846201 0.244800
H6    H     H_    0.857247 0.445416 0.863149 0.210417
N6    N     N_3   0.166399 0.524220 0.195930 -0.414605
H7    H     H_    0.204021 0.443186 0.185146 0.256363
H8    H     H_    0.218117 0.602260 0.195858 0.226414
N7    N     N_3   0.955496 0.500462 0.180242 -0.425449
H9    H     H_    0.894495 0.560674 0.176270 0.206872
H10   H     H_    0.927411 0.409976 0.154975 0.221469
N8    N     N_3   0.043724 0.544473 0.818615 -0.454626
H11   H     H_    0.072925 0.636103 0.834041 0.237873
H12   H     H_    0.103535 0.482213 0.831590 0.203612
Cl1   Cl    Cl    0.573370 0.136851 0.243610 -0.445060
Cl2   Cl    Cl    0.424656 0.858345 0.759070 -0.458014
Cl3   Cl    Cl    0.465199 0.875266 0.207951 -0.466438
Cl4   Cl    Cl    0.514995 0.125321 0.791897 -0.415758
N9    N     N_3   0.643066 0.663208 0.159108 -0.413375
H13   H     H_    0.630352 0.753384 0.122880 0.277211
H14   H     H_    0.632597 0.665128 0.260264 0.263371
N10   N     N_3   0.354440 0.340706 0.840654 -0.329892
H15   H     H_    0.282202 0.380677 0.835729 0.165259
H16   H     H_    0.368930 0.330287 0.741783 0.271715
Cl5   Cl    Cl    0.651178 0.683910 0.862757 -0.534864
Cl6   Cl    Cl    0.355369 0.307249 0.135256 -0.512550

loop_
_geom_bond_atom_site_label_1
_geom_bond_atom_site_label_2
_ccdc_geom_bond_type
C12   C17   A    
N10   H16   S    
N5    H5    S    
C5    C7    A    
C11   C18   A    
C8    Cl6   S    
N3    H1    S    
C14   C16   A    
C7    Cl5   S    
C8    N2    A    
C11   C16   A    
C3    C23   A    
C19   C20   A    
C7    N1    A    
C12   C15   A    
C22   Cl2   S    
C2    O4    A    
C1    C4    S    
C6    N10   S    
C1    O3    A    
C2    C3    S    
C21   Cl1   S    
N9    H13   S    
N3    H2    S    
C9    O7    A    
C4    C21   A    
N5    H6    S    
O3    Zn2   S    
N10   H15   S    
O4    Zn1   S    
N1    Zn1   S    
C13   N7    S    
O6    Zn2   S    
C24   Cl4   S    
N4    H3    S    
C17   C19   A    
C18   N3    S    
N8    H12   S    
N7    H9    S    
O5    Zn1   S    
C13   C15   A    
C21   C23   A    
C4    C24   A    
C9    C12   S    
C22   C24   A    
C16   N5    S    
C6    N1    A    
N9    H14   S    
C10   C11   S    
C9    O5    A    
C5    N2    A    
C10   O8    A    
N6    H8    S    
C10   O6    A    
O7    Zn2   S    
N8    H11   S    
O2    Zn2   S    
C18   C20   A    
C23   Cl3   S    
O8    Zn1   S    
N2    Zn2   S    
C1    O1    A    
C5    N9    S    
C2    O2    A    
C3    C22   A    
C6    C8    A    
C15   N6    S    
O1    Zn1   S    
N6    H7    S    
C14   C19   A    
C13   C20   A    
C14   N8    S    
N4    H4    S    
N7    H10   S    
C17   N4    S    
