data_mof_unit_39907.cif
_audit_creation_date              2013-03-05T15:58:04-0500
_audit_creation_method            fapswitch 2.2
_symmetry_space_group_name_H-M    P1
_symmetry_Int_Tables_number       1
_space_group_crystal_system       triclinic
_cell_length_a                    15.151161
_cell_length_b                    13.895546
_cell_length_c                    10.927166
_cell_angle_alpha                 90.135952
_cell_angle_beta                  91.122346
_cell_angle_gamma                 90.635435
_cell_volume                      2299.9456622

loop_
_atom_site_label
_atom_site_type_symbol
_atom_site_description
_atom_site_fract_x
_atom_site_fract_y
_atom_site_fract_z
_atom_type_partial_charge
O1    O     O_R   0.370250 0.582280 0.500040 -0.519191
O2    O     O_R   0.370250 0.417720 0.500040 -0.555075
C1    C     C_R   0.328672 0.499635 0.500414 0.871725
O3    O     O_R   0.499970 0.582270 0.317700 -0.580728
O4    O     O_R   0.499970 0.417730 0.317700 -0.568380
C2    C     C_R   0.496736 0.499717 0.260234 0.882313
Cu1   Cu    Cu3+1 0.499990 0.597420 0.500010 1.102720
Cu2   Cu    Cu3+1 0.499990 0.402580 0.500010 1.099202
O5    O     O_R   0.629730 0.582260 0.499980 -0.588990
O6    O     O_R   0.629730 0.417740 0.499980 -0.581119
O7    O     O_R   0.500000 0.582270 0.682320 -0.525747
O8    O     O_R   0.500000 0.417730 0.682320 -0.528903
C3    C     C_R   0.670752 0.500688 0.502332 0.889005
C4    C     C_R   0.498144 0.500445 0.739975 0.872761
C5    C     C_3   0.441150 0.591770 0.073696 0.079245
C6    C     C_3   0.451074 0.402322 0.069472 0.068123
H1    H     H_    0.482686 0.651870 0.109807 0.172068
H2    H     H_    0.498065 0.347642 0.104644 0.192816
C7    C     C_3   0.440569 0.595610 0.928320 0.431115
C8    C     C_3   0.452850 0.398439 0.924807 0.423823
H3    H     H_    0.619821 0.572763 0.110670 0.251854
H4    H     H_    0.624151 0.444077 0.105563 0.286918
H5    H     H_    0.621486 0.575043 0.900493 0.286000
H6    H     H_    0.630128 0.452456 0.896678 0.271281
C9    C     C_3   0.585926 0.507148 0.073673 -0.428459
C10   C     C_3   0.489995 0.499770 0.122266 -0.265654
C11   C     C_3   0.491787 0.500980 0.878000 -0.319101
C12   C     C_3   0.587217 0.509415 0.932094 -0.374323
C13   C     C_R   0.811009 0.475295 0.396829 0.288650
C14   C     C_R   0.767271 0.503322 0.502358 -0.287750
C15   C     C_R   0.814828 0.539123 0.604959 0.286222
C16   C     C_R   0.908301 0.547314 0.602222 -0.014044
C17   C     C_R   0.952427 0.513097 0.497670 -0.064085
C18   C     C_R   0.903463 0.478094 0.395012 -0.028644
C19   C     C_R   0.959008 0.589780 0.699237 0.199961
C20   C     C_R   0.051689 0.589007 0.697067 0.072966
C21   C     C_R   0.095498 0.548044 0.596932 0.051314
C22   C     C_R   0.045706 0.513102 0.495315 0.012866
C23   C     C_R   0.089185 0.477299 0.391208 -0.001757
C24   C     C_R   0.038791 0.452881 0.284741 0.279950
C25   C     C_R   0.947570 0.448633 0.290235 -0.159900
C26   C     C_R   0.188037 0.543037 0.595083 -0.119253
C27   C     C_R   0.231197 0.499793 0.497971 -0.040132
C28   C     C_R   0.181127 0.462703 0.397841 0.154085
H7    H     H_    0.227741 0.569935 0.670848 0.216660
H8    H     H_    0.911613 0.424429 0.209246 0.239522
C29   C     C_R   0.422711 0.796143 0.504582 0.521701
C30   C     C_R   0.424038 0.202363 0.518584 0.530427
N1    N     N_R   0.499930 0.743810 0.499950 -0.252052
N2    N     N_R   0.499930 0.256190 0.499950 -0.255712
C31   C     C_R   0.578691 0.794185 0.493182 0.032622
C32   C     C_R   0.577861 0.207431 0.484619 0.036005
C33   C     C_R   0.582490 0.897302 0.491800 -0.004676
C34   C     C_R   0.582084 0.104465 0.487774 -0.005821
C35   C     C_R   0.503938 0.948656 0.503732 0.018205
C36   C     C_R   0.503928 0.051334 0.503494 0.016407
C37   C     C_R   0.424085 0.897403 0.512917 -0.054237
C38   C     C_R   0.424641 0.100793 0.518214 -0.050554
C39   C     C_R   0.662291 0.950216 0.478362 0.125795
C40   C     C_R   0.661982 0.053414 0.475242 0.126602
C41   C     C_R   0.345969 0.047723 0.532067 -0.087459
C42   C     C_R   0.345444 0.948505 0.526915 -0.100524
H9    H     H_    0.639283 0.754713 0.486412 0.199102
H10   H     H_    0.637783 0.248002 0.470267 0.211776
H11   H     H_    0.283046 0.081748 0.545247 0.212076
H12   H     H_    0.282037 0.912958 0.534702 0.206956
N3    N     N_3   0.099659 0.630891 0.798726 -0.538036
H13   H     H_    0.136684 0.577109 0.841059 0.316108
H14   H     H_    0.141490 0.685119 0.766575 0.286616
N4    N     N_3   0.220790 0.405689 0.305148 -0.401803
H15   H     H_    0.191195 0.337403 0.305763 0.282046
H16   H     H_    0.287600 0.396362 0.321527 0.286857
N5    N     N_R   0.078086 0.441247 0.167163 0.153173
O9    O     O_R   0.127593 0.509910 0.124205 -0.214303
O10   O     O_R   0.051098 0.372474 0.094058 -0.291182
N6    N     N_R   0.338211 0.751267 0.489082 0.118699
O11   O     O_R   0.287402 0.741487 0.582940 -0.350345
O12   O     O_R   0.303919 0.743193 0.379418 -0.286170
N7    N     N_R   0.341386 0.246796 0.537984 0.123147
O13   O     O_R   0.313183 0.252685 0.649136 -0.250275
O14   O     O_R   0.283381 0.244775 0.448891 -0.399178
N8    N     N_3   0.743347 0.898897 0.466645 -0.586324
H17   H     H_    0.786538 0.919902 0.537750 0.244353
H18   H     H_    0.771559 0.917127 0.383221 0.240444
N9    N     N_3   0.742669 0.106609 0.459724 -0.573316
H19   H     H_    0.786552 0.089272 0.531075 0.241637
H20   H     H_    0.770261 0.086334 0.376763 0.248454
N10   N     N_R   0.355187 0.613190 0.128173 0.206774
O15   O     O_R   0.318205 0.694952 0.102129 -0.223055
O16   O     O_R   0.326535 0.566043 0.222099 -0.304613
N11   N     N_R   0.366626 0.372134 0.120813 0.139463
O17   O     O_R   0.293559 0.413568 0.088308 -0.186255
O18   O     O_R   0.362135 0.290079 0.177915 -0.311038
N12   N     N_R   0.347621 0.599077 0.880805 0.127055
O19   O     O_R   0.319084 0.671555 0.817040 -0.278007
O20   O     O_R   0.287435 0.542699 0.925067 -0.269767
N13   N     N_R   0.363893 0.376067 0.871433 0.205003
O21   O     O_R   0.335458 0.418158 0.772269 -0.333929
O22   O     O_R   0.324433 0.296032 0.901865 -0.178127
N14   N     N_R   0.489173 0.686509 0.892165 0.138923
O23   O     O_R   0.556786 0.719230 0.955765 -0.362644
O24   O     O_R   0.466459 0.736814 0.796466 -0.246352
N15   N     N_R   0.511163 0.317061 0.888599 0.120726
O25   O     O_R   0.585180 0.299070 0.946381 -0.358605
O26   O     O_R   0.483821 0.253909 0.807639 -0.260710
N16   N     N_R   0.761098 0.449688 0.288695 0.087866
O27   O     O_R   0.719490 0.367391 0.282361 -0.357374
O28   O     O_R   0.768012 0.502470 0.191123 -0.376531
N17   N     N_R   0.767769 0.560165 0.713976 0.117569
O29   O     O_R   0.776829 0.504840 0.809137 -0.343373
O30   O     O_R   0.720144 0.637261 0.720560 -0.336696
N18   N     N_3   0.917086 0.637404 0.798905 -0.459388
H21   H     H_    0.938041 0.709355 0.800931 0.248224
H22   H     H_    0.937147 0.604736 0.880817 0.285694

loop_
_geom_bond_atom_site_label_1
_geom_bond_atom_site_label_2
_geom_bond_distance
_ccdc_geom_bond_type
C35   C36   1.426773 A    
N5    O9    1.301288 A    
C19   C20   1.405049 A    
C39   N8    1.434664 S    
N18   H22   1.045902 S    
N13   O21   1.300823 A    
C33   C39   1.418375 A    
C20   N3    1.434180 S    
C37   C42   1.404534 A    
C29   N1    1.386070 A    
C8    N15   1.499854 S    
C34   C40   1.418623 A    
N9    H19   1.045039 S    
C9    C12   1.547958 S    
Cu1   O7    2.003718 S    
C1    C27   1.476616 S    
C21   C22   1.412206 A    
C30   N7    1.421709 S    
C20   C21   1.412681 A    
N6    O12   1.300832 A    
C29   N6    1.424759 S    
N17   O30   1.300898 A    
C14   C15   1.407617 A    
O7    C4    1.301477 A    
C29   C37   1.409681 A    
N16   O27   1.300717 A    
C24   N5    1.436101 S    
C5    H1    1.107353 S    
C21   C26   1.405119 A    
O5    C3    1.298811 A    
C8    N13   1.487424 S    
N1    C31   1.380090 A    
H4    C9    1.108931 S    
N2    C32   1.380662 A    
C25   H8    1.081083 S    
C28   N4    1.430134 S    
N4    H15   1.045075 S    
C4    C11   1.513185 S    
C7    C11   1.633858 S    
Cu2   O8    2.002724 S    
C38   C41   1.405577 A    
C30   N2    1.383433 A    
C39   C40   1.434546 A    
N5    O10   1.301337 A    
N12   O19   1.299203 A    
C18   C25   1.399577 A    
O3    Cu1   2.002721 S    
N18   H21   1.045689 S    
N13   O22   1.303704 A    
C32   C34   1.433372 A    
C33   C35   1.402553 A    
C6    C10   1.574606 S    
C22   C23   1.417583 A    
C34   C36   1.402127 A    
C42   H12   1.080292 S    
N9    H20   1.045061 S    
N3    H13   1.043041 S    
C16   C19   1.420324 A    
C3    C14   1.462408 S    
Cu1   Cu2   2.707407 S    
C31   H9    1.078303 S    
N6    O11   1.300856 A    
Cu1   N1    2.034181 S    
O3    C2    1.306410 A    
C32   H10   1.077639 S    
C23   C24   1.417442 A    
N7    O14   1.298738 A    
C5    C10   1.572399 S    
C9    C10   1.559565 S    
C13   C18   1.401428 A    
O1    C1    1.303736 A    
C26   H7    1.077496 S    
C5    C7    1.589421 S    
C27   C28   1.412228 A    
C13   C14   1.397877 A    
N11   O18   1.302819 A    
C15   C16   1.420436 A    
C6    C8    1.582336 S    
N14   O24   1.302038 A    
C17   C18   1.414951 A    
C15   N17   1.431492 S    
N15   O26   1.303156 A    
H5    C12   1.103836 S    
N12   O20   1.297084 A    
C7    N12   1.492679 S    
Cu2   O6    1.974651 S    
C24   C25   1.385191 A    
N10   O16   1.298210 A    
N8    H18   1.044906 S    
C35   C37   1.402518 A    
C13   N16   1.432373 S    
C26   C27   1.395573 A    
Cu2   N2    2.034158 S    
N11   O17   1.297273 A    
N3    H14   1.045135 S    
Cu1   O5    1.979296 S    
H3    C9    1.112743 S    
C2    C10   1.509059 S    
O1    Cu1   1.974623 S    
O2    Cu2   1.979262 S    
H6    C12   1.103950 S    
O8    C4    1.310245 A    
O6    C3    1.303384 A    
O4    Cu2   2.003715 S    
C7    N14   1.512255 S    
C30   C38   1.411491 A    
C23   C28   1.410423 A    
C8    C11   1.623718 S    
C17   C22   1.414022 A    
C16   C17   1.418679 A    
O2    C1    1.307086 A    
N17   O29   1.300637 A    
O4    C2    1.303090 A    
N16   O28   1.300783 A    
N14   O23   1.303620 A    
C36   C38   1.402370 A    
C41   C42   1.379624 A    
N7    O13   1.298127 A    
C41   H11   1.080850 S    
N10   O15   1.301983 A    
C6    N11   1.464614 S    
C6    H2    1.111123 S    
N8    H17   1.044931 S    
N15   O25   1.303079 A    
C40   N9    1.434683 S    
N4    H16   1.034108 S    
C31   C33   1.433508 A    
C19   N18   1.435451 S    
C5    N10   1.475621 S    
C11   C12   1.554397 S    
