data_mof_unit_40074.cif
_audit_creation_date              2012-12-10T17:48:55-0500
_audit_creation_method            fapswitch 2.2
_symmetry_space_group_name_H-M    P1
_symmetry_Int_Tables_number       1
_space_group_crystal_system       triclinic
_cell_length_a                    10.733997
_cell_length_b                    14.696757
_cell_length_c                    14.698189
_cell_angle_alpha                 65.249498
_cell_angle_beta                  103.384782
_cell_angle_gamma                 102.852679
_cell_volume                      2027.73410039

loop_
_atom_site_label
_atom_site_type_symbol
_atom_type_description
_atom_site_fract_x
_atom_site_fract_y
_atom_site_fract_z
_atom_type_partial_charge
C1    C     C_R   0.477811 0.119499 0.312186 0.960137
C2    C     C_R   0.481280 0.360025 0.077998 -0.095252
C3    C     C_R   0.482003 0.322414 0.003511 -0.139931
C4    C     C_R   0.260348 0.999931 0.501001 0.900653
C5    C     C_R   0.498175 0.466743 0.051324 0.106123
C6    C     C_R   0.501126 0.533353 0.948035 -0.015330
C7    C     C_R   0.481460 0.491010 0.874494 -0.199306
C8    C     C_R   0.478833 0.388256 0.902098 0.637837
C9    C     C_R   0.517097 0.509342 0.124706 -0.098725
C10   C     C_R   0.519781 0.612240 0.096596 -0.209166
C11   C     C_R   0.517561 0.677812 0.995478 0.083447
C12   C     C_3   0.878019 0.000126 0.498375 -0.266759
C13   C     C_R   0.518565 0.640029 0.921287 0.008979
C14   C     C_R   0.519153 0.781574 0.968332 -0.155386
C15   C     C_R   0.520724 0.848477 0.867877 -0.243809
C16   C     C_R   0.522748 0.880493 0.687688 0.871397
C17   C     C_R   0.539380 0.711111 0.823743 0.547149
C18   C     C_R   0.723687 0.285623 0.666419 -0.111099
C19   C     C_R   0.684763 0.203384 0.636965 0.003196
C20   C     C_R   0.519974 0.285519 0.509837 0.064769
C21   C     C_R   0.552164 0.372015 0.535389 -0.047903
C22   C     C_R   0.653736 0.369679 0.617725 0.138105
C23   C     C_3   0.920058 0.896081 0.573459 0.399725
C24   C     C_R   0.485654 0.459227 0.483401 0.081328
C25   C     C_R   0.518000 0.541190 0.517349 0.105546
C26   C     C_R   0.613118 0.532188 0.603370 -0.215454
C27   C     C_R   0.679047 0.448951 0.651935 -0.068134
C28   C     C_R   0.739954 0.000052 0.499339 0.917433
C29   C     C_R   0.388278 0.467528 0.398236 -0.209626
C30   C     C_R   0.322792 0.551102 0.349702 -0.142385
C31   C     C_R   0.353063 0.631070 0.382192 0.059257
C32   C     C_R   0.452328 0.628651 0.465133 -0.014174
C33   C     C_R   0.285316 0.714306 0.331311 -0.354319
C34   C     C_3   0.964560 0.083154 0.534311 -0.332550
C35   C     C_R   0.317134 0.795763 0.361364 0.842843
C36   C     C_R   0.481947 0.715238 0.490674 -0.083011
C37   C     C_3   0.047817 0.024751 0.390923 0.307202
C38   C     C_3   0.901746 0.024069 0.388524 0.378653
C39   C     C_3   0.062962 0.895662 0.571441 -0.506274
C40   C     C_3   0.107947 0.082420 0.537378 0.501730
C41   C     C_3   0.122732 0.001022 0.500450 -0.219244
C42   C     C_2   0.838900 0.279409 0.746291 0.377927
C43   C     C_2   0.820862 0.948390 0.345273 0.411273
C44   C     C_R   0.470797 0.186578 0.204423 -0.257198
C45   C     C_R   0.530161 0.813278 0.795123 -0.140773
C46   C     C_R   0.481096 0.218682 0.030842 -0.175559
C47   C     C_R   0.480098 0.151601 0.131190 0.592761
C48   C     C_R   0.461277 0.288779 0.175743 0.515971
Cu1   Cu    Cu3+1 0.465900 0.918260 0.475680 1.071008
Cu2   Cu    Cu3+1 0.534100 0.081740 0.524320 1.023996
F1    F     F_    0.903899 0.876950 0.671130 -0.605805
F2    F     F_    0.468215 0.352821 0.828373 -0.658326
F3    F     F_    0.581727 0.684957 0.758994 -0.688114
F4    F     F_    0.486917 0.052709 0.155920 -0.583988
F5    F     F_    0.419143 0.314793 0.240678 -0.675639
F6    F     F_    0.100764 0.117994 0.325539 -0.579472
F7    F     F_    0.251788 0.876315 0.311251 -0.632244
F8    F     F_    0.868480 0.119435 0.325064 -0.573447
F9    F     F_    0.173101 0.063003 0.635493 -0.626335
H1    H     H_    0.060586 0.967207 0.364232 0.119712
H2    H     H_    0.747789 0.446794 0.719024 0.204256
H3    H     H_    0.559673 0.721867 0.549646 0.190765
H4    H     H_    0.248145 0.553522 0.285158 0.165806
H5    H     H_    0.735324 0.137940 0.674050 0.132861
H6    H     H_    0.441398 0.279178 0.451371 0.167863
H7    H     H_    0.638222 0.588161 0.636386 0.182461
H8    H     H_    0.360320 0.410782 0.366250 0.183147
H9    H     H_    0.208594 0.716622 0.268073 0.179246
H10   H     H_    0.068526 0.836530 0.544430 0.146326
H11   H     H_    0.859011 0.833701 0.552828 0.089508
H12   H     H_    0.947810 0.070701 0.610924 0.246318
H13   H     H_    0.150211 0.158761 0.487573 0.145751
H14   H     H_    0.938915 0.159459 0.482311 0.190119
H15   H     H_    0.859509 0.205949 0.803227 0.098651
H16   H     H_    0.836388 0.869721 0.380083 -0.031403
H17   H     H_    0.118845 0.874915 0.649499 0.274378
H18   H     H_    0.515279 0.927560 0.847261 0.202537
H19   H     H_    0.527684 0.641030 0.154956 0.157645
H20   H     H_    0.483874 0.189443 0.974911 0.230091
H21   H     H_    0.464761 0.535126 0.794204 0.227658
H22   H     H_    0.533087 0.465603 0.205085 0.207291
H23   H     H_    0.516351 0.810572 0.024468 0.181248
N1    N     N_R   0.585360 0.204570 0.560800 -0.188145
N2    N     N_R   0.414550 0.795430 0.439160 -0.239248
O1    O     O_R   0.455060 0.022100 0.338110 -0.484172
O2    O     O_2   0.738464 0.974967 0.270323 -0.406987
O3    O     O_R   0.512640 0.160150 0.379180 -0.559861
O4    O     O_R   0.288900 0.930980 0.479450 -0.577949
O5    O     O_R   0.346480 0.069030 0.520520 -0.556725
O6    O     O_R   0.487360 0.839850 0.620820 -0.551050
O7    O     O_R   0.544940 0.977900 0.661890 -0.597675
O8    O     O_R   0.653520 0.930970 0.479480 -0.606109
O9    O     O_R   0.711100 0.069020 0.520550 -0.591519
O10   O     O_2   0.916268 0.354247 0.745850 -0.516505

loop_
_geom_bond_atom_site_label_1
_geom_bond_atom_site_label_2
_ccdc_geom_bond_type
C1    O3    A    
C48   F5    S    
C16   O6    A    
C23   H11   S    
Cu1   O6    S    
C10   H19   S    
C7    C8    A    
C39   C41   S    
C12   C23   S    
C26   C27   A    
C29   C30   A    
C12   C28   S    
C37   C41   S    
C34   C40   S    
C5    C6    A    
C32   C36   A    
Cu1   N2    S    
C17   C45   A    
C18   C42   S    
C30   C31   A    
C11   C14   A    
C19   N1    A    
C4    C41   S    
C18   C19   A    
C24   C29   A    
C1    C44   S    
C38   F8    S    
C37   F6    S    
C46   H20   S    
C31   C33   A    
C27   H2    S    
C9    C10   A    
C8    F2    S    
C44   C47   A    
C25   C32   A    
C40   F9    S    
C42   O10   D    
C21   C22   A    
C43   H16   S    
Cu1   O4    S    
C36   H3    S    
Cu2   N1    S    
C1    O1    A    
C42   H15   S    
C26   H7    S    
Cu1   O1    S    
C20   H6    S    
C24   C25   A    
C3    C8    A    
C2    C48   A    
C25   C26   A    
C28   O9    A    
C5    C9    A    
C37   C38   S    
Cu2   O5    S    
C23   F1    S    
C31   C32   A    
C19   H5    S    
C39   H10   S    
C28   O8    A    
C39   H17   S    
Cu2   O3    S    
C47   F4    S    
C40   C41   S    
C22   C27   A    
C21   C24   A    
C2    C5    A    
C15   C45   A    
Cu1   O8    S    
C12   C34   S    
C17   F3    S    
C4    O5    A    
C46   C47   A    
C40   H13   S    
C18   C22   A    
C43   O2    D    
C16   C45   S    
C35   N2    A    
Cu2   O9    S    
C6    C7    A    
C4    O4    A    
C3    C46   A    
C13   C17   A    
C35   F7    S    
C2    C3    A    
C38   C43   S    
C29   H8    S    
C6    C13   A    
C11   C13   A    
C15   H18   S    
C36   N2    A    
C23   C39   S    
C33   C35   A    
C12   C38   S    
C37   H1    S    
C10   C11   A    
C34   H14   S    
Cu2   O7    S    
C20   C21   A    
C16   O7    A    
Cu1   Cu2   S    
C20   N1    A    
C14   H23   S    
C14   C15   A    
C30   H4    S    
C34   H12   S    
C44   C48   A    
C33   H9    S    
C9    H22   S    
C7    H21   S    
