data_mof_unit_23528.cif
_audit_creation_date              2012-10-26T20:40:19-0400
_audit_creation_method            fapswitch 2.2
_symmetry_space_group_name_H-M    P1
_symmetry_Int_Tables_number       1
_space_group_crystal_system       triclinic
_cell_length_a                    15.033184
_cell_length_b                    10.795326
_cell_length_c                    9.673697
_cell_angle_alpha                 88.391048
_cell_angle_beta                  91.033161
_cell_angle_gamma                 92.513878
_cell_volume                      1567.57504961

loop_
_atom_site_label
_atom_site_type_symbol
_atom_type_description
_atom_site_fract_x
_atom_site_fract_y
_atom_site_fract_z
_atom_type_partial_charge
C1    C     C_R   0.504374 0.262129 0.502895 0.584438
C2    C     C_R   0.183040 0.405916 0.542270 -0.106160
C3    C     C_R   0.233196 0.509258 0.495844 -0.011513
C4    C     C_R   0.329431 0.501613 0.498863 0.525468
C5    C     C_R   0.192049 0.615454 0.441656 0.030879
C6    C     C_R   0.515671 0.097760 0.771016 0.008930
C7    C     C_R   0.472224 0.040344 0.884004 -0.207283
C8    C     C_R   0.415957 0.935270 0.867159 0.001985
C9    C     C_R   0.414498 0.875302 0.738513 0.280454
C10   C     C_R   0.461960 0.931084 0.625463 0.036439
C11   C     C_R   0.496427 0.054178 0.635490 0.005441
C12   C     C_R   0.908263 0.619916 0.451463 -0.011631
C13   C     C_R   0.505915 0.126054 0.509301 0.039779
C14   C     C_R   0.498934 0.066421 0.382396 -0.122480
C15   C     C_R   0.485671 0.939651 0.378594 -0.129955
C16   C     C_R   0.489847 0.736114 0.498989 0.561627
C17   C     C_R   0.474721 0.869610 0.500178 0.015396
C18   C     C_R   0.633935 0.632680 0.143356 0.069237
C19   C     C_R   0.719384 0.626345 0.093174 -0.168500
C20   C     C_R   0.728164 0.623841 0.950412 -0.030725
C21   C     C_R   0.648973 0.615042 0.867282 0.310061
C22   C     C_R   0.570486 0.558370 0.927280 0.091263
C23   C     C_R   0.949747 0.292792 0.563045 -0.095742
C24   C     C_R   0.567454 0.561606 0.074991 -0.001956
C25   C     C_R   0.435205 0.438094 0.076070 0.406324
C26   C     C_R   0.434662 0.438562 0.927478 0.305831
C27   C     C_R   0.670648 0.501478 0.500345 0.596496
C28   C     C_R   0.815076 0.620503 0.473800 -0.036483
C29   C     C_R   0.767463 0.506611 0.498129 0.041185
C30   C     C_R   0.810932 0.395104 0.510265 0.239132
C31   C     C_R   0.904401 0.398245 0.518736 0.031783
C32   C     C_R   0.953248 0.510316 0.485488 -0.018301
C33   C     C_2   0.767725 0.737602 0.491043 0.302378
C34   C     C_R   0.041889 0.296580 0.571821 -0.102299
C35   C     C_2   0.590346 0.186789 0.803676 0.297777
C36   C     C_2   0.360410 0.892824 0.986100 0.248120
C37   C     C_2   0.610505 0.759834 0.173654 0.254269
C38   C     C_2   0.817989 0.646282 0.892891 0.253429
C39   C     C_2   0.249596 0.715469 0.377372 0.340597
C40   C     C_R   0.090817 0.404507 0.533331 0.029752
C41   C     C_R   0.047197 0.511937 0.486904 -0.005776
C42   C     C_R   0.097555 0.620505 0.444960 0.024899
C43   C     C_R   0.052113 0.729608 0.408949 0.318833
C44   C     C_R   0.958384 0.725739 0.400601 0.263081
Cu1   Cu    Cu3+1 0.499990 0.499990 0.640660 1.051359
Cu2   Cu    Cu3+1 0.500010 0.500010 0.359340 1.034685
H1    H     H_    0.482038 0.078299 0.986125 0.094095
H2    H     H_    0.377586 0.924682 0.088929 0.105591
H3    H     H_    0.364463 0.716034 0.800768 0.372760
H4    H     H_    0.328103 0.328479 0.089130 0.354361
H5    H     H_    0.547309 0.791959 0.135037 0.086121
H6    H     H_    0.872705 0.679595 0.958685 0.130835
H7    H     H_    0.691814 0.752374 0.748507 0.347034
H8    H     H_    0.793192 0.220181 0.471800 0.338605
H9    H     H_    0.391159 0.334750 0.781343 0.360421
H10   H     H_    0.306246 0.754418 0.434390 0.110326
H11   H     H_    0.060038 0.910627 0.380736 0.378717
H12   H     H_    0.482338 0.897020 0.280028 0.125242
H13   H     H_    0.865470 0.791170 0.282269 0.336774
H14   H     H_    0.776002 0.654402 0.157251 0.111586
H15   H     H_    0.914649 0.207797 0.596287 0.163899
H16   H     H_    0.075063 0.214385 0.608323 0.138697
H17   H     H_    0.216455 0.324379 0.580743 0.128678
H18   H     H_    0.503940 0.117425 0.284580 0.149376
H19   H     H_    0.696792 0.740492 0.470351 0.148284
H20   H     H_    0.592597 0.233679 0.901628 0.086767
N1    N     N_R   0.500860 0.501210 0.147910 -0.246471
N2    N     N_R   0.500890 0.501290 0.852040 -0.270249
O1    O     O_R   0.499990 0.319640 0.618810 -0.533273
O2    O     O_2   0.651917 0.204764 0.724306 -0.418152
O3    O     O_2   0.292650 0.827862 0.970658 -0.413567
O4    O     O_3   0.361102 0.770190 0.716665 -0.665111
O5    O     O_3   0.371318 0.371537 0.151535 -0.643699
O6    O     O_2   0.662771 0.831714 0.231806 -0.525968
O7    O     O_2   0.832944 0.623332 0.773285 -0.480359
O8    O     O_3   0.641845 0.689463 0.750401 -0.654336
O9    O     O_3   0.759959 0.285514 0.515431 -0.636909
O10   O     O_3   0.366484 0.372654 0.862591 -0.709235
O11   O     O_2   0.236710 0.749707 0.257641 -0.408649
O12   O     O_R   0.500000 0.319660 0.381240 -0.473073
O13   O     O_3   0.100063 0.840123 0.384068 -0.638011
O14   O     O_3   0.918879 0.823851 0.332783 -0.652894
O15   O     O_R   0.370250 0.499960 0.618800 -0.480885
O16   O     O_R   0.370260 0.499980 0.381230 -0.447421
O17   O     O_R   0.500000 0.680340 0.618760 -0.424143
O18   O     O_R   0.500010 0.680360 0.381190 -0.538755
O19   O     O_R   0.629740 0.500020 0.618770 -0.415822
O20   O     O_R   0.629750 0.500040 0.381200 -0.522484
O21   O     O_2   0.806036 0.829482 0.538399 -0.421229

loop_
_geom_bond_atom_site_label_1
_geom_bond_atom_site_label_2
_ccdc_geom_bond_type
C37   O6    D    
C27   C29   S    
C41   C42   A    
C19   C20   A    
C25   N1    A    
H13   O14   S    
C5    C42   A    
C33   H19   S    
C7    C8    A    
Cu1   Cu2   S    
C21   O8    S    
C39   O11   D    
C26   O10   S    
C12   C28   A    
C34   C40   A    
C28   C29   A    
Cu1   O19   S    
C18   C37   S    
C44   O14   S    
C30   C31   A    
C37   H5    S    
C38   H6    S    
C10   C17   A    
C34   H16   S    
C6    C35   S    
C18   C19   A    
C8    C36   S    
C24   N1    A    
C30   O9    S    
C31   C32   A    
C35   O2    D    
C8    C9    A    
H3    O4    S    
C32   C41   A    
C9    O4    S    
C18   C24   A    
C9    C10   A    
C25   O5    S    
C36   O3    D    
H8    O9    S    
C13   C14   A    
C12   C32   A    
C16   O18   A    
Cu1   O15   S    
Cu2   O20   S    
C38   O7    D    
Cu1   O1    S    
H4    O5    S    
C6    C11   A    
H9    O10   S    
C16   C17   S    
C35   H20   S    
C25   C26   A    
C1    O1    A    
C7    H1    S    
Cu1   O17   S    
C43   C44   A    
C29   C30   A    
C33   O21   D    
C20   C38   S    
C39   H10   S    
C4    O16   A    
C23   C34   A    
C14   H18   S    
Cu1   N2    S    
C27   O19   A    
C22   N2    A    
Cu2   O16   S    
C40   C41   A    
C28   C33   S    
C5    C39   S    
C16   O17   A    
C43   O13   S    
C15   H12   S    
H11   O13   S    
H7    O8    S    
C1    C13   S    
C42   C43   A    
C3    C4    S    
C2    H17   S    
C15   C17   A    
C3    C5    A    
C6    C7    A    
C19   H14   S    
C26   N2    A    
C2    C3    A    
Cu2   N1    S    
C12   C44   A    
Cu2   O12   S    
C11   C13   A    
C4    O15   A    
C36   H2    S    
C22   C24   A    
C27   O20   A    
C10   C11   A    
C2    C40   A    
C23   H15   S    
C20   C21   A    
C1    O12   A    
C14   C15   A    
C21   C22   A    
C23   C31   A    
Cu2   O18   S    
