data_mof_unit_39137.cif
_audit_creation_date              2012-12-10T20:41:00-0500
_audit_creation_method            fapswitch 2.2
_symmetry_space_group_name_H-M    P1
_symmetry_Int_Tables_number       1
_space_group_crystal_system       triclinic
_cell_length_a                    27.426055
_cell_length_b                    10.742076
_cell_length_c                    10.077481
_cell_angle_alpha                 91.425014
_cell_angle_beta                  90.832813
_cell_angle_gamma                 93.557295
_cell_volume                      2961.93307298

loop_
_atom_site_label
_atom_site_type_symbol
_atom_type_description
_atom_site_fract_x
_atom_site_fract_y
_atom_site_fract_z
_atom_type_partial_charge
C1    C     C_R   0.499264 0.260460 0.499758 0.850871
C2    C     C_R   0.283282 0.345409 0.582754 0.185415
C3    C     C_R   0.251688 0.432585 0.531505 0.139454
C4    C     C_R   0.103319 0.443301 0.627723 -0.068268
C5    C     C_R   0.121573 0.331317 0.580869 -0.050445
C6    C     C_R   0.092475 0.220281 0.586028 -0.158228
C7    C     C_R   0.135630 0.549041 0.654918 -0.086523
C8    C     C_R   0.352606 0.468002 0.495996 -0.146873
C9    C     C_R   0.647213 0.505990 0.498139 -0.108360
C10   C     C_R   0.970270 0.346527 0.623820 0.048446
C11   C     C_R   0.982008 0.576189 0.644819 0.056677
C12   C     C_R   0.406057 0.493530 0.498719 0.895069
C13   C     C_R   0.950920 0.466284 0.626716 0.075925
C14   C     C_R   0.937806 0.241611 0.594939 -0.224475
C15   C     C_R   0.887703 0.251720 0.588685 -0.142793
C16   C     C_R   0.868546 0.368911 0.592439 -0.014594
C17   C     C_R   0.900227 0.476450 0.603819 -0.054810
C18   C     C_R   0.881384 0.593688 0.586836 -0.019144
C19   C     C_R   0.832054 0.599989 0.550506 0.510871
C20   C     C_R   0.818312 0.381037 0.578222 0.508629
C21   C     C_R   0.722836 0.412288 0.445765 -0.090679
C22   C     C_R   0.671569 0.407336 0.437646 0.067937
C23   C     C_R   0.498424 0.739009 0.500904 0.877012
C24   C     C_R   0.674519 0.610752 0.552863 0.132454
C25   C     C_R   0.724145 0.602559 0.579012 -0.114445
C26   C     C_R   0.748989 0.503356 0.525706 0.190204
C27   C     C_R   0.021670 0.337387 0.633851 0.034077
C28   C     C_R   0.052451 0.448906 0.642589 0.031510
C29   C     C_R   0.032893 0.565853 0.663043 0.002627
C30   C     C_R   0.044621 0.222009 0.631037 0.194667
C31   C     C_R   0.116194 0.663817 0.695291 0.161692
C32   C     C_R   0.961649 0.693260 0.631733 -0.220982
C33   C     C_R   0.912428 0.701463 0.601053 -0.136582
C34   C     C_R   0.593809 0.502538 0.500004 0.866206
C35   C     C_R   0.065029 0.669455 0.697908 -0.197290
C36   C     C_R   0.505197 0.065994 0.618773 0.125861
C37   C     C_R   0.493332 0.127533 0.503777 -0.139973
C38   C     C_R   0.469824 0.058861 0.400123 -0.260137
C39   C     C_R   0.470648 0.929960 0.393736 0.186143
C40   C     C_R   0.491233 0.869689 0.503283 -0.115464
C41   C     C_R   0.502821 0.938742 0.619744 0.052405
C42   C     C_3   0.545194 0.936295 0.714539 -0.505815
C43   C     C_3   0.548067 0.078335 0.713397 -0.015102
C44   C     C_R   0.457928 0.474892 0.066514 0.107397
C45   C     C_R   0.169641 0.332309 0.538037 0.500291
C46   C     C_R   0.538313 0.555821 0.076140 0.180468
C47   C     C_R   0.538189 0.556259 0.932086 0.158833
C48   C     C_R   0.458371 0.474202 0.927054 0.068201
C49   C     C_3   0.419250 0.373303 0.909165 -0.054051
C50   C     C_3   0.419336 0.367885 0.062301 0.277664
C51   C     C_R   0.186176 0.533904 0.638618 0.493866
C52   C     C_R   0.270224 0.528230 0.447705 0.196350
C53   C     C_R   0.321388 0.555206 0.444586 0.117886
C54   C     C_R   0.332438 0.353791 0.543887 0.109292
H1    H     H_    0.983435 0.780397 0.636073 0.139836
H2    H     H_    0.898845 0.793033 0.587989 0.185069
H3    H     H_    0.743497 0.675760 0.638084 0.182232
H4    H     H_    0.050105 0.754773 0.730653 0.161927
H5    H     H_    0.452472 0.104055 0.321693 0.168996
H6    H     H_    0.534012 0.898553 0.811963 0.180506
H7    H     H_    0.576902 0.893227 0.669584 0.206726
H8    H     H_    0.539332 0.121216 0.810904 0.162858
H9    H     H_    0.386074 0.412461 0.866172 0.176092
H10   H     H_    0.108589 0.131713 0.569591 0.185733
H11   H     H_    0.742863 0.343409 0.393499 0.181512
H12   H     H_    0.864272 0.167756 0.571170 0.192595
H13   H     H_    0.950071 0.150728 0.571024 0.173947
N1    N     N_R   0.201431 0.431472 0.571098 -0.332849
N2    N     N_R   0.800691 0.494983 0.551834 -0.337145
N3    N     N_R   0.499670 0.499140 0.142800 -0.124664
N4    N     N_R   0.499670 0.499180 0.857150 -0.139314
O1    O     O_R   0.500010 0.316790 0.614690 -0.618848
O2    O     O_2   0.787484 0.279357 0.591719 -0.576711
O3    O     O_2   0.220132 0.620041 0.686746 -0.601720
O4    O     O_2   0.816163 0.709780 0.511112 -0.574631
O5    O     O_R   0.500000 0.316760 0.385350 -0.623284
O6    O     O_R   0.428760 0.500040 0.614660 -0.601652
O7    O     O_R   0.428750 0.500000 0.385310 -0.618688
O8    O     O_R   0.500000 0.683240 0.614650 -0.632147
O9    O     O_R   0.499990 0.683210 0.385310 -0.623856
O10   O     O_R   0.571250 0.500000 0.614690 -0.620428
O11   O     O_R   0.571240 0.499960 0.385340 -0.623425
O12   O     O_2   0.184855 0.234252 0.467001 -0.579565
Zn1   Zn    Zn3+2 0.500000 0.500020 0.653130 0.926509
Zn2   Zn    Zn3+2 0.500000 0.499980 0.346870 0.921245
C55   C     C_3   0.359658 0.235904 0.531009 -0.928101
H14   H     H_    0.340723 0.173310 0.454692 0.247053
H15   H     H_    0.397606 0.253810 0.497489 0.221334
H16   H     H_    0.360101 0.184434 0.624497 0.248558
C56   C     C_3   0.235132 0.599070 0.363154 -0.368083
C57   C     C_3   0.242738 0.574945 0.214882 -0.846676
H17   H     H_    0.279281 0.611844 0.183547 0.266369
H18   H     H_    0.238790 0.473182 0.191322 0.270009
H19   H     H_    0.214793 0.621724 0.156683 0.253869
H20   H     H_    0.196454 0.569186 0.381275 0.203754
H21   H     H_    0.238542 0.700417 0.387991 0.210630
C58   C     C_3   0.149605 0.780656 0.726714 -0.304085
C59   C     C_3   0.124876 0.902095 0.753448 -0.969373
H22   H     H_    0.101832 0.923510 0.666529 0.266946
H23   H     H_    0.102675 0.895619 0.844607 0.268619
H24   H     H_    0.153160 0.979918 0.768793 0.269156
H25   H     H_    0.172407 0.763697 0.815709 0.246469
H26   H     H_    0.173640 0.798334 0.640455 0.239251
C60   C     C_3   0.652637 0.735011 0.570805 -0.928056
H27   H     H_    0.679583 0.807890 0.611946 0.254094
H28   H     H_    0.639292 0.766168 0.473267 0.242415
H29   H     H_    0.621743 0.727562 0.638103 0.232064
C61   C     C_3   0.452904 0.864343 0.266016 -0.858621
H30   H     H_    0.428491 0.782111 0.287140 0.253664
H31   H     H_    0.432003 0.925729 0.202156 0.221776
H32   H     H_    0.484577 0.835007 0.208197 0.251030
C62   C     C_3   0.265864 0.246331 0.680623 -0.322468
C63   C     C_3   0.288998 0.270904 0.818137 -0.921809
H33   H     H_    0.328067 0.251881 0.817674 0.266764
H34   H     H_    0.284889 0.369015 0.851539 0.278278
H35   H     H_    0.270742 0.207892 0.890492 0.256108
H36   H     H_    0.226168 0.243169 0.696623 0.220204
H37   H     H_    0.273824 0.151866 0.642856 0.218982
C64   C     C_3   0.595268 0.134378 0.653849 -0.852888
H38   H     H_    0.601324 0.092520 0.553996 0.250630
H39   H     H_    0.593370 0.236787 0.646012 0.247756
H40   H     H_    0.626732 0.116406 0.719660 0.253385
C65   C     C_3   0.579969 0.621803 0.155569 -0.795540
H41   H     H_    0.566290 0.670306 0.243400 0.272648
H42   H     H_    0.607073 0.553908 0.182222 0.239763
H43   H     H_    0.600245 0.698164 0.105418 0.199358
C66   C     C_3   0.578464 0.630146 0.864289 -0.346180
C67   C     C_3   0.626360 0.563222 0.865599 -0.809144
H44   H     H_    0.638809 0.545101 0.967769 0.244076
H45   H     H_    0.622058 0.471932 0.811591 0.275488
H46   H     H_    0.655759 0.622328 0.820223 0.252813
H47   H     H_    0.566229 0.652300 0.765147 0.250540
H48   H     H_    0.584231 0.725551 0.907883 0.158432
C68   C     C_3   0.433298 0.257833 0.831008 -0.820367
H49   H     H_    0.472622 0.242997 0.839568 0.259442
H50   H     H_    0.411224 0.173644 0.861568 0.222834
H51   H     H_    0.425290 0.272240 0.725853 0.269059
C69   C     C_3   0.369850 0.405589 0.116145 -0.979477
H52   H     H_    0.369147 0.403419 0.225589 0.275632
H53   H     H_    0.361624 0.500626 0.084731 0.237498
H54   H     H_    0.340201 0.338521 0.077968 0.249935
C70   C     C_3   0.435583 0.248091 0.126570 -0.292927
C71   C     C_3   0.486796 0.205276 0.090840 -0.855598
H55   H     H_    0.483023 0.120476 0.025322 0.230891
H56   H     H_    0.510029 0.277425 0.041249 0.250850
H57   H     H_    0.507570 0.180019 0.179971 0.265723
H58   H     H_    0.434104 0.268493 0.234004 0.220471
H59   H     H_    0.407787 0.170235 0.104731 0.181818
C72   C     C_3   0.642991 0.302690 0.359281 -0.384256
C73   C     C_3   0.669103 0.181512 0.342843 -0.866172
H60   H     H_    0.699209 0.192905 0.270856 0.260340
H61   H     H_    0.683667 0.152470 0.439977 0.287002
H62   H     H_    0.642814 0.106322 0.303363 0.247110
H63   H     H_    0.608180 0.278015 0.409758 0.209121
H64   H     H_    0.633559 0.336790 0.259534 0.217788
C74   C     C_3   0.024369 0.106285 0.698152 -0.971894
H65   H     H_    0.052067 0.075101 0.769156 0.256897
H66   H     H_    0.992221 0.124306 0.759648 0.258900
H67   H     H_    0.015422 0.030036 0.623692 0.235889
C75   C     C_3   0.343355 0.673956 0.386586 -0.886204
H68   H     H_    0.316553 0.744038 0.366441 0.247573
H69   H     H_    0.370700 0.719697 0.457335 0.231142
H70   H     H_    0.361159 0.650438 0.291967 0.243495

loop_
_geom_bond_atom_site_label_1
_geom_bond_atom_site_label_2
_ccdc_geom_bond_type
C10   C27   A    
C71   H57   S    
C44   C48   A    
C49   C68   S    
C49   H9    S    
C41   C42   S    
C52   C56   S    
C3    N1    S    
C51   O3    S    
C21   C26   A    
C67   H44   S    
C68   H51   S    
C60   H28   S    
C58   C59   S    
C56   H20   S    
C2    C62   S    
C37   C38   A    
C35   H4    S    
C5    C6    A    
C36   C37   A    
N4    Zn1   S    
O8    Zn1   S    
C3    C52   A    
C55   H15   S    
C9    C22   A    
C65   H42   S    
C15   C16   A    
C61   H30   S    
C18   C19   A    
C6    H10   S    
C66   H47   S    
C60   H27   S    
C16   C17   A    
C73   H62   S    
C12   O7    A    
C23   C40   S    
C14   H13   S    
C44   N3    A    
C34   O10   A    
C23   O9    A    
C32   H1    S    
C58   H25   S    
C8    C12   S    
C63   H35   S    
C33   H2    S    
C30   C74   S    
C22   C72   S    
C21   C22   A    
C27   C30   A    
C36   C41   A    
C45   O12   S    
C25   H3    S    
C4    C7    A    
C62   C63   S    
C4    C28   A    
C64   H39   S    
C39   C61   S    
C1    O1    A    
C7    C31   A    
C75   H70   S    
C70   H59   S    
C65   H41   S    
C38   C39   A    
C24   C25   A    
C2    C54   A    
C42   H6    S    
C57   H17   S    
C54   C55   S    
C55   H14   S    
C65   H43   S    
C68   H50   S    
O6    Zn1   S    
C25   C26   A    
C15   H12   S    
C5    C45   A    
C10   C13   A    
C55   H16   S    
C24   C60   S    
C75   H69   S    
C72   H63   S    
O9    Zn2   S    
C57   H18   S    
C14   C15   A    
C16   C20   A    
C12   O6    A    
C45   N1    A    
C17   C18   A    
C58   H26   S    
C56   H21   S    
C42   H7    S    
C47   N4    A    
O1    Zn1   S    
C69   H53   S    
O7    Zn2   S    
C40   C41   A    
C6    C30   A    
C11   C32   A    
C49   C50   S    
C59   H23   S    
C10   C14   A    
C9    C34   S    
C31   C35   A    
C46   C65   S    
C19   N2    A    
C42   C43   S    
C48   N4    A    
C8    C54   A    
C66   C67   S    
O11   Zn2   S    
C67   H46   S    
C39   C40   A    
O10   Zn1   S    
C52   C53   A    
C63   H33   S    
C64   H40   S    
C44   C50   S    
C71   H56   S    
C46   C47   A    
C28   C29   A    
C53   C75   S    
C21   H11   S    
C73   H60   S    
C1    O5    A    
C70   H58   S    
C74   H67   S    
C66   H48   S    
C4    C5    A    
C69   H54   S    
C67   H45   S    
C8    C53   A    
C64   H38   S    
C50   C69   S    
C9    C24   A    
C47   C66   S    
C68   H49   S    
C1    C37   S    
C59   H24   S    
C29   C35   A    
C61   H32   S    
C13   C17   A    
C32   C33   A    
C19   O4    S    
C2    C3    A    
C72   H64   S    
C7    C51   A    
C72   C73   S    
C75   H68   S    
C57   H19   S    
C62   H37   S    
C11   C13   A    
C56   C57   S    
C62   H36   S    
C48   C49   S    
C74   H66   S    
C61   H31   S    
C20   O2    S    
C73   H61   S    
C51   N1    A    
C31   C58   S    
C20   N2    A    
C18   C33   A    
C46   N3    A    
C69   H52   S    
C38   H5    S    
C50   C70   S    
C74   H65   S    
C11   C29   A    
C59   H22   S    
C27   C28   A    
C26   N2    S    
C70   C71   S    
C36   C43   S    
C34   O11   A    
C23   O8    A    
N3    Zn2   S    
O5    Zn2   S    
C60   H29   S    
C71   H55   S    
C43   H8    S    
C43   C64   S    
C63   H34   S    
