data_mof_unit_26524.cif
_audit_creation_date              2013-03-05T15:50:12-0500
_audit_creation_method            fapswitch 2.2
_symmetry_space_group_name_H-M    P1
_symmetry_Int_Tables_number       1
_space_group_crystal_system       triclinic
_cell_length_a                    14.555368
_cell_length_b                    15.922352
_cell_length_c                    9.668729
_cell_angle_alpha                 89.763861
_cell_angle_beta                  89.97918
_cell_angle_gamma                 89.982107
_cell_volume                      2240.76370069

loop_
_atom_site_label
_atom_site_type_symbol
_atom_site_description
_atom_site_fract_x
_atom_site_fract_y
_atom_site_fract_z
_atom_type_partial_charge
O1    O     O_R   0.409820 0.909830 0.618810 -0.540541
O2    O     O_R   0.409820 0.090170 0.618810 -0.561232
O3    O     O_R   0.909820 0.409830 0.618810 -0.540494
O4    O     O_R   0.909820 0.590170 0.618810 -0.561249
O5    O     O_R   0.409840 0.909830 0.381240 -0.556432
O6    O     O_R   0.409840 0.090170 0.381240 -0.547226
O7    O     O_R   0.909840 0.409830 0.381240 -0.556416
O8    O     O_R   0.909840 0.590170 0.381240 -0.547032
C1    C     C_R   0.388306 0.875711 0.501245 0.878797
C2    C     C_R   0.376050 0.113731 0.500347 0.835031
C3    C     C_R   0.888301 0.375714 0.501242 0.878755
C4    C     C_R   0.876047 0.613728 0.500351 0.835153
Cu1   Cu    Cu3+1 0.499990 0.000000 0.640660 1.049895
Cu2   Cu    Cu3+1 0.999990 0.500000 0.640660 1.049938
Cu3   Cu    Cu3+1 0.500010 0.000000 0.359340 1.039831
Cu4   Cu    Cu3+1 0.000010 0.500000 0.359340 1.039816
O9    O     O_R   0.590170 0.090170 0.618760 -0.582369
O10   O     O_R   0.590170 0.909830 0.618760 -0.540158
O11   O     O_R   0.090170 0.590170 0.618760 -0.582347
O12   O     O_R   0.090170 0.409830 0.618760 -0.540159
O13   O     O_R   0.590190 0.090180 0.381190 -0.563080
O14   O     O_R   0.590190 0.909820 0.381190 -0.594789
O15   O     O_R   0.090190 0.590180 0.381190 -0.563096
O16   O     O_R   0.090190 0.409820 0.381190 -0.594808
C5    C     C_R   0.612592 0.123827 0.500232 0.798453
C6    C     C_R   0.618896 0.881708 0.499511 0.799216
C7    C     C_R   0.112598 0.623824 0.500230 0.798430
C8    C     C_R   0.118890 0.381703 0.499510 0.799264
H1    H     H_    0.404356 0.270403 0.564343 0.148446
H2    H     H_    0.319455 0.795118 0.281515 0.175845
H3    H     H_    0.904403 0.770435 0.564162 0.148391
H4    H     H_    0.819360 0.295204 0.281493 0.175609
C9    C     C_R   0.173637 0.079304 0.446850 0.382972
C10   C     C_R   0.335308 0.778310 0.764267 0.357571
C11   C     C_R   0.673590 0.579284 0.447232 0.383061
C12   C     C_R   0.835357 0.278264 0.764230 0.357656
C13   C     C_R   0.087101 0.070606 0.383992 -0.086917
C14   C     C_R   0.281565 0.773027 0.884715 -0.155754
C15   C     C_R   0.587021 0.570556 0.384487 -0.087156
C16   C     C_R   0.781643 0.272958 0.884707 -0.155913
H5    H     H_    0.058244 0.009059 0.364930 0.192380
H6    H     H_    0.312064 0.781598 0.985798 0.176730
H7    H     H_    0.558137 0.509001 0.365596 0.192338
H8    H     H_    0.812167 0.281506 0.985778 0.176559
C17   C     C_R   0.533462 0.640268 0.355052 -0.155291
C18   C     C_R   0.688755 0.253384 0.876375 -0.152950
C19   C     C_R   0.033534 0.140327 0.354656 -0.155360
C20   C     C_R   0.188680 0.753444 0.876343 -0.152855
H9    H     H_    0.466043 0.632499 0.309537 0.183276
H10   H     H_    0.647362 0.250866 0.969363 0.174217
H11   H     H_    0.966136 0.132576 0.309060 0.183301
H12   H     H_    0.147265 0.750943 0.969310 0.174295
C21   C     C_R   0.563652 0.719474 0.392666 -0.112144
C22   C     C_R   0.650774 0.230853 0.749766 -0.101757
C23   C     C_R   0.063688 0.219510 0.392459 -0.112227
C24   C     C_R   0.150733 0.730884 0.749728 -0.101866
H13   H     H_    0.517448 0.771150 0.374010 0.138875
H14   H     H_    0.578796 0.214048 0.747731 0.173892
H15   H     H_    0.017471 0.271184 0.373872 0.138956
H16   H     H_    0.078756 0.714074 0.747663 0.173899
C25   C     C_R   0.651472 0.731086 0.451651 0.090798
C26   C     C_R   0.704691 0.232029 0.628183 0.082306
C27   C     C_R   0.151487 0.231099 0.451530 0.090842
C28   C     C_R   0.204678 0.732041 0.628174 0.082226
C29   C     C_R   0.211060 0.161179 0.467309 0.007990
C30   C     C_R   0.291689 0.770540 0.632566 0.023123
C31   C     C_R   0.711040 0.661169 0.467479 0.007959
C32   C     C_R   0.791705 0.270524 0.632549 0.023194
C33   C     C_R   0.304456 0.177206 0.503405 -0.055127
C34   C     C_R   0.328396 0.801613 0.505489 -0.062915
C35   C     C_R   0.804461 0.677211 0.503428 -0.055163
C36   C     C_R   0.828382 0.301623 0.505471 -0.062812
C37   C     C_R   0.333319 0.258164 0.537268 -0.084297
C38   C     C_R   0.291917 0.773831 0.379679 -0.125552
C39   C     C_R   0.833348 0.758186 0.537180 -0.084349
C40   C     C_R   0.791857 0.273884 0.379662 -0.125759
H17   H     H_    0.795597 0.886292 0.563006 0.177771
H18   H     H_    0.692664 0.198164 0.279319 0.177606
H19   H     H_    0.295559 0.386261 0.563148 0.177765
H20   H     H_    0.192744 0.698096 0.279325 0.177646
C41   C     C_R   0.771735 0.824172 0.536161 -0.089484
C42   C     C_R   0.717464 0.220198 0.378232 -0.134916
C43   C     C_R   0.271708 0.324150 0.536237 -0.089528
C44   C     C_R   0.217519 0.720151 0.378239 -0.134880
C45   C     C_R   0.681074 0.810923 0.496507 -0.045998
C46   C     C_R   0.675260 0.195962 0.502071 -0.088776
C47   C     C_R   0.181066 0.310916 0.496502 -0.045965
C48   C     C_R   0.175276 0.695950 0.502066 -0.088803
C49   C     C_R   0.658175 0.941510 0.139168 0.135077
C50   C     C_R   0.158152 0.441445 0.139169 0.135054
C51   C     C_R   0.705019 0.876715 0.070985 0.080736
C52   C     C_R   0.205003 0.376655 0.070987 0.080690
C53   C     C_R   0.699869 0.873918 0.927359 0.298428
C54   C     C_R   0.199851 0.373860 0.927366 0.298478
C55   C     C_R   0.655354 0.940201 0.860130 0.102435
C56   C     C_R   0.155332 0.440144 0.860140 0.102442
C57   C     C_R   0.578269 0.975915 0.925964 0.102135
C58   C     C_R   0.078244 0.475851 0.925971 0.102215
C59   C     C_R   0.578939 0.976489 0.074401 0.032260
C60   C     C_R   0.078914 0.476423 0.074403 0.032269
N1    N     N_R   0.501200 0.000000 0.147910 -0.232847
N2    N     N_R   0.001200 0.500000 0.147910 -0.232699
C61   C     C_R   0.423824 0.020798 0.072078 0.413904
C62   C     C_R   0.923858 0.520935 0.072050 0.413449
H21   H     H_    0.363332 0.038627 0.869067 0.210679
H22   H     H_    0.863419 0.538840 0.869022 0.211012
C63   C     C_R   0.425239 0.022357 0.924951 -0.049715
C64   C     C_R   0.925284 0.522470 0.924929 -0.049849
N3    N     N_R   0.501270 0.000000 0.852040 -0.200548
N4    N     N_R   0.001270 0.500000 0.852040 -0.200598
N5    N     N_R   0.757183 0.817543 0.851839 0.141435
O17   O     O_R   0.844551 0.833184 0.839291 -0.340092
O18   O     O_R   0.726822 0.742561 0.824938 -0.275474
N6    N     N_R   0.257172 0.317491 0.851851 0.141384
O19   O     O_R   0.344541 0.333130 0.839335 -0.340144
O20   O     O_R   0.226804 0.242513 0.824917 -0.275658
I1    I     I_    0.753811 0.021973 0.769557 -0.270890
I2    I     I_    0.253781 0.521952 0.769638 -0.270911
N7    N     N_R   0.213379 0.005894 0.508741 0.095259
O21   O     O_R   0.240539 0.009308 0.636776 -0.355178
O22   O     O_R   0.193426 0.932754 0.457595 -0.369816
N8    N     N_R   0.433845 0.778769 0.777958 0.141039
O23   O     O_R   0.472050 0.802572 0.892975 -0.373059
O24   O     O_R   0.484741 0.743070 0.684538 -0.364468
N9    N     N_R   0.713337 0.505918 0.509262 0.095419
O25   O     O_R   0.740615 0.509454 0.637232 -0.355008
O26   O     O_R   0.693312 0.432735 0.458344 -0.370126
N10   N     N_R   0.933896 0.278722 0.777864 0.141029
O27   O     O_R   0.972129 0.302489 0.892881 -0.373081
O28   O     O_R   0.984772 0.243054 0.684382 -0.364536
N11   N     N_R   0.337898 0.036432 0.138772 0.127996
O29   O     O_R   0.289258 0.100962 0.100552 -0.318682
O30   O     O_R   0.296454 0.974886 0.201388 -0.333071
N12   N     N_R   0.837962 0.536882 0.138678 0.127770
O31   O     O_R   0.789186 0.601129 0.099480 -0.318424
O32   O     O_R   0.796674 0.475708 0.202556 -0.332759
I3    I     I_    0.754012 0.019176 0.243978 -0.348517
I4    I     I_    0.253982 0.519100 0.244020 -0.348472
I5    I     I_    0.806135 0.801955 0.172425 -0.176034
I6    I     I_    0.306136 0.301914 0.172415 -0.176066

loop_
_geom_bond_atom_site_label_1
_geom_bond_atom_site_label_2
_geom_bond_distance
_ccdc_geom_bond_type
C43   C47   1.390633 A    
C27   C29   1.418676 A    
C58   N4    1.382791 A    
C23   H15   1.077183 S    
Cu4   O16   1.955974 S    
N5    O17   1.301440 A    
O10   C6    1.307090 A    
H20   C44   1.082174 S    
N10   O27   1.301398 A    
C10   C30   1.428922 A    
N6    O19   1.301423 A    
C54   N6    1.428015 S    
C9    C29   1.427568 A    
C12   C32   1.428921 A    
C55   I1    2.122897 S    
C16   C18   1.390019 A    
C26   C46   1.416472 A    
C62   N12   1.429391 S    
Cu1   O10   1.957084 S    
C49   C59   1.424678 A    
C56   I2    2.122879 S    
C14   H6    1.082747 S    
H2    C38   1.083305 S    
C32   C36   1.426372 A    
H1    C37   1.084587 S    
Cu2   N4    2.043869 S    
C11   N9    1.432860 S    
O2    Cu1   1.955759 S    
H18   C42   1.082179 S    
Cu1   N3    2.043869 S    
C57   C59   1.435295 A    
O6    Cu3   1.956985 S    
C10   N8    1.440407 S    
C50   C52   1.403091 A    
Cu3   O14   1.955974 S    
H19   C43   1.081038 S    
C23   C27   1.412417 A    
C34   C38   1.400831 A    
C24   C28   1.413259 A    
C33   C37   1.396152 A    
O15   C7    1.312832 A    
C13   C19   1.384825 A    
O11   C7    1.304551 A    
O4    C4    1.300357 A    
C16   H8    1.082752 S    
C14   C20   1.390015 A    
C36   C40   1.400854 A    
C15   C17   1.384848 A    
H21   C63   1.081687 S    
C17   C21   1.385676 A    
O8    Cu4   1.956985 S    
O4    Cu2   1.955759 S    
C63   N3    1.360010 A    
C12   N10   1.440398 S    
C21   C25   1.412411 A    
C50   C60   1.424682 A    
C50   I4    2.124759 S    
O7    C3    1.316896 A    
C11   C31   1.427580 A    
N7    O22   1.300068 A    
C15   H7    1.082815 S    
Cu2   O12   1.957084 S    
C12   C16   1.404932 A    
O1    C1    1.300288 A    
C1    C34   1.467740 S    
C40   C42   1.379881 A    
C21   H13   1.077189 S    
C3    C36   1.467727 S    
C39   C41   1.381139 A    
N12   O32   1.298640 A    
O12   C8    1.307094 A    
C42   C46   1.398488 A    
C9    C13   1.405850 A    
C24   H16   1.081583 S    
C56   C58   1.410466 A    
N6    O20   1.300532 A    
C28   C30   1.407932 A    
C11   C15   1.405851 A    
O5    C1    1.316929 A    
C51   C53   1.391629 A    
C57   N3    1.382775 A    
C25   C31   1.418658 A    
H3    C39   1.084645 S    
H17   C41   1.081074 S    
O8    C4    1.308422 A    
C18   C22   1.391787 A    
C8    C47   1.445621 S    
C60   N2    1.388134 A    
C17   H9    1.082937 S    
N5    O18   1.300488 A    
Cu3   N1    2.044327 S    
C54   C56   1.396589 A    
O3    Cu2   1.957639 S    
C25   C45   1.412332 A    
C53   N5    1.428042 S    
C51   I5    2.129646 S    
Cu4   N2    2.044327 S    
O7    Cu4   1.956307 S    
C59   N1    1.388151 A    
C4    C35   1.451842 S    
C9    N7    1.432830 S    
Cu4   O15   1.957852 S    
C58   C60   1.435259 A    
Cu1   Cu3   2.720006 S    
N9    O25   1.301035 A    
Cu2   Cu4   2.720006 S    
Cu3   O13   1.957852 S    
C49   C51   1.403114 A    
N8    O24   1.300484 A    
N11   O29   1.300025 A    
C52   I6    2.129607 S    
C62   C64   1.422729 A    
C19   C23   1.385662 A    
C22   H14   1.081582 S    
C20   C24   1.391779 A    
O13   C5    1.312846 A    
C28   C48   1.416464 A    
C27   C47   1.412302 A    
C10   C14   1.404925 A    
Cu2   O11   1.956404 S    
O16   C8    1.296026 A    
C38   C44   1.379874 A    
N11   O30   1.298449 A    
N10   O28   1.300511 A    
H4    C40   1.083317 S    
C19   H11   1.082953 S    
N7    O21   1.301016 A    
C55   C57   1.410487 A    
N12   O31   1.300264 A    
C26   C32   1.407927 A    
C22   C26   1.413267 A    
C18   H10   1.082717 S    
C49   I3    2.124733 S    
N1    C61   1.383475 A    
N2    C62   1.383741 A    
O9    C5    1.304545 A    
C35   C39   1.396252 A    
C52   C54   1.391580 A    
C30   C34   1.426378 A    
C44   C48   1.398486 A    
H22   C64   1.081665 S    
C6    C45   1.445619 S    
C29   C33   1.426973 A    
C5    C46   1.467093 S    
C64   N4    1.359848 A    
C31   C35   1.426996 A    
C13   H5    1.082834 S    
C7    C48   1.467084 S    
O5    Cu3   1.956307 S    
O3    C3    1.300309 A    
O6    C2    1.308382 A    
Cu1   O9    1.956404 S    
C2    C33   1.451839 S    
C20   H12   1.082712 S    
O1    Cu1   1.957639 S    
C53   C55   1.396574 A    
O14   C6    1.296033 A    
N9    O26   1.300065 A    
C61   C63   1.422789 A    
N8    O23   1.301399 A    
C61   N11   1.429180 S    
C37   C43   1.381120 A    
C41   C45   1.390710 A    
O2    C2    1.300389 A    
