data_mof_unit_19999.cif
_audit_creation_date              2012-10-26T20:37:57-0400
_audit_creation_method            fapswitch 2.2
_symmetry_space_group_name_H-M    P1
_symmetry_Int_Tables_number       1
_space_group_crystal_system       triclinic
_cell_length_a                    9.837387
_cell_length_b                    11.032304
_cell_length_c                    12.98587
_cell_angle_alpha                 90.025992
_cell_angle_beta                  75.985363
_cell_angle_gamma                 110.928846
_cell_volume                      1271.4082635

loop_
_atom_site_label
_atom_site_type_symbol
_atom_type_description
_atom_site_fract_x
_atom_site_fract_y
_atom_site_fract_z
_atom_type_partial_charge
C1    C     C_R   0.439739 0.254026 0.507807 0.573836
C2    C     C_R   0.685087 0.614451 0.008964 0.068945
C3    C     C_R   0.362031 0.362031 0.869622 -0.145883
C4    C     C_R   0.670115 0.595435 0.117350 -0.140633
C5    C     C_R   0.556246 0.575554 0.864045 0.069054
C6    C     C_R   0.428584 0.416315 0.140038 0.021765
C7    C     C_R   0.564166 0.540617 0.966372 -0.003617
C8    C     C_R   0.447539 0.427934 0.028269 -0.049207
C9    C     C_2   0.405783 0.114727 0.512136 -0.091673
C10   C     C_2   0.594141 0.885255 0.488483 -0.092741
C11   C     C_2   0.516861 0.069554 0.498661 -0.147287
C12   C     C_R   0.560240 0.745970 0.492352 0.582421
C13   C     C_2   0.482980 0.930402 0.502634 -0.145493
C14   C     C_2   0.288274 0.322541 0.212390 0.611486
C15   C     C_2   0.625204 0.715004 0.818496 0.598198
C16   C     C_2   0.263934 0.195991 0.021045 0.625756
C17   C     C_2   0.834466 0.700959 0.941403 0.611941
C18   C     C_2   0.082750 0.511137 0.491339 -0.000424
C19   C     C_2   0.917231 0.488667 0.508499 0.002557
C20   C     C_R   0.474431 0.497220 0.701964 0.571589
C21   C     C_R   0.525439 0.501509 0.297690 0.570765
C22   C     C_R   0.540166 0.503414 0.183387 -0.039211
C23   C     C_R   0.459973 0.481651 0.814910 -0.033257
C24   C     C_R   0.354060 0.333086 0.975538 0.003106
Cu1   Cu    Cu3+1 0.647370 0.522180 0.481340 1.018697
Cu2   Cu    Cu3+1 0.352630 0.477820 0.518660 1.008263
H1    H     H_    0.759814 0.654979 0.151209 0.173397
H2    H     H_    0.050999 0.373379 0.603776 0.214054
H3    H     H_    0.061342 0.255979 0.260366 0.348536
H4    H     H_    0.671978 0.903525 0.847257 0.351573
H5    H     H_    0.436742 0.170661 0.064357 0.305949
H6    H     H_    0.993468 0.734277 0.802070 0.351257
H7    H     H_    0.295410 0.288366 0.827646 0.149027
H8    H     H_    0.366079 0.864551 0.517107 0.161426
H9    H     H_    0.633730 0.135395 0.484447 0.157611
H10   H     H_    0.710847 0.951404 0.473990 0.122733
H11   H     H_    0.289111 0.048590 0.526362 0.126346
H12   H     H_    0.835482 0.413712 0.569643 0.148852
H13   H     H_    0.164486 0.585963 0.430093 0.155755
H14   H     H_    0.949012 0.626726 0.396310 0.219928
N1    N     N_2   0.131210 0.444490 0.546730 -0.346345
N2    N     N_2   0.868790 0.555510 0.453270 -0.341120
O1    O     O_R   0.578710 0.332530 0.490040 -0.511614
O2    O     O_R   0.148493 0.323769 0.207109 -0.663964
O3    O     O_2   0.683553 0.744632 0.723073 -0.487076
O4    O     O_R   0.621925 0.812927 0.886450 -0.667953
O5    O     O_2   0.134664 0.144706 0.013675 -0.404564
O6    O     O_R   0.326273 0.122236 0.068408 -0.617163
O7    O     O_2   0.910483 0.798301 0.975630 -0.451784
O8    O     O_R   0.890561 0.668481 0.839959 -0.682934
O9    O     O_R   0.421290 0.667470 0.509960 -0.508920
O10   O     O_R   0.329810 0.295070 0.521560 -0.473629
O11   O     O_R   0.670190 0.704930 0.478440 -0.464786
O12   O     O_R   0.604230 0.515670 0.637800 -0.461285
O13   O     O_R   0.395770 0.484330 0.362200 -0.475433
O14   O     O_R   0.355330 0.478200 0.669330 -0.494932
O15   O     O_R   0.644670 0.521800 0.330670 -0.498264
O16   O     O_2   0.295216 0.245211 0.276556 -0.483632

loop_
_geom_bond_atom_site_label_1
_geom_bond_atom_site_label_2
_ccdc_geom_bond_type
Cu1   N2    S    
C17   O8    S    
C2    C4    A    
C18   H13   S    
C20   C23   S    
C21   O15   A    
C19   H12   S    
Cu2   O10   S    
C6    C14   S    
C4    C22   A    
C3    C23   A    
C12   O11   A    
C5    C23   A    
C19   N2    D    
H4    O4    S    
C20   O14   A    
Cu2   O13   S    
Cu1   O1    S    
C11   H9    S    
C13   H8    S    
C16   C24   S    
C21   C22   S    
Cu1   O12   S    
C2    C17   S    
C11   C13   S    
C20   O12   A    
H6    O8    S    
C3    C24   A    
Cu1   O15   S    
C10   C12   S    
C16   O5    D    
C9    H11   S    
C8    C24   A    
Cu1   O11   S    
C5    C7    A    
H5    O6    S    
C9    C11   D    
H3    O2    S    
C14   O16   D    
C1    O10   A    
C5    C15   S    
C15   O3    D    
C6    C22   A    
H2    N1    S    
C7    C8    A    
C12   O9    A    
C1    C9    S    
C16   O6    S    
C14   O2    S    
C18   C19   S    
C18   N1    D    
C17   O7    D    
C21   O13   A    
C3    H7    S    
C6    C8    A    
C4    H1    S    
C15   O4    S    
Cu1   Cu2   S    
Cu2   O9    S    
C1    O1    A    
C2    C7    A    
Cu2   N1    S    
H14   N2    S    
C10   H10   S    
C10   C13   D    
Cu2   O14   S    
