data_mof_unit_37687.cif
_audit_creation_date              2012-12-11T17:47:17-0500
_audit_creation_method            fapswitch 2.2
_symmetry_space_group_name_H-M    P1
_symmetry_Int_Tables_number       1
_space_group_crystal_system       triclinic
_cell_length_a                    14.769066
_cell_length_b                    14.874983
_cell_length_c                    15.156764
_cell_angle_alpha                 110.357163
_cell_angle_beta                  109.344926
_cell_angle_gamma                 108.532823
_cell_volume                      2568.4165242

loop_
_atom_site_label
_atom_site_type_symbol
_atom_type_description
_atom_site_fract_x
_atom_site_fract_y
_atom_site_fract_z
_atom_type_partial_charge
C1    C     C_R   0.980762 0.257069 0.068829 -0.125171
C2    C     C_R   0.063799 0.142269 0.164223 -0.242672
C3    C     C_R   0.364217 0.174603 0.963142 -0.262731
C4    C     C_R   0.969441 0.951763 0.335617 -0.266630
C5    C     C_R   0.266282 0.135587 0.965657 -0.173617
C6    C     C_R   0.032248 0.010339 0.302991 -0.150189
C7    C     C_R   0.586742 0.151522 0.155209 -0.119091
C8    C     C_R   0.300468 0.702440 0.826728 -0.071237
C9    C     C_R   0.658469 0.259678 0.241855 -0.051901
C10   C     C_R   0.205898 0.634779 0.724500 -0.111041
C11   C     C_R   0.772341 0.299066 0.294035 0.118074
C12   C     C_R   0.091234 0.805145 0.005949 -0.150378
C13   C     C_R   0.132670 0.672422 0.689485 0.124935
C14   C     C_R   0.812500 0.225916 0.265084 -0.127397
C15   C     C_R   0.158056 0.780351 0.755648 -0.186578
C16   C     C_R   0.316408 0.761320 0.224824 -0.131996
C17   C     C_R   0.706093 0.192934 0.794445 -0.140463
C18   C     C_R   0.741147 0.119497 0.175960 -0.054958
C19   C     C_R   0.252173 0.847257 0.858555 -0.061914
C20   C     C_R   0.628461 0.082455 0.120642 -0.057111
C21   C     C_R   0.322224 0.807627 0.894700 -0.021265
C22   C     C_R   0.849242 0.422402 0.484971 -0.231040
C23   C     C_R   0.326095 0.792366 0.327310 0.054578
C24   C     C_R   0.013876 0.590433 0.495787 -0.249882
C25   C     C_R   0.938085 0.510199 0.584461 0.061032
C26   C     C_R   0.929337 0.498455 0.394941 0.069975
C27   C     C_R   0.023622 0.593784 0.590203 0.015101
C28   C     C_R   0.848048 0.410517 0.389764 0.026024
C29   C     C_R   0.260079 0.194241 0.056846 0.124573
C30   C     C_R   0.981455 0.999835 0.201168 0.127612
C31   C     C_R   0.448180 0.336822 0.138380 -0.130780
C32   C     C_R   0.803245 0.883340 0.170962 -0.114799
C33   C     C_R   0.254474 0.046163 0.543773 -0.127423
C34   C     C_R   0.707897 0.127621 0.703808 0.067531
C35   C     C_R   0.917176 0.006902 0.605163 -0.137080
C36   C     C_R   0.315929 0.003105 0.509657 -0.109344
C37   C     C_R   0.811246 0.964037 0.590875 -0.108294
C38   C     C_R   0.340324 0.931006 0.540205 -0.002038
C39   C     C_R   0.729867 0.975423 0.522389 0.019463
C40   C     C_R   0.211019 0.409791 0.902611 -0.143301
C41   C     C_R   0.775178 0.592196 0.022352 -0.120054
C42   C     C_R   0.300095 0.900553 0.603527 -0.029138
C43   C     C_R   0.754473 0.026719 0.463553 -0.013403
C44   C     C_R   0.238573 0.944525 0.637298 -0.127190
C45   C     C_R   0.302184 0.502013 0.932158 0.033431
C46   C     C_R   0.862192 0.070078 0.479872 -0.105559
C47   C     C_R   0.215844 0.016888 0.607415 -0.151640
C48   C     C_R   0.943053 0.061710 0.551493 -0.197044
C49   C     C_R   0.528872 0.973678 0.625568 -0.198035
C50   C     C_R   0.526846 0.867420 0.434305 -0.246975
C51   C     C_R   0.626087 0.011225 0.622546 0.052557
C52   C     C_R   0.427778 0.856449 0.431703 0.060359
C53   C     C_R   0.627214 0.949930 0.527796 0.009261
C54   C     C_R   0.429819 0.911681 0.530017 0.004861
C55   C     C_R   0.457079 0.273560 0.051162 0.034711
C56   C     C_R   0.674192 0.500563 0.943180 0.011189
C57   C     C_R   0.854612 0.887056 0.269540 0.061875
C58   C     C_R   0.049140 0.042976 0.157783 0.030084
C59   C     C_R   0.173462 0.136794 0.076479 0.028390
C60   C     C_R   0.350216 0.297276 0.141150 -0.177608
C61   C     C_R   0.866522 0.938203 0.136282 -0.245374
C62   C     C_R   0.091903 0.985367 0.103288 0.062275
C63   C     C_R   0.109624 0.179532 0.107874 0.055152
C64   C     C_R   0.997454 0.589610 0.300070 -0.151884
C65   C     C_R   0.937940 0.408575 0.686422 -0.138011
C66   C     C_3   0.454377 0.401047 0.843911 -0.171143
C67   C     C_R   0.940735 0.496904 0.302706 0.105560
C68   C     C_3   0.509801 0.603549 0.989524 -0.158813
C69   C     C_3   0.411320 0.475866 0.816822 -0.133716
C70   C     C_3   0.550685 0.528753 0.016303 -0.045476
C71   C     C_3   0.393876 0.503831 0.915191 0.147861
C72   C     C_3   0.570496 0.500891 0.919330 0.158657
C73   C     C_3   0.434889 0.429265 0.941215 -0.167791
C74   C     C_3   0.530309 0.576081 0.892209 -0.183146
C75   C     C_R   0.301747 0.592440 0.996937 -0.115672
C76   C     C_R   0.684917 0.408472 0.929145 -0.059584
C77   C     C_R   0.906382 0.407234 0.206825 -0.126918
C78   C     C_R   0.951136 0.502087 0.679408 0.043257
C79   C     C_R   0.015443 0.591306 0.782360 -0.109266
C80   C     C_R   0.221079 0.754101 0.313395 -0.124332
C81   C     C_R   0.796716 0.195452 0.703604 -0.148013
C82   C     C_R   0.073695 0.256145 0.978428 -0.130514
C83   C     C_R   0.998625 0.802204 0.094763 -0.150494
C84   C     C_R   0.062422 0.234715 0.058021 0.059548
C85   C     C_R   0.058757 0.868265 0.067181 0.072279
C86   C     C_2   0.329433 0.829095 0.640114 0.462233
C87   C     C_2   0.673635 0.047191 0.395910 0.456931
C88   C     C_2   0.561968 0.309419 0.050120 0.443046
C89   C     C_R   0.163926 0.040077 0.075320 -0.238917
C90   C     C_2   0.790318 0.822373 0.303632 0.473442
H1    H     H_    0.948054 0.248202 0.120818 0.090973
H2    H     H_    0.187298 0.551652 0.674445 0.098421
H3    H     H_    0.899532 0.252981 0.308621 0.098229
H4    H     H_    0.101293 0.809618 0.730607 0.097132
H5    H     H_    0.773011 0.065575 0.150343 0.109687
H6    H     H_    0.270035 0.929069 0.911054 0.091364
H7    H     H_    0.787267 0.356287 0.482147 0.152425
H8    H     H_    0.081315 0.654432 0.502283 0.118703
H9    H     H_    0.197320 0.056083 0.899564 0.110546
H10   H     H_    0.120849 0.057041 0.352639 0.115437
H11   H     H_    0.388815 0.369306 0.958180 0.140862
H12   H     H_    0.151097 0.833213 0.982487 0.093972
H13   H     H_    0.571874 0.636147 0.872132 0.121469
H14   H     H_    0.381723 0.777710 0.205323 0.102346
H15   H     H_    0.658421 0.166176 0.829917 0.092441
H16   H     H_    0.347524 0.343207 0.212640 0.123547
H17   H     H_    0.826477 0.929355 0.057253 0.128345
H18   H     H_    0.170088 0.051943 0.635494 0.106334
H19   H     H_    0.026114 0.098074 0.565391 0.119012
H20   H     H_    0.349963 0.030869 0.464857 0.115351
H21   H     H_    0.793818 0.926196 0.637030 0.117058
H22   H     H_    0.210148 0.925016 0.688635 0.128669
H23   H     H_    0.518145 0.414627 0.206237 0.153775
H24   H     H_    0.884847 0.112975 0.439211 0.160785
H25   H     H_    0.527062 0.012061 0.699381 0.137743
H26   H     H_    0.527073 0.820894 0.361354 0.151045
H27   H     H_    0.211825 0.006835 0.049813 0.120504
H28   H     H_    0.027486 0.182754 0.203224 0.120677
H29   H     H_    0.351436 0.454827 0.735532 0.108292
H30   H     H_    0.608504 0.551037 0.098999 0.181509
H31   H     H_    0.433272 0.317842 0.784534 0.117153
H32   H     H_    0.530833 0.686683 0.048687 0.149371
H33   H     H_    0.182463 0.325703 0.844424 0.098253
H34   H     H_    0.714888 0.834669 0.118766 0.138342
H35   H     H_    0.793505 0.676850 0.056611 0.110883
H36   H     H_    0.021714 0.673608 0.354288 0.097865
H37   H     H_    0.893574 0.324185 0.620988 0.114848
H38   H     H_    0.355801 0.677360 0.025637 0.084326
H39   H     H_    0.620853 0.323578 0.875829 0.078916
H40   H     H_    0.195949 0.756348 0.372651 0.102868
H41   H     H_    0.834032 0.174350 0.656090 0.124272
H42   H     H_    0.128325 0.246746 0.947759 0.112020
H43   H     H_    0.975165 0.823976 0.154932 0.135077
H44   H     H_    0.368551 0.125720 0.894041 0.137802
H45   H     H_    0.573640 0.999777 0.052167 0.102389
H46   H     H_    0.010727 0.954548 0.411046 0.130331
H47   H     H_    0.240321 0.105599 0.524521 0.104055
H48   H     H_    0.980069 0.000131 0.660114 0.110444
H49   H     H_    0.323581 0.755642 0.583389 0.012205
H50   H     H_    0.591525 0.018971 0.385120 0.027805
H51   H     H_    0.844816 0.323847 0.169591 0.111524
H52   H     H_    0.034583 0.674846 0.806346 0.114490
H53   H     H_    0.567188 0.257160 0.983389 0.008005
H54   H     H_    0.832462 0.819460 0.375552 0.034173
H55   H     H_    0.393571 0.858550 0.975032 0.072943
H56   H     H_    0.498938 0.121314 0.114588 0.114684
H57   H     H_    0.355852 0.672645 0.853946 0.095701
H58   H     H_    0.625578 0.312625 0.268500 0.115220
N1    N     N_R   0.947560 0.293820 0.002910 -0.043194
N2    N     N_R   0.789450 0.443190 0.997090 -0.031330
N3    N     N_R   0.945970 0.443180 0.152110 -0.043687
N4    N     N_R   0.054030 0.556820 0.847890 -0.042461
N5    N     N_R   0.151530 0.706170 0.208880 -0.042309
N6    N     N_R   0.848470 0.293830 0.791120 -0.041321
N7    N     N_R   0.004980 0.293810 0.946140 -0.041270
N8    N     N_R   0.995020 0.706190 0.053860 -0.044489
N9    N     N_R   0.052440 0.706180 0.997090 -0.040961
N10   N     N_R   0.208960 0.706170 0.152110 -0.040606
N11   N     N_R   0.791040 0.293830 0.847890 -0.044935
N12   N     N_R   0.154330 0.443160 0.946140 -0.038975
N13   N     N_R   0.845670 0.556840 0.053860 -0.036377
N14   N     N_R   0.002190 0.556820 0.208880 -0.042062
N15   N     N_R   0.997810 0.443180 0.791120 -0.042028
N16   N     N_R   0.210550 0.556810 0.002910 -0.038331
Ni1   Ni    Ni4+2 0.869690 0.369690 0.000000 0.224218
Ni2   Ni    Ni4+2 0.130310 0.630310 0.000000 0.211448
Ni3   Ni    Ni4+2 0.001390 0.369680 0.869810 0.212917
Ni4   Ni    Ni4+2 0.998610 0.630320 0.130190 0.219448
O1    O     O_2   0.368452 0.856422 0.735615 -0.588635
O2    O     O_2   0.698550 0.098270 0.352235 -0.600013
O3    O     O_2   0.643993 0.396180 0.124255 -0.611140
O4    O     O_2   0.689896 0.772661 0.252940 -0.626353

loop_
_geom_bond_atom_site_label_1
_geom_bond_atom_site_label_2
_ccdc_geom_bond_type
C58   C62   A    
C56   C76   A    
C64   H36   S    
C41   N13   A    
C45   C71   S    
C86   O1    D    
C14   C18   A    
C67   C77   A    
C24   C27   A    
C87   H50   S    
C77   N3    A    
C15   H4    S    
C2    H28   S    
C80   N5    A    
C1    C84   A    
C15   C19   A    
C34   C51   S    
C12   C85   A    
C49   H25   S    
C24   H8    S    
C26   C67   S    
N12   N16   A    
N8    N9    A    
C19   C21   A    
C24   C26   A    
C32   C61   A    
C38   C42   A    
C35   H48   S    
C11   C14   A    
C81   H41   S    
C66   C69   S    
N8    Ni4   S    
C68   C74   S    
C49   C54   A    
C62   C89   A    
C55   C88   S    
C33   C36   A    
C75   H38   S    
C59   C89   A    
N12   Ni3   S    
N5    N10   A    
C69   C71   S    
C32   H34   S    
C3    C55   A    
C16   H14   S    
C66   C72   S    
C5    H9    S    
N7    Ni3   S    
C49   C51   A    
C22   C25   A    
C4    C57   A    
C70   H30   S    
C50   C52   A    
C1    N1    A    
C42   C86   S    
C34   C81   A    
C12   N9    A    
C88   H53   S    
C50   H26   S    
C44   C47   A    
C4    H46   S    
C7    H56   S    
C73   H11   S    
C48   H19   S    
C10   H2    S    
C1    H1    S    
C22   H7    S    
C22   C28   A    
C18   H5    S    
C42   C44   A    
C32   C57   A    
C17   N11   A    
C35   C48   A    
C52   C54   A    
C5    C29   A    
C40   C45   A    
C62   C85   S    
C46   C48   A    
C50   C53   A    
C80   H40   S    
C57   C90   S    
C46   H24   S    
C16   N10   A    
C25   C78   S    
N4    N15   A    
C64   C67   A    
C41   H35   S    
N1    Ni1   S    
C72   C74   S    
C68   H32   S    
C71   C73   S    
C78   C79   A    
C79   H52   S    
C39   C43   A    
C83   N8    A    
C56   C72   S    
N3    Ni1   S    
C66   C73   S    
C33   H47   S    
C69   H29   S    
C81   N6    A    
N11   Ni1   S    
C75   N16   A    
C51   C53   A    
C21   H55   S    
C31   C60   A    
N15   Ni3   S    
C41   C56   A    
C12   H12   S    
C17   H15   S    
C74   H13   S    
C76   H39   S    
C38   C54   S    
C29   C60   A    
C76   N2    A    
N3    N14   A    
C65   N15   A    
C70   C73   S    
C8    C21   A    
C66   H31   S    
C69   C74   S    
C9    C11   A    
C86   H49   S    
N14   Ni4   S    
C82   N7    A    
C44   H22   S    
C64   N14   A    
C83   C85   A    
C89   H27   S    
C47   H18   S    
C16   C23   A    
C82   C84   A    
C13   C15   A    
N5    Ni4   S    
C36   H20   S    
C23   C80   A    
N6    Ni3   S    
C4    C6    A    
C17   C34   A    
C82   H42   S    
C65   H37   S    
N2    Ni1   S    
C60   H16   S    
C2    C63   A    
N10   Ni2   S    
C35   C37   A    
C7    C9    A    
N2    N13   A    
C65   C78   A    
C14   H3    S    
C6    C30   A    
C26   C28   A    
C40   N12   A    
C3    C5    A    
C10   C13   A    
N9    Ni2   S    
N4    Ni2   S    
C2    C58   A    
C25   C27   A    
C9    H58   S    
C59   C63   A    
C63   C84   S    
C45   C75   A    
C3    H44   S    
C43   C87   S    
N16   Ni2   S    
N1    N7    A    
N6    N11   A    
C37   C39   A    
C87   O2    D    
C23   C52   S    
C39   C53   S    
C11   C28   S    
C40   H33   S    
C68   C71   S    
C33   C47   A    
C30   C58   S    
C36   C38   A    
C18   C20   A    
C20   H45   S    
C61   H17   S    
C43   C46   A    
C77   H51   S    
C83   H43   S    
N13   Ni4   S    
C8    H57   S    
C37   H21   S    
C8    C10   A    
C7    C20   A    
C30   C61   A    
C90   O4    D    
C88   O3    D    
C68   C70   S    
C29   C59   S    
C13   C27   S    
C70   C72   S    
C31   C55   A    
C31   H23   S    
C90   H54   S    
C19   H6    S    
C6    H10   S    
C79   N4    A    
