data_mof_unit_42770.cif
_audit_creation_date              2012-12-10T16:48:51-0500
_audit_creation_method            fapswitch 2.2
_symmetry_space_group_name_H-M    P1
_symmetry_Int_Tables_number       1
_space_group_crystal_system       triclinic
_cell_length_a                    17.264106
_cell_length_b                    8.689066
_cell_length_c                    7.435271
_cell_angle_alpha                 102.93596
_cell_angle_beta                  90.091638
_cell_angle_gamma                 92.98089
_cell_volume                      1085.47915623

loop_
_atom_site_label
_atom_site_type_symbol
_atom_type_description
_atom_site_fract_x
_atom_site_fract_y
_atom_site_fract_z
_atom_type_partial_charge
C1    C     C_R   0.497651 0.199728 0.453633 0.888825
C2    C     C_R   0.778699 0.559288 0.620292 -0.206155
C3    C     C_R   0.141388 0.431336 0.389359 -0.203066
C4    C     C_R   0.858612 0.568664 0.610641 -0.203066
C5    C     C_R   0.104715 0.471712 0.560202 0.179261
C6    C     C_R   0.895285 0.528287 0.439798 0.179261
C7    C     C_R   0.149527 0.512665 0.724979 0.221344
C8    C     C_R   0.850473 0.487335 0.275021 0.221344
C9    C     C_R   0.230648 0.520682 0.713561 -0.196518
C10   C     C_R   0.769352 0.479318 0.286439 -0.196517
C11   C     C_2   0.019799 0.473554 0.563756 -0.229441
C12   C     C_R   0.502348 0.800271 0.546367 0.888825
C13   C     C_2   0.980201 0.526445 0.436244 -0.229441
C14   C     C_3   0.112061 0.552277 0.911553 -0.935861
C15   C     C_3   0.887939 0.447723 0.088447 -0.935861
C16   C     C_2   0.496513 0.031896 0.427459 -0.370364
C17   C     C_2   0.503487 0.968104 0.572541 -0.370364
C18   C     C_R   0.350985 0.498671 0.525896 0.800319
C19   C     C_R   0.649015 0.501329 0.474104 0.800320
C20   C     C_R   0.266552 0.487811 0.541032 -0.072738
C21   C     C_R   0.733448 0.512189 0.458968 -0.072738
C22   C     C_R   0.221301 0.440711 0.379708 -0.206154
Cu1   Cu    Cu3+1 0.508700 0.517250 0.683000 0.949318
Cu2   Cu    Cu3+1 0.491300 0.482750 0.317000 0.949318
H1    H     H_    0.247527 0.410599 0.244958 0.164826
H2    H     H_    0.510069 0.039539 0.712429 0.179434
H3    H     H_    0.439121 0.379332 0.958198 0.223867
H4    H     H_    0.560879 0.620668 0.041802 0.223867
H5    H     H_    0.074015 0.652635 0.919007 0.241841
H6    H     H_    0.076862 0.447906 0.934365 0.226809
H7    H     H_    0.155870 0.586431 0.024995 0.238443
H8    H     H_    0.925985 0.347365 0.080993 0.241841
H9    H     H_    0.844130 0.413569 0.975005 0.238443
H10   H     H_    0.923138 0.552094 0.065635 0.226809
H11   H     H_    0.752473 0.589400 0.755042 0.164826
H12   H     H_    0.734331 0.445411 0.161348 0.155511
H13   H     H_    0.265669 0.554589 0.838652 0.155511
H14   H     H_    0.010433 0.566190 0.325568 0.167423
H15   H     H_    0.989566 0.433809 0.674432 0.167423
H16   H     H_    0.891857 0.607302 0.737843 0.146209
H17   H     H_    0.108142 0.392698 0.262157 0.146209
H18   H     H_    0.489931 0.960461 0.287570 0.179434
N1    N     N_2   0.478180 0.456750 0.041980 -0.219541
N2    N     N_2   0.521820 0.543250 0.958020 -0.219541
O1    O     O_R   0.505650 0.286040 0.618880 -0.582882
O2    O     O_R   0.494350 0.713960 0.381120 -0.582882
O3    O     O_R   0.490960 0.256910 0.309800 -0.586063
O4    O     O_R   0.509040 0.743090 0.690200 -0.586062
O5    O     O_R   0.394600 0.516230 0.672450 -0.594233
O6    O     O_R   0.605400 0.483770 0.327550 -0.594234
O7    O     O_R   0.379910 0.487100 0.363380 -0.586572
O8    O     O_R   0.620090 0.512900 0.636620 -0.586571

loop_
_geom_bond_atom_site_label_1
_geom_bond_atom_site_label_2
_ccdc_geom_bond_type
C12   C17   S    
C2    H11   S    
C2    C4    A    
N1    N2    D    
Cu1   O1    S    
H3    N1    S    
C12   O2    A    
C15   H10   S    
C14   H7    S    
C12   O4    A    
Cu2   O2    S    
C7    C9    A    
Cu2   O7    S    
C9    H13   S    
Cu1   O8    S    
C15   H8    S    
C1    C16   S    
C6    C13   S    
C11   H15   S    
C11   C13   D    
C19   O6    A    
C1    O1    A    
C13   H14   S    
C2    C21   A    
C17   H2    S    
C4    C6    A    
C19   C21   S    
C10   H12   S    
C18   O7    A    
C5    C11   S    
C8    C15   S    
C18   C20   S    
C10   C21   A    
Cu2   O6    S    
C9    C20   A    
Cu1   O5    S    
C20   C22   A    
Cu1   Cu2   S    
C16   H18   S    
C8    C10   A    
C5    C7    A    
Cu2   N1    S    
C1    O3    A    
C3    C22   A    
C6    C8    A    
Cu1   O4    S    
C14   H5    S    
C14   H6    S    
Cu2   O3    S    
C19   O8    A    
H4    N2    S    
C7    C14   S    
C3    H17   S    
Cu1   N2    S    
C4    H16   S    
C18   O5    A    
C15   H9    S    
C16   C17   D    
C3    C5    A    
C22   H1    S    
