data_mof_unit_25791.cif
_audit_creation_date              2012-12-10T20:42:40-0500
_audit_creation_method            fapswitch 2.2
_symmetry_space_group_name_H-M    P1
_symmetry_Int_Tables_number       1
_space_group_crystal_system       triclinic
_cell_length_a                    8.91077
_cell_length_b                    10.773629
_cell_length_c                    9.864194
_cell_angle_alpha                 89.565831
_cell_angle_beta                  90.009982
_cell_angle_gamma                 89.887604
_cell_volume                      946.946717145

loop_
_atom_site_label
_atom_site_type_symbol
_atom_type_description
_atom_site_fract_x
_atom_site_fract_y
_atom_site_fract_z
_atom_type_partial_charge
C1    C     C_R   0.499441 0.260580 0.500273 0.918088
C2    C     C_R   0.493365 0.938212 0.370457 0.517974
C3    C     C_R   0.499520 0.871187 0.494914 -0.203954
C4    C     C_R   0.507223 0.936775 0.614738 -0.018497
C5    C     C_3   0.513139 0.923843 0.765133 -0.525627
C6    C     C_3   0.513656 0.067170 0.767751 0.399577
C7    C     C_R   0.425528 0.588815 0.070470 0.263644
C8    C     C_R   0.585334 0.416347 0.072679 -0.160867
C9    C     C_R   0.585407 0.416428 0.928615 -0.101402
C10   C     C_R   0.425402 0.588781 0.928006 0.194193
C11   C     C_3   0.261269 0.615476 0.922287 -0.516433
C12   C     C_R   0.218694 0.500188 0.499974 0.938549
C13   C     C_3   0.261625 0.615998 0.076223 -0.490382
C14   C     C_R   0.499295 0.739659 0.498908 0.906680
C15   C     C_R   0.781313 0.500076 0.500023 0.919616
C16   C     C_1   0.065402 0.500239 0.499981 -0.202813
C17   C     C_1   0.934622 0.500194 0.500015 -0.199366
C18   C     C_R   0.507022 0.060588 0.616760 0.087245
C19   C     C_R   0.499053 0.129618 0.498476 -0.190924
C20   C     C_R   0.490389 0.067419 0.373916 -0.324236
H1    H     H_    0.480062 0.117903 0.278937 0.179727
H2    H     H_    0.195624 0.537565 0.878990 0.230591
H3    H     H_    0.238335 0.709026 0.119523 0.226466
H4    H     H_    0.195793 0.538641 0.121694 0.216802
H5    H     H_    0.409527 0.880726 0.806616 0.219400
H6    H     H_    0.620151 0.881590 0.800677 0.164233
H7    H     H_    0.619552 0.110824 0.803840 0.046163
H8    H     H_    0.651762 0.348493 0.127571 0.144829
H9    H     H_    0.651965 0.348725 0.874805 0.140412
H10   H     H_    0.236879 0.708020 0.876865 0.200772
N1    N     N_R   0.499010 0.499140 0.142800 -0.109946
N2    N     N_R   0.499010 0.499180 0.857150 -0.100675
O1    O     O_R   0.500020 0.316790 0.614690 -0.599668
O2    O     O_R   0.500000 0.316760 0.385350 -0.637668
O3    O     O_R   0.285350 0.500020 0.614650 -0.612004
O4    O     O_R   0.285340 0.499980 0.385310 -0.622986
O5    O     O_R   0.500000 0.683240 0.614650 -0.622580
O6    O     O_R   0.499980 0.683210 0.385310 -0.571224
O7    O     O_R   0.714660 0.500020 0.614690 -0.622988
O8    O     O_R   0.714650 0.499980 0.385350 -0.621718
Zn1   Zn    Zn3+2 0.500010 0.500020 0.653130 0.960305
Zn2   Zn    Zn3+2 0.499990 0.499980 0.346870 0.952713
O9    O     O_3   0.476576 0.879198 0.247185 -0.601589
C21   C     C_3   0.613625 0.885298 0.175869 -0.330187
H11   H     H_    0.601890 0.832055 0.080648 0.181937
H12   H     H_    0.706761 0.842409 0.235324 0.172273
H13   H     H_    0.642165 0.982454 0.147194 0.142599
O10   O     O_3   0.379958 0.118568 0.820086 -0.567267
C22   C     C_3   0.386380 0.116998 0.962924 -0.288658
H14   H     H_    0.488840 0.163639 0.001661 0.136157
H15   H     H_    0.380296 0.020413 0.002868 0.189946
H16   H     H_    0.287978 0.168365 0.002665 0.192769

loop_
_geom_bond_atom_site_label_1
_geom_bond_atom_site_label_2
_ccdc_geom_bond_type
C8    C9    A    
C7    C10   A    
N2    Zn1   S    
N1    Zn2   S    
C14   O6    A    
C11   H2    S    
O4    Zn2   S    
C6    H7    S    
O2    Zn2   S    
C21   H13   S    
C9    H9    S    
C2    O9    S    
O9    C21   S    
C22   H16   S    
O1    Zn1   S    
C19   C20   A    
O8    Zn2   S    
C2    C3    A    
C1    O1    A    
O7    Zn1   S    
C20   H1    S    
C12   O3    A    
C11   C13   S    
C15   O7    A    
C16   C17   T    
C3    C14   S    
C6    O10   S    
O3    Zn1   S    
C13   H4    S    
O10   C22   S    
C21   H12   S    
C1    O2    A    
O6    Zn2   S    
O5    Zn1   S    
C5    C6    S    
C8    H8    S    
C6    C18   S    
C5    H5    S    
C15   O8    A    
C1    C19   S    
C12   O4    A    
C10   C11   S    
C2    C20   A    
C5    H6    S    
C10   N2    A    
C7    C13   S    
C7    N1    A    
C21   H11   S    
C13   H3    S    
C22   H14   S    
C15   C17   S    
C18   C19   A    
C9    N2    A    
C22   H15   S    
C8    N1    A    
C4    C18   A    
C3    C4    A    
C12   C16   S    
C11   H10   S    
C4    C5    S    
C14   O5    A    
