data_mof_unit_14377.cif
_audit_creation_date              2012-12-10T20:00:04-0500
_audit_creation_method            fapswitch 2.2
_symmetry_space_group_name_H-M    P1
_symmetry_Int_Tables_number       1
_space_group_crystal_system       triclinic
_cell_length_a                    14.826824
_cell_length_b                    14.383888
_cell_length_c                    8.869983
_cell_angle_alpha                 90.100355
_cell_angle_beta                  92.122889
_cell_angle_gamma                 90.84802
_cell_volume                      1890.16763477

loop_
_atom_site_label
_atom_site_type_symbol
_atom_type_description
_atom_site_fract_x
_atom_site_fract_y
_atom_site_fract_z
_atom_type_partial_charge
C1    C     C_R   0.328170 0.499564 0.499678 0.845293
C2    C     C_R   0.441302 0.893319 0.403643 -0.308104
C3    C     C_R   0.499338 0.499929 0.219062 0.933844
C4    C     C_R   0.499831 0.500038 0.780887 0.951091
C5    C     C_R   0.499988 0.053192 0.500059 0.129860
C6    C     C_R   0.499821 0.946686 0.499587 0.131195
C7    C     C_1   0.498990 0.499854 0.065498 -0.223196
C8    C     C_1   0.499131 0.500006 0.934400 -0.220107
C9    C     C_R   0.088115 0.535937 0.575868 -0.172655
C10   C     C_R   0.904817 0.422463 0.408318 -0.191453
C11   C     C_R   0.906002 0.590502 0.435526 -0.205790
C12   C     C_R   0.672175 0.500668 0.490428 0.866184
C13   C     C_R   0.100416 0.476913 0.319896 -0.219297
C14   C     C_R   0.180762 0.531806 0.598132 -0.233881
C15   C     C_R   0.812429 0.420390 0.426433 -0.208552
C16   C     C_R   0.813786 0.588220 0.451861 -0.199243
C17   C     C_R   0.193202 0.474393 0.341717 -0.173072
C18   C     C_R   0.232416 0.499413 0.481607 0.015713
C19   C     C_R   0.767534 0.502804 0.458252 -0.018559
C20   C     C_R   0.048282 0.507697 0.437256 0.106784
C21   C     C_R   0.951597 0.507263 0.419786 0.121470
C22   C     C_R   0.377593 0.246958 0.299021 0.171069
C23   C     C_R   0.441884 0.202377 0.405391 0.106315
C24   C     C_R   0.404427 0.269097 0.153299 -0.118434
C25   C     C_R   0.340586 0.294944 0.041766 -0.160582
C26   C     C_R   0.248925 0.294215 0.073045 -0.145815
C27   C     C_R   0.221237 0.268597 0.216301 -0.160375
C28   C     C_R   0.285309 0.245917 0.329446 -0.148268
C29   C     C_R   0.617908 0.752994 0.708444 0.175869
C30   C     C_R   0.710816 0.751691 0.684882 -0.170786
C31   C     C_R   0.770514 0.716222 0.795476 -0.142030
C32   C     C_R   0.738132 0.686089 0.933354 -0.117042
C33   C     C_R   0.646454 0.693510 0.961763 -0.156787
C34   C     C_R   0.556802 0.797777 0.596901 0.105634
C35   C     C_R   0.586820 0.728517 0.850584 -0.112901
C36   C     C_R   0.620235 0.252151 0.704072 0.173878
C37   C     C_R   0.711859 0.261196 0.672324 -0.150222
C38   C     C_R   0.772944 0.301278 0.778356 -0.141875
C39   C     C_R   0.743464 0.328791 0.919286 -0.122565
C40   C     C_R   0.653350 0.314417 0.955193 -0.155287
C41   C     C_R   0.592261 0.274743 0.848698 -0.116876
C42   C     C_R   0.375862 0.746820 0.303452 0.165669
C43   C     C_R   0.398697 0.725351 0.155635 -0.119688
C44   C     C_R   0.334422 0.685577 0.054689 -0.159153
C45   C     C_R   0.557503 0.204425 0.596015 0.106969
C46   C     C_R   0.246037 0.670232 0.099400 -0.136852
C47   C     C_R   0.221722 0.695601 0.244439 -0.134372
C48   C     C_R   0.286231 0.734337 0.346029 -0.132241
C49   C     C_R   0.441674 0.795241 0.405289 0.107883
C50   C     C_R   0.441448 0.104337 0.404597 -0.304376
C51   C     C_R   0.557599 0.895708 0.596682 -0.306645
C52   C     C_R   0.558371 0.106399 0.596263 -0.308383
H1    H     H_    0.047275 0.559625 0.666802 0.132366
H2    H     H_    0.603915 0.929914 0.675839 0.137712
H3    H     H_    0.605592 0.074009 0.674179 0.136956
H4    H     H_    0.393839 0.925635 0.326018 0.137189
H5    H     H_    0.474729 0.264761 0.126154 0.121879
H6    H     H_    0.361916 0.313384 0.930185 0.142143
H7    H     H_    0.199338 0.312901 0.986159 0.130156
H8    H     H_    0.150139 0.266906 0.239958 0.136536
H9    H     H_    0.262922 0.224430 0.439081 0.127027
H10   H     H_    0.736882 0.780036 0.582022 0.110640
H11   H     H_    0.841968 0.713543 0.775190 0.128823
H12   H     H_    0.940312 0.357957 0.393499 0.129575
H13   H     H_    0.784290 0.659028 0.019336 0.130287
H14   H     H_    0.621823 0.672777 0.070170 0.144460
H15   H     H_    0.516199 0.735794 0.873935 0.118905
H16   H     H_    0.735822 0.235958 0.566318 0.109794
H17   H     H_    0.843264 0.309878 0.751960 0.133810
H18   H     H_    0.790726 0.359542 0.001614 0.129673
H19   H     H_    0.631021 0.333601 0.065639 0.140657
H20   H     H_    0.522898 0.262491 0.877548 0.117451
H21   H     H_    0.466503 0.738899 0.119841 0.117327
H22   H     H_    0.352926 0.667337 0.941604 0.136324
H23   H     H_    0.942276 0.656474 0.440791 0.128508
H24   H     H_    0.196206 0.639631 0.021250 0.122979
H25   H     H_    0.152924 0.685133 0.278277 0.142006
H26   H     H_    0.266535 0.754319 0.457779 0.124607
H27   H     H_    0.069474 0.456303 0.212172 0.131131
H28   H     H_    0.212055 0.553466 0.705118 0.121593
H29   H     H_    0.776721 0.354639 0.417412 0.148774
H30   H     H_    0.779299 0.652998 0.461761 0.155470
H31   H     H_    0.234833 0.455479 0.249195 0.155537
H32   H     H_    0.394260 0.070100 0.326860 0.139370
N1    N     N_R   0.500000 0.252470 0.500000 -0.127511
N2    N     N_R   0.500000 0.747530 0.500000 -0.126935
O1    O     O_R   0.369060 0.579480 0.500010 -0.614803
O2    O     O_R   0.630940 0.420520 0.499990 -0.618350
O3    O     O_R   0.630940 0.579480 0.499990 -0.619916
O4    O     O_R   0.369060 0.420520 0.500010 -0.617982
O5    O     O_R   0.500000 0.579460 0.285340 -0.623124
O6    O     O_R   0.500000 0.420540 0.714660 -0.619612
O7    O     O_R   0.500000 0.579460 0.714660 -0.622086
O8    O     O_R   0.500000 0.420540 0.285340 -0.627798
Zn1   Zn    Zn3+2 0.500000 0.606140 0.500000 0.940178
Zn2   Zn    Zn3+2 0.500000 0.393860 0.500000 0.939018

loop_
_geom_bond_atom_site_label_1
_geom_bond_atom_site_label_2
_ccdc_geom_bond_type
C43   H21   S    
O2    Zn2   S    
C1    O1    A    
C1    O4    A    
C40   H19   S    
C14   C18   A    
C4    C8    S    
C46   H24   S    
C50   H32   S    
C7    C8    T    
C15   H29   S    
C15   C19   A    
C1    C18   S    
C37   C38   A    
C36   C37   A    
C3    C7    S    
C10   C15   A    
C5    C6    S    
N1    Zn2   S    
C37   H16   S    
O6    Zn2   S    
C13   H27   S    
C3    O5    A    
C34   N2    A    
C48   H26   S    
C31   C32   A    
C24   H5    S    
O1    Zn1   S    
C5    C52   A    
C14   H28   S    
C6    C51   A    
C26   H7    S    
C52   H3    S    
C28   H9    S    
C38   H17   S    
O7    Zn1   S    
C22   C28   A    
C36   C41   A    
C2    C6    A    
C44   C46   A    
C33   H14   S    
C10   C21   A    
C12   O2    A    
C31   H11   S    
C12   O3    A    
C44   H22   S    
C24   C25   A    
C39   C40   A    
C23   C50   A    
C45   C52   A    
C25   C26   A    
C29   C34   S    
C11   C21   A    
C34   C51   A    
C17   H31   S    
O3    Zn1   S    
C45   N1    A    
C9    C14   A    
C29   C30   A    
C2    C49   A    
C11   C16   A    
C9    C20   A    
C47   C48   A    
C35   H15   S    
C30   C31   A    
C16   H30   S    
C17   C18   A    
C26   C27   A    
C36   C45   S    
C42   C48   A    
O8    Zn2   S    
C41   H20   S    
C40   C41   A    
C30   H10   S    
C43   C44   A    
C23   N1    A    
C22   C24   A    
C5    C50   A    
C9    H1    S    
C42   C43   A    
C47   H25   S    
C46   C47   A    
C13   C20   A    
C49   N2    A    
C10   H12   S    
O4    Zn2   S    
C29   C35   A    
C13   C17   A    
C27   H8    S    
C51   H2    S    
C32   C33   A    
C2    H4    S    
C38   C39   A    
C16   C19   A    
C12   C19   S    
C33   C35   A    
C39   H18   S    
C3    O8    A    
N2    Zn1   S    
C42   C49   S    
O5    Zn1   S    
C4    O7    A    
C20   C21   S    
C25   H6    S    
C27   C28   A    
C22   C23   S    
C11   H23   S    
C32   H13   S    
C4    O6    A    
