data_mof_unit_67526.cif
_audit_creation_date              2013-03-05T15:41:20-0500
_audit_creation_method            fapswitch 2.2
_symmetry_space_group_name_H-M    P1
_symmetry_Int_Tables_number       1
_space_group_crystal_system       triclinic
_cell_length_a                    10.717069
_cell_length_b                    8.85534
_cell_length_c                    7.481323
_cell_angle_alpha                 103.254764
_cell_angle_beta                  90.615458
_cell_angle_gamma                 93.059756
_cell_volume                      689.909736363

loop_
_atom_site_label
_atom_site_type_symbol
_atom_site_description
_atom_site_fract_x
_atom_site_fract_y
_atom_site_fract_z
_atom_type_partial_charge
O1    O     O_R   0.509190 0.286130 0.619780 -0.564460
O2    O     O_R   0.490810 0.713870 0.380220 -0.550594
O3    O     O_R   0.485310 0.256770 0.308360 -0.599644
O4    O     O_R   0.514690 0.743230 0.691640 -0.609761
C1    C     C_R   0.500210 0.200712 0.453095 0.803650
C2    C     C_R   0.510574 0.799757 0.545591 0.752056
O5    O     O_R   0.328790 0.514640 0.655680 -0.573291
O6    O     O_R   0.671210 0.485360 0.344320 -0.574326
O7    O     O_R   0.304910 0.485280 0.344260 -0.551112
O8    O     O_R   0.695090 0.514720 0.655740 -0.589405
C3    C     C_R   0.259422 0.502467 0.507855 0.816401
C4    C     C_R   0.739466 0.512426 0.494348 0.816852
Cu1   Cu    Cu3+1 0.514140 0.517380 0.684380 0.964469
Cu2   Cu    Cu3+1 0.485860 0.482620 0.315620 0.969203
N1    N     N_2   0.464560 0.456420 0.038510 -0.227940
N2    N     N_2   0.535440 0.543580 0.961490 -0.210694
C5    C     C_3   0.022827 0.445763 0.634203 0.485412
C6    C     C_3   0.973248 0.592671 0.371652 0.491505
C7    C     C_3   0.944613 0.371726 0.457708 -0.511188
C8    C     C_3   0.053434 0.666364 0.547574 -0.488092
H1    H     H_    0.899455 0.252710 0.417336 0.161516
H2    H     H_    0.096565 0.786221 0.591600 0.160670
C9    C     C_3   0.875325 0.522732 0.483249 -0.250610
C10   C     C_3   0.122370 0.513260 0.522033 -0.247721
C11   C     C_3   0.954120 0.596465 0.657943 0.444127
C12   C     C_3   0.042321 0.442885 0.346557 0.425849
H3    H     H_    0.398006 0.388228 0.952132 0.236791
H4    H     H_    0.601373 0.613947 0.047278 0.249960
C13   C     C_2   0.497051 0.033067 0.427389 0.214682
C14   C     C_2   0.527813 0.968067 0.567648 0.176477
O9    O     O_3   0.042440 0.374855 0.781452 -0.555466
C15   C     C_3   0.927198 0.304052 0.818962 -0.170569
H5    H     H_    0.902595 0.197186 0.711186 0.132527
H6    H     H_    0.849846 0.384430 0.835797 0.214493
H7    H     H_    0.934407 0.268770 0.949852 0.210275
O10   O     O_3   0.947742 0.664274 0.226208 -0.531317
C16   C     C_3   0.058288 0.746409 0.193011 -0.215860
H8    H     H_    0.139699 0.671887 0.175433 0.194333
H9    H     H_    0.075947 0.853059 0.303867 0.096909
H10   H     H_    0.049754 0.785829 0.064792 0.224817
O11   O     O_3   0.905997 0.677112 0.825962 -0.552269
C17   C     C_3   0.832306 0.799501 0.800717 0.145771
H11   H     H_    0.734646 0.773232 0.834997 0.204185
H12   H     H_    0.832966 0.820788 0.659351 0.117750
C18   C     C_3   0.874100 0.949129 0.933675 -0.909685
H13   H     H_    0.969195 0.984659 0.897261 0.241912
H14   H     H_    0.809180 0.040079 0.922972 0.236326
H15   H     H_    0.872487 0.933933 0.076832 0.268296
O12   O     O_3   0.091794 0.370027 0.176993 -0.525814
C19   C     C_3   0.117515 0.216497 0.180348 0.107482
H16   H     H_    0.029263 0.144870 0.174757 0.126454
H17   H     H_    0.169119 0.212220 0.308410 0.112421
C20   C     C_3   0.195316 0.148231 0.015468 -0.803892
H18   H     H_    0.293895 0.190761 0.044790 0.246367
H19   H     H_    0.189013 0.019695 0.987980 0.170068
H20   H     H_    0.162364 0.180866 0.889735 0.286404
O13   O     O_3   0.464851 0.944085 0.253883 -0.585947
C21   C     C_3   0.334827 0.912177 0.243975 -0.341251
H21   H     H_    0.285117 0.019894 0.277166 0.138783
H22   H     H_    0.303628 0.840479 0.340665 0.158707
H23   H     H_    0.308705 0.847174 0.102376 0.199481
O14   O     O_3   0.594195 0.057732 0.719580 -0.626324
C22   C     C_3   0.532710 0.053448 0.883931 -0.209692
H24   H     H_    0.574639 0.967465 0.949817 0.218702
H25   H     H_    0.429854 0.028482 0.865382 0.142037
H26   H     H_    0.549364 0.168449 0.979033 0.212805

loop_
_geom_bond_atom_site_label_1
_geom_bond_atom_site_label_2
_geom_bond_distance
_ccdc_geom_bond_type
N2    H4    1.029252 S    
C7    C9    1.538811 S    
O7    Cu2   1.954139 S    
C22   H25   1.113482 S    
C13   C14   1.353099 D    
Cu1   Cu2   2.716675 S    
O11   C17   1.419862 S    
N1    H3    1.027704 S    
O9    C15   1.415161 S    
C6    C12   1.528463 S    
O6    C4    1.301013 A    
C5    C11   1.534179 S    
C15   H5    1.110903 S    
O3    C1    1.302166 A    
C21   H23   1.108483 S    
C20   H19   1.107510 S    
C19   H16   1.105228 S    
C22   H26   1.104886 S    
O8    Cu1   1.954139 S    
C16   H9    1.110828 S    
C11   O11   1.413386 S    
C20   H18   1.104888 S    
C12   O12   1.407935 S    
O5    C3    1.306323 A    
O7    C3    1.301571 A    
C4    C9    1.458446 S    
O13   C21   1.404730 S    
O2    C2    1.303703 A    
O3    Cu2   1.987919 S    
C17   H12   1.116044 S    
O1    C1    1.301380 A    
O8    C4    1.298684 A    
O10   C16   1.411191 S    
C7    H1    1.110242 S    
C16   H8    1.112718 S    
C13   O13   1.384643 S    
C16   H10   1.097933 S    
C1    C13   1.451073 S    
C9    C11   1.540664 S    
C14   O14   1.391765 S    
C5    O9    1.406538 S    
Cu1   N2    2.041446 S    
C19   C20   1.521909 S    
O1    Cu1   1.990948 S    
C8    C11   1.542947 S    
C21   H22   1.109641 S    
C6    C9    1.538997 S    
C5    C10   1.542957 S    
C15   H7    1.097144 S    
C8    C10   1.552952 S    
C3    C10   1.480349 S    
O5    Cu1   1.993943 S    
C18   H14   1.107849 S    
C19   H17   1.110269 S    
C6    C8    1.555159 S    
O4    C2    1.303265 A    
O12   C19   1.407310 S    
C17   H11   1.105644 S    
C20   H20   1.105193 S    
O2    Cu2   1.990950 S    
O4    Cu1   1.987919 S    
C7    C12   1.540657 S    
Cu2   N1    2.041446 S    
O6    Cu2   1.993945 S    
C18   H15   1.109815 S    
C5    C7    1.548074 S    
C21   H21   1.097188 S    
C18   H13   1.105848 S    
C6    O10   1.410409 S    
C2    C14   1.462858 S    
O14   C22   1.408404 S    
N1    N2    1.286673 D    
C8    H2    1.110278 S    
C22   H24   1.108377 S    
C10   C12   1.546401 S    
C17   C18   1.506117 S    
C15   H6    1.110783 S    
