data_mof_unit_25806.cif
_audit_creation_date              2012-12-10T20:35:52-0500
_audit_creation_method            fapswitch 2.2
_symmetry_space_group_name_H-M    P1
_symmetry_Int_Tables_number       1
_space_group_crystal_system       triclinic
_cell_length_a                    15.739153
_cell_length_b                    10.695426
_cell_length_c                    9.864058
_cell_angle_alpha                 90.100954
_cell_angle_beta                  90.056968
_cell_angle_gamma                 89.954567
_cell_volume                      1660.48148295

loop_
_atom_site_label
_atom_site_type_symbol
_atom_type_description
_atom_site_fract_x
_atom_site_fract_y
_atom_site_fract_z
_atom_type_partial_charge
C1    C     C_R   0.497354 0.260113 0.499964 0.875884
C2    C     C_3   0.950133 0.409730 0.608944 -0.501404
C3    C     C_3   0.917402 0.501187 0.498758 0.155103
C4    C     C_3   0.951189 0.634716 0.532313 0.203527
C5    C     C_3   0.049468 0.634276 0.529537 -0.385595
C6    C     C_1   0.825835 0.501164 0.499615 -0.074248
C7    C     C_1   0.174201 0.500304 0.499903 -0.003441
C8    C     C_1   0.249478 0.500090 0.499871 -0.144106
C9    C     C_R   0.484999 0.064407 0.622707 0.016357
C10   C     C_R   0.484581 0.128949 0.500444 -0.055510
C11   C     C_R   0.469410 0.064578 0.378750 -0.207676
C12   C     C_R   0.338305 0.499949 0.499992 0.887288
C13   C     C_R   0.470299 0.935182 0.378836 -0.184851
C14   C     C_R   0.487083 0.871585 0.500354 -0.068055
C15   C     C_R   0.488199 0.937205 0.622348 -0.003054
C16   C     C_3   0.544215 0.934141 0.746676 0.373190
C17   C     C_3   0.539654 0.076973 0.746347 -0.540140
C18   C     C_R   0.461364 0.405617 0.070656 0.176281
C19   C     C_R   0.545322 0.585949 0.072242 -0.079703
C20   C     C_R   0.545545 0.585644 0.928235 -0.042366
C21   C     C_R   0.462036 0.405056 0.928243 0.116685
C22   C     C_3   0.371259 0.366672 0.919650 -0.500325
C23   C     C_R   0.497945 0.739969 0.500040 0.930214
C24   C     C_3   0.369717 0.368909 0.073912 0.210244
C25   C     C_R   0.661702 0.500298 0.500007 0.932763
C26   C     C_3   0.048577 0.406405 0.607336 0.294819
C27   C     C_3   0.049806 0.460191 0.358629 -0.446902
C28   C     C_3   0.951423 0.459338 0.357222 0.312576
C29   C     C_1   0.750545 0.500837 0.500035 -0.169877
C30   C     C_3   0.082762 0.500578 0.500117 0.093191
H1    H     H_    0.925051 0.313945 0.590143 0.222230
H2    H     H_    0.926070 0.438869 0.710308 0.183494
H3    H     H_    0.462282 0.113183 0.283123 0.162112
H4    H     H_    0.463148 0.886108 0.283328 0.182746
H5    H     H_    0.503995 0.117326 0.833321 0.205394
H6    H     H_    0.600909 0.124685 0.724190 0.191638
H7    H     H_    0.580559 0.656855 0.126718 0.164984
H8    H     H_    0.068623 0.310604 0.576521 0.162901
H9    H     H_    0.581447 0.655574 0.874075 0.188528
H10   H     H_    0.330421 0.438974 0.871463 0.253455
H11   H     H_    0.364167 0.271070 0.876777 0.163171
H12   H     H_    0.358809 0.276414 0.122551 0.084938
H13   H     H_    0.073464 0.525791 0.279658 0.170601
H14   H     H_    0.075104 0.365922 0.332321 0.210515
H15   H     H_    0.929467 0.526737 0.278178 0.143377
H16   H     H_    0.074738 0.669991 0.627522 0.152320
H17   H     H_    0.073095 0.699413 0.450055 0.223700
H18   H     H_    0.930483 0.661776 0.636686 0.109186
N1    N     N_R   0.499430 0.499140 0.142800 -0.092448
N2    N     N_R   0.499430 0.499180 0.857150 -0.105560
O1    O     O_R   0.500010 0.316790 0.614690 -0.614755
O2    O     O_R   0.500000 0.316760 0.385350 -0.637569
O3    O     O_R   0.377150 0.500020 0.614720 -0.619037
O4    O     O_R   0.377140 0.499990 0.385380 -0.560512
O5    O     O_R   0.500000 0.683240 0.614650 -0.608245
O6    O     O_R   0.499990 0.683210 0.385310 -0.626598
O7    O     O_R   0.622860 0.500010 0.614620 -0.614914
O8    O     O_R   0.622850 0.499980 0.385280 -0.616537
Zn1   Zn    Zn3+2 0.500010 0.500020 0.653130 0.975782
Zn2   Zn    Zn3+2 0.499990 0.499980 0.346870 0.992366
O9    O     O_3   0.082974 0.428046 0.737243 -0.750963
H19   H     H_    0.058886 0.507195 0.772925 0.339514
O10   O     O_3   0.920668 0.722868 0.438248 -0.750466
H20   H     H_    0.864201 0.751212 0.470901 0.343135
O11   O     O_3   0.503980 0.879500 0.859546 -0.772302
H21   H     H_    0.444831 0.911615 0.865149 0.338592
C31   C     C_2   0.633840 0.885835 0.728292 0.933623
O12   O     O_2   0.681790 0.883874 0.825862 -0.606398
O13   O     O_R   0.662822 0.845840 0.601466 -0.845838
H22   H     H_    0.723811 0.815387 0.604098 0.332659
O14   O     O_3   0.318124 0.465262 0.124019 -0.703092
H23   H     H_    0.259484 0.431321 0.124822 0.337587
O15   O     O_3   0.922583 0.338480 0.324284 -0.755633
H24   H     H_    0.865302 0.347780 0.283282 0.341450

loop_
_geom_bond_atom_site_label_1
_geom_bond_atom_site_label_2
_ccdc_geom_bond_type
C14   C23   S    
C26   H8    S    
C23   O5    A    
C17   H6    S    
O5    Zn1   S    
C18   C21   A    
C24   H12   S    
C9    C10   A    
C19   N1    A    
C19   C20   A    
C8    C12   S    
C3    C6    S    
C22   H10   S    
C2    C3    S    
O3    Zn1   S    
C13   H4    S    
C2    C26   S    
C16   C31   S    
O4    Zn2   S    
C21   C22   S    
O6    Zn2   S    
C27   C30   S    
C1    O1    A    
C4    O10   S    
C23   O6    A    
O13   H22   S    
N1    Zn2   S    
C25   O7    A    
C18   C24   S    
C28   O15   S    
C2    H2    S    
C9    C17   S    
C21   N2    A    
C5    H17   S    
C26   O9    S    
C17   H5    S    
C26   C30   S    
O1    Zn1   S    
C10   C11   A    
C25   C29   S    
O9    H19   S    
C1    O2    A    
C22   C24   S    
C28   H15   S    
O7    Zn1   S    
C11   C13   A    
C7    C8    T    
C25   O8    A    
N2    Zn1   S    
O8    Zn2   S    
C31   O12   D    
C22   H11   S    
C16   C17   S    
C27   H13   S    
C11   H3    S    
C6    C29   T    
O14   H23   S    
C1    C10   S    
C24   O14   S    
C3    C28   S    
O2    Zn2   S    
O11   H21   S    
O15   H24   S    
C4    H18   S    
C27   C28   S    
C7    C30   S    
C20   H9    S    
C14   C15   A    
C2    H1    S    
C20   N2    A    
C16   O11   S    
C19   H7    S    
C13   C14   A    
C31   O13   S    
O10   H20   S    
C5    C30   S    
C27   H14   S    
C15   C16   S    
C12   O4    A    
C3    C4    S    
C12   O3    A    
C18   N1    A    
C4    C5    S    
C5    H16   S    
C9    C15   A    
