data_mof_unit_43469.cif
_audit_creation_date              2012-12-10T18:50:54-0500
_audit_creation_method            fapswitch 2.2
_symmetry_space_group_name_H-M    P1
_symmetry_Int_Tables_number       1
_space_group_crystal_system       triclinic
_cell_length_a                    10.606575
_cell_length_b                    9.955311
_cell_length_c                    15.718297
_cell_angle_alpha                 89.754805
_cell_angle_beta                  93.706477
_cell_angle_gamma                 89.708124
_cell_volume                      1656.21176253

loop_
_atom_site_label
_atom_site_type_symbol
_atom_type_description
_atom_site_fract_x
_atom_site_fract_y
_atom_site_fract_z
_atom_type_partial_charge
C1    C     C_R   0.260710 0.500332 0.509538 0.895273
C2    C     C_R   0.935819 0.622289 0.474832 0.145362
C3    C     C_R   0.871182 0.499094 0.472225 -0.166332
C4    C     C_R   0.125623 0.501135 0.519444 -0.170809
C5    C     C_R   0.576999 0.071101 0.557927 0.200090
C6    C     C_R   0.577222 0.927437 0.557820 0.202254
C7    C     C_R   0.499720 0.500219 0.338672 0.886200
C8    C     C_R   0.423698 0.928877 0.441560 0.204372
C9    C     C_R   0.423168 0.072605 0.441777 0.212213
C10   C     C_R   0.737924 0.499726 0.487935 0.900462
C11   C     C_R   0.499466 0.499691 0.661479 0.889407
C12   C     C_3   0.614713 0.513165 0.953539 -0.509267
C13   C     C_3   0.392201 0.624063 0.049173 0.631920
C14   C     C_3   0.416191 0.356635 0.049027 0.599887
C15   C     C_3   0.425777 0.351085 0.946752 0.343252
C16   C     C_3   0.390609 0.622000 0.945737 0.302275
C17   C     C_1   0.490655 0.498685 0.749762 -0.218471
C18   C     C_3   0.481970 0.498214 0.082631 0.022816
C19   C     C_3   0.474594 0.495566 0.916411 0.092477
C20   C     C_3   0.253457 0.616960 0.902135 -0.857812
C21   C     C_3   0.296600 0.308561 0.899528 -0.781996
C22   C     C_3   0.342695 0.857688 0.373117 -0.841513
C23   C     C_3   0.625259 0.512380 0.052806 0.360120
C24   C     C_3   0.336918 0.144851 0.375663 -0.842525
C25   C     C_3   0.175800 0.699533 0.076098 0.106811
C26   C     C_3   0.153911 0.750251 0.165989 -0.352968
C27   C     C_3   0.053747 0.860971 0.164027 -0.986938
C28   C     C_3   0.242593 0.311907 0.142515 0.172151
C29   C     C_3   0.100805 0.337971 0.146117 -0.340980
C30   C     C_3   0.053760 0.294906 0.231897 -1.002689
C31   C     C_3   0.475521 0.226204 0.093359 -0.972900
C32   C     C_3   0.437595 0.762124 0.091114 -0.928855
C33   C     C_3   0.514390 0.235810 0.915414 -0.926343
C34   C     C_1   0.482039 0.497158 0.824545 -0.003446
C35   C     C_3   0.443176 0.756271 0.909080 -0.915519
C36   C     C_3   0.696780 0.642470 0.085388 -0.849976
C37   C     C_3   0.716055 0.396114 0.087535 -0.848335
C38   C     C_3   0.116560 0.249541 0.554711 -0.837620
C39   C     C_3   0.113169 0.755639 0.544291 -0.838444
C40   C     C_3   0.882653 0.246291 0.444048 -0.837956
C41   C     C_3   0.878013 0.749457 0.435255 -0.832938
C42   C     C_3   0.662095 0.141897 0.624395 -0.830007
C43   C     C_3   0.664976 0.855367 0.622988 -0.825909
C44   C     C_1   0.489128 0.498915 0.174605 -0.006928
C45   C     C_1   0.495384 0.500327 0.249998 -0.231411
C46   C     C_R   0.060850 0.377623 0.515032 0.142217
C47   C     C_R   0.059160 0.624193 0.510177 0.142738
C48   C     C_R   0.937748 0.376435 0.479335 0.146230
H1    H     H_    0.656661 0.604391 0.926794 0.186638
H2    H     H_    0.244431 0.896105 0.368824 0.200604
H3    H     H_    0.384263 0.871478 0.310694 0.219512
H4    H     H_    0.330865 0.252746 0.383514 0.292859
H5    H     H_    0.368114 0.124789 0.310815 0.216849
H6    H     H_    0.237917 0.111752 0.379231 0.200150
H7    H     H_    0.085802 0.654026 0.050561 0.137614
H8    H     H_    0.193366 0.783098 0.031722 0.132832
H9    H     H_    0.123152 0.665471 0.205807 0.225320
H10   H     H_    0.242633 0.790193 0.196701 0.229835
H11   H     H_    0.084561 0.948635 0.126771 0.264723
H12   H     H_    0.678382 0.437349 0.927530 0.191528
H13   H     H_    0.039564 0.894253 0.230103 0.265339
H14   H     H_    0.962480 0.823306 0.135033 0.266357
H15   H     H_    0.291933 0.364191 0.196615 0.156956
H16   H     H_    0.256128 0.201767 0.150066 0.129311
H17   H     H_    0.080063 0.446304 0.136211 0.240029
H18   H     H_    0.048677 0.281307 0.094304 0.213945
H19   H     H_    0.950716 0.314895 0.232438 0.274925
H20   H     H_    0.102866 0.352316 0.284594 0.271006
H21   H     H_    0.070803 0.185786 0.242760 0.268588
H22   H     H_    0.415330 0.138307 0.075894 0.234479
H23   H     H_    0.186683 0.558840 0.937777 0.249204
H24   H     H_    0.568652 0.194613 0.075115 0.243724
H25   H     H_    0.482522 0.234485 0.163859 0.226235
H26   H     H_    0.369919 0.845724 0.080177 0.215083
H27   H     H_    0.454024 0.753120 0.161230 0.239209
H28   H     H_    0.520137 0.808587 0.066271 0.227997
H29   H     H_    0.479977 0.134628 0.932675 0.243130
H30   H     H_    0.516379 0.236356 0.844812 0.250785
H31   H     H_    0.613125 0.238791 0.939698 0.221154
H32   H     H_    0.437813 0.755932 0.838252 0.258719
H33   H     H_    0.386248 0.844066 0.927823 0.234588
H34   H     H_    0.209371 0.718213 0.895292 0.216889
H35   H     H_    0.541946 0.778195 0.930013 0.221382
H36   H     H_    0.801137 0.631583 0.091188 0.223156
H37   H     H_    0.688447 0.727178 0.039933 0.205422
H38   H     H_    0.670084 0.672980 0.149563 0.247007
H39   H     H_    0.720549 0.309878 0.044995 0.207712
H40   H     H_    0.817422 0.423786 0.092483 0.227071
H41   H     H_    0.694415 0.362529 0.152307 0.244031
H42   H     H_    0.195046 0.270837 0.602877 0.245576
H43   H     H_    0.044212 0.196005 0.589801 0.222229
H44   H     H_    0.149883 0.182098 0.504941 0.249147
H45   H     H_    0.252112 0.576756 0.836409 0.235133
H46   H     H_    0.190278 0.738716 0.594433 0.248343
H47   H     H_    0.147529 0.817238 0.491827 0.248158
H48   H     H_    0.039702 0.813598 0.575806 0.222351
H49   H     H_    0.954650 0.191019 0.409441 0.229344
H50   H     H_    0.851708 0.181643 0.496205 0.247030
H51   H     H_    0.802305 0.265106 0.396574 0.248004
H52   H     H_    0.948419 0.802097 0.397950 0.223917
H53   H     H_    0.796980 0.726793 0.389350 0.246589
H54   H     H_    0.846874 0.817984 0.485247 0.247086
H55   H     H_    0.668992 0.249564 0.615397 0.294007
H56   H     H_    0.211414 0.358896 0.919189 0.249560
H57   H     H_    0.628384 0.123361 0.688802 0.220076
H58   H     H_    0.761009 0.106473 0.622745 0.197960
H59   H     H_    0.669152 0.747247 0.616097 0.293619
H60   H     H_    0.763924 0.887496 0.617320 0.197619
H61   H     H_    0.636334 0.876912 0.688265 0.219766
H62   H     H_    0.298294 0.320176 0.829316 0.217291
H63   H     H_    0.276391 0.201098 0.912402 0.226640
H64   H     H_    0.330764 0.751054 0.384534 0.293798
N1    N     N_R   0.499970 0.857200 0.499980 -0.115527
N2    N     N_R   0.499970 0.142800 0.499980 -0.115446
O1    O     O_R   0.316750 0.614620 0.499990 -0.620519
O2    O     O_3   0.282638 0.357437 0.062574 -0.616283
O3    O     O_R   0.316750 0.385380 0.499990 -0.618898
O4    O     O_R   0.499990 0.614720 0.377140 -0.619406
O5    O     O_R   0.499990 0.385280 0.377140 -0.625498
O6    O     O_R   0.683220 0.614710 0.500000 -0.619772
O7    O     O_R   0.683220 0.385290 0.500000 -0.620595
O8    O     O_R   0.499980 0.614620 0.622860 -0.619824
O9    O     O_R   0.499980 0.385380 0.622860 -0.620869
O10   O     O_3   0.269812 0.596529 0.079916 -0.609554
Zn1   Zn    Zn3+2 0.499980 0.653120 0.500000 0.919532
Zn2   Zn    Zn3+2 0.499980 0.346880 0.500000 0.917875

loop_
_geom_bond_atom_site_label_1
_geom_bond_atom_site_label_2
_ccdc_geom_bond_type
C24   H4    S    
C37   H40   S    
C5    C42   S    
C20   H34   S    
C5    N2    A    
C14   C18   S    
C13   C32   S    
C25   H8    S    
C14   C31   S    
C20   H45   S    
C10   O7    A    
C42   H55   S    
C40   H51   S    
C12   H1    S    
C35   H33   S    
C39   H46   S    
C4    C46   A    
C15   C19   S    
C12   C23   S    
C26   C27   S    
C13   C18   S    
C9    N2    A    
C7    C45   S    
C28   C29   S    
C16   C35   S    
C40   H50   S    
C5    C6    A    
N2    Zn2   S    
C33   H30   S    
C31   H25   S    
N1    Zn1   S    
C2    C41   S    
C24   H6    S    
C38   H44   S    
C3    C48   A    
C41   H54   S    
C42   H57   S    
C28   O2    S    
C21   H56   S    
C31   H22   S    
C8    C9    A    
C8    C22   S    
C20   H23   S    
O4    Zn1   S    
C27   H13   S    
O3    Zn2   S    
C30   H19   S    
C22   H2    S    
C7    O4    A    
C32   H27   S    
C21   H63   S    
C21   H62   S    
C46   C48   A    
C18   C23   S    
C7    O5    A    
C40   H49   S    
C13   O10   S    
C35   H35   S    
O6    Zn1   S    
C33   H31   S    
O9    Zn2   S    
C1    O3    A    
C36   H38   S    
C25   C26   S    
C23   C37   S    
C38   H43   S    
C28   H15   S    
C6    N1    A    
C29   C30   S    
C27   H14   S    
C18   C44   S    
C42   H58   S    
C16   C20   S    
C41   H52   S    
C43   H59   S    
C26   H10   S    
C39   H47   S    
C25   O10   S    
C8    N1    A    
C29   H17   S    
C28   H16   S    
C31   H24   S    
C22   H64   S    
C6    C43   S    
C36   H37   S    
C11   O8    A    
C17   C34   T    
C30   H21   S    
C44   C45   T    
C39   C47   S    
C40   C48   S    
C11   C17   S    
C37   H39   S    
C11   O9    A    
C25   H7    S    
C19   C34   S    
C32   H28   S    
C9    C24   S    
C2    C47   A    
C1    O1    A    
C38   H42   S    
O1    Zn1   S    
C37   H41   S    
C1    C4    S    
O8    Zn1   S    
C2    C3    A    
C24   H5    S    
O7    Zn2   S    
C3    C10   S    
C27   H11   S    
C32   H26   S    
C33   H29   S    
C36   H36   S    
C16   C19   S    
C14   O2    S    
C12   C19   S    
C41   H53   S    
C43   H60   S    
C26   H9    S    
C39   H48   S    
C38   C46   S    
C10   O6    A    
C29   H18   S    
C12   H12   S    
O5    Zn2   S    
C35   H32   S    
C15   C21   S    
C23   C36   S    
C13   C16   S    
C14   C15   S    
C43   H61   S    
C15   C33   S    
C30   H20   S    
C22   H3    S    
C4    C47   A    
