data_mof_unit_19935.cif
_audit_creation_date              2012-12-10T20:49:44-0500
_audit_creation_method            fapswitch 2.2
_symmetry_space_group_name_H-M    P1
_symmetry_Int_Tables_number       1
_space_group_crystal_system       triclinic
_cell_length_a                    8.113595
_cell_length_b                    8.934874
_cell_length_c                    16.753011
_cell_angle_alpha                 90.081542
_cell_angle_beta                  82.345908
_cell_angle_gamma                 89.89595
_cell_volume                      1203.6674071

loop_
_atom_site_label
_atom_site_type_symbol
_atom_type_description
_atom_site_fract_x
_atom_site_fract_y
_atom_site_fract_z
_atom_type_partial_charge
C1    C     C_R   0.499865 0.782007 0.500135 1.035389
C2    C     C_R   0.499909 0.218003 0.500630 0.883127
C3    C     C_1   0.499703 0.934821 0.500537 -0.072851
C4    C     C_1   0.499905 0.065191 0.500749 -0.099614
C5    C     C_R   0.472665 0.496910 0.653625 0.928481
C6    C     C_R   0.527222 0.497497 0.346355 0.936107
C7    C     C_R   0.443841 0.469935 0.739804 -0.140112
C8    C     C_R   0.554540 0.464600 0.260710 -0.139667
C9    C     C_R   0.491519 0.577434 0.794099 -0.041358
C10   C     C_R   0.525761 0.574892 0.204063 -0.052161
C11   C     C_R   0.473427 0.542166 0.875417 -0.184383
C12   C     C_R   0.538939 0.534232 0.123513 -0.182471
C13   C     C_R   0.405338 0.405559 0.903540 0.088925
C14   C     C_R   0.574488 0.386568 0.098883 0.090955
C15   C     C_R   0.346071 0.301565 0.851335 0.048843
C16   C     C_R   0.614082 0.277551 0.153678 0.043223
C17   C     C_R   0.370724 0.331755 0.767909 -0.078347
C18   C     C_R   0.603576 0.317149 0.235821 -0.088340
C19   C     C_2   0.408811 0.371788 0.988659 -0.212819
C20   C     C_2   0.558248 0.349305 0.014917 -0.199323
H1    H     H_    0.513763 0.616832 0.079240 0.124337
H2    H     H_    0.514565 0.621116 0.917889 0.127781
N1    N     N_1   0.926360 0.500000 0.499990 -0.019300
N2    N     N_1   0.073640 0.500000 0.500010 -0.019990
O1    O     O_R   0.363150 0.714660 0.500000 -0.600503
O2    O     O_R   0.636850 0.285340 0.500000 -0.632031
O3    O     O_R   0.636850 0.714660 0.500000 -0.599524
O4    O     O_R   0.363150 0.285340 0.500000 -0.628891
O5    O     O_R   0.346950 0.500000 0.615800 -0.642748
O6    O     O_R   0.653050 0.500000 0.384200 -0.639416
O7    O     O_R   0.620700 0.500000 0.615800 -0.584121
O8    O     O_R   0.379300 0.500000 0.384200 -0.583329
Zn1   Zn    Zn3+2 0.317220 0.500000 0.500010 1.035772
Zn2   Zn    Zn3+2 0.682780 0.500000 0.499990 1.035039
C21   C     C_2   0.261904 0.162861 0.885194 0.520503
H3    H     H_    0.293123 0.115534 0.940883 0.056752
O9    O     O_2   0.152093 0.103423 0.853238 -0.540478
C22   C     C_2   0.662326 0.124086 0.124156 0.494963
H4    H     H_    0.609863 0.077021 0.073396 0.038144
O10   O     O_2   0.765853 0.051082 0.153941 -0.529323
C23   C     C_2   0.561085 0.727265 0.769847 0.475801
H5    H     H_    0.610937 0.797138 0.813981 0.084063
O11   O     O_2   0.560746 0.776581 0.701979 -0.538854
C24   C     C_2   0.478768 0.732595 0.225226 0.496305
H6    H     H_    0.458787 0.810874 0.177903 0.079874
O12   O     O_2   0.461692 0.777875 0.294573 -0.531144
C25   C     C_2   0.631922 0.203283 0.297015 0.461920
H7    H     H_    0.713212 0.227771 0.341642 0.073304
O13   O     O_2   0.560706 0.082952 0.299270 -0.509551
C26   C     C_2   0.333552 0.215103 0.709416 0.455297
H8    H     H_    0.265913 0.243275 0.659971 0.078852
O14   O     O_2   0.382040 0.086626 0.715194 -0.507984
C27   C     C_2   0.712594 0.310295 0.959645 0.930445
O15   O     O_2   0.848768 0.337175 0.979860 -0.565578
O16   O     O_R   0.702943 0.238583 0.886149 -0.800050
H9    H     H_    0.816344 0.218129 0.854699 0.377183
C28   C     C_2   0.250602 0.389428 0.044443 0.949258
O17   O     O_2   0.140109 0.469804 0.025467 -0.559661
O18   O     O_R   0.226981 0.312593 0.117753 -0.788513
H10   H     H_    0.114277 0.333569 0.149817 0.361793

loop_
_geom_bond_atom_site_label_1
_geom_bond_atom_site_label_2
_ccdc_geom_bond_type
C17   C26   S    
C5    O7    A    
C6    O8    A    
O16   H9    S    
N2    Zn1   S    
C14   C20   S    
C25   O13   D    
C23   O11   D    
C23   H5    S    
C11   H2    S    
C9    C23   S    
C19   C20   D    
N1    N2    T    
N1    Zn2   S    
C1    O3    A    
C18   C25   S    
C27   O16   S    
C26   H8    S    
O7    Zn2   S    
O18   H10   S    
C2    O2    A    
C16   C22   S    
C27   O15   D    
C19   C28   S    
C1    O1    A    
C9    C11   A    
C28   O17   D    
C10   C12   A    
C6    C8    S    
C2    C4    S    
C16   C18   A    
C22   O10   D    
C12   C14   A    
O4    Zn1   S    
C5    C7    S    
C13   C15   A    
O3    Zn2   S    
C22   H4    S    
C14   C16   A    
C28   O18   S    
O2    Zn2   S    
O1    Zn1   S    
C13   C19   S    
C10   C24   S    
C3    C4    T    
C5    O5    A    
O5    Zn1   S    
C11   C13   A    
C24   H6    S    
C7    C9    A    
C15   C21   S    
C26   O14   D    
C15   C17   A    
O6    Zn2   S    
C2    O4    A    
C21   O9    D    
C12   H1    S    
C6    O6    A    
C8    C10   A    
C8    C18   A    
C25   H7    S    
O8    Zn1   S    
C24   O12   D    
C20   C27   S    
C1    C3    S    
C21   H3    S    
C7    C17   A    
