data_mof_unit_38079.cif
_audit_creation_date              2012-12-10T17:51:23-0500
_audit_creation_method            fapswitch 2.2
_symmetry_space_group_name_H-M    P1
_symmetry_Int_Tables_number       1
_space_group_crystal_system       triclinic
_cell_length_a                    10.0
_cell_length_b                    10.784618
_cell_length_c                    17.002078
_cell_angle_alpha                 96.019971
_cell_angle_beta                  86.787015
_cell_angle_gamma                 94.207741
_cell_volume                      1816.41996137

loop_
_atom_site_label
_atom_site_type_symbol
_atom_type_description
_atom_site_fract_x
_atom_site_fract_y
_atom_site_fract_z
_atom_type_partial_charge
C1    C     C_R   0.504961 0.737730 0.493279 0.883449
C2    C     C_R   0.529025 0.510085 0.262631 -0.108129
C3    C     C_R   0.337639 0.819177 0.378879 -0.156950
C4    C     C_R   0.482189 0.500417 0.651524 0.909659
C5    C     C_R   0.222764 0.852127 0.347713 -0.178797
C6    C     C_R   0.187545 0.973556 0.362018 -0.176233
C7    C     C_R   0.272031 0.065133 0.402941 -0.136519
C8    C     C_R   0.391685 0.034817 0.437272 0.000706
C9    C     C_R   0.415038 0.905929 0.429119 0.123877
C10   C     C_R   0.514984 0.864028 0.472168 -0.075698
C11   C     C_R   0.617049 0.945199 0.501283 -0.234512
C12   C     C_R   0.414635 0.599596 0.781062 -0.163404
C13   C     C_R   0.604615 0.070792 0.505591 -0.176791
C14   C     C_R   0.490465 0.119703 0.479016 -0.135581
C15   C     C_R   0.861963 0.605327 0.638214 0.487335
C16   C     C_R   0.495506 0.257802 0.492225 0.823190
C17   C     C_R   0.925981 0.606586 0.710964 -0.214140
C18   C     C_R   0.065263 0.610085 0.707480 -0.435649
C19   C     C_R   0.133369 0.610101 0.633886 0.570328
C20   C     C_R   0.069944 0.548554 0.566911 -0.093448
C21   C     C_R   0.926079 0.548347 0.567603 -0.049163
C22   C     C_R   0.930925 0.464271 0.434107 -0.205220
C23   C     C_R   0.445689 0.423337 0.137218 -0.223278
C24   C     C_R   0.074757 0.473911 0.431828 0.608268
C25   C     C_R   0.518101 0.505488 0.348094 0.889245
C26   C     C_R   0.467433 0.497821 0.735281 0.043110
C27   C     C_R   0.486498 0.387462 0.767830 -0.284608
C28   C     C_R   0.458716 0.380104 0.848516 0.069947
C29   C     C_R   0.420657 0.488891 0.895793 0.154202
C30   C     C_R   0.392611 0.595664 0.861739 -0.203055
C31   C     C_2   0.235475 0.189753 0.396691 1.002651
C32   C     C_3   0.789298 0.806544 0.658143 0.084451
C33   C     C_3   0.662291 0.869660 0.689626 -0.328494
C34   C     C_R   0.433746 0.436894 0.218283 -0.214911
C35   C     C_3   0.689929 0.010684 0.706719 -0.899787
C36   C     C_2   0.853671 0.630790 0.789262 0.955855
C37   C     C_3   0.226328 0.814685 0.647562 0.036032
C38   C     C_3   0.149820 0.868758 0.584786 -0.369580
C39   C     C_3   0.131091 0.007535 0.606073 -0.919018
C40   C     C_3   0.099270 0.495492 0.295379 0.033445
C41   C     C_3   0.048914 0.387496 0.235988 -0.322798
C42   C     C_3   0.026107 0.431540 0.155737 -0.928229
C43   C     C_2   0.732493 0.669103 0.266321 0.884846
C44   C     C_3   0.742606 0.382097 0.981375 0.090331
C45   C     C_R   0.636267 0.577532 0.223678 -0.033970
C46   C     C_3   0.840564 0.349699 0.911141 -0.288953
C47   C     C_3   0.915410 0.234881 0.922078 -0.934603
C48   C     C_2   0.467384 0.259191 0.882081 0.874420
C49   C     C_R   0.645793 0.564306 0.140673 -0.221991
C50   C     C_R   0.550124 0.488392 0.098003 0.035157
C51   C     C_2   0.431644 0.500676 0.980726 -0.255149
C52   C     C_2   0.549180 0.485754 0.011907 0.454533
H1    H     H_    0.518223 0.306695 0.729809 0.149213
H2    H     H_    0.120366 0.636251 0.760438 0.213017
H3    H     H_    0.361474 0.678159 0.898115 0.154889
H4    H     H_    0.370769 0.364073 0.104862 0.180756
H5    H     H_    0.395635 0.683438 0.754785 0.147661
H6    H     H_    0.342650 0.522615 0.017848 0.127406
H7    H     H_    0.396771 0.224307 0.323950 0.267920
H8    H     H_    0.834584 0.851510 0.606632 0.126991
H9    H     H_    0.863399 0.823803 0.705080 0.122775
H10   H     H_    0.583231 0.850017 0.645998 0.211111
H11   H     H_    0.623111 0.830673 0.744963 0.245905
H12   H     H_    0.723524 0.617534 0.109038 0.189621
H13   H     H_    0.749173 0.032351 0.760399 0.287170
H14   H     H_    0.593129 0.055292 0.716430 0.293513
H15   H     H_    0.746468 0.050531 0.656147 0.243963
H16   H     H_    0.677832 0.649820 0.850822 0.365549
H17   H     H_    0.326048 0.866880 0.651954 0.161359
H18   H     H_    0.174772 0.830933 0.707062 0.137493
H19   H     H_    0.205057 0.855629 0.526868 0.258576
H20   H     H_    0.050516 0.817808 0.578273 0.187025
H21   H     H_    0.072759 0.022387 0.663433 0.257349
H22   H     H_    0.075277 0.043116 0.559407 0.281351
H23   H     H_    0.703245 0.911703 0.524946 0.168194
H24   H     H_    0.230189 0.060963 0.610250 0.270554
H25   H     H_    0.184667 0.548631 0.266868 0.171847
H26   H     H_    0.021145 0.563845 0.310139 0.135011
H27   H     H_    0.123683 0.315435 0.227329 0.242449
H28   H     H_    0.953617 0.342543 0.259349 0.210307
H29   H     H_    0.947250 0.499384 0.161541 0.296786
H30   H     H_    0.992654 0.350153 0.114389 0.252421
H31   H     H_    0.120581 0.475525 0.130459 0.265371
H32   H     H_    0.768730 0.792362 0.361577 0.343365
H33   H     H_    0.677613 0.296434 0.992380 0.155909
H34   H     H_    0.364822 0.724299 0.364181 0.161957
H35   H     H_    0.801070 0.412761 0.034472 0.147639
H36   H     H_    0.784632 0.331269 0.855952 0.250136
H37   H     H_    0.914730 0.430199 0.904523 0.253414
H38   H     H_    0.974435 0.251798 0.976008 0.267020
H39   H     H_    0.985433 0.214616 0.870039 0.269922
H40   H     H_    0.843487 0.152234 0.927142 0.278029
H41   H     H_    0.407565 0.149265 0.968310 0.342457
H42   H     H_    0.161570 0.783788 0.311833 0.157887
H43   H     H_    0.097789 0.998268 0.335932 0.160208
H44   H     H_    0.684474 0.129493 0.533792 0.178557
H45   H     H_    0.877915 0.430536 0.381710 0.151630
H46   H     H_    0.349333 0.388601 0.245648 0.230442
N1    N     N_R   0.857140 0.501200 0.500750 -0.109203
N2    N     N_R   0.142740 0.501280 0.500770 -0.117148
O1    O     O_R   0.385310 0.683220 0.500000 -0.596941
O2    O     O_R   0.314520 0.265423 0.349015 -0.761895
O3    O     O_3   0.755107 0.678807 0.633671 -0.575471
O4    O     O_2   0.916180 0.653485 0.849536 -0.641605
O5    O     O_R   0.714153 0.628375 0.794570 -0.786711
O6    O     O_3   0.249234 0.686974 0.625666 -0.603574
O7    O     O_3   0.148726 0.446675 0.361530 -0.574304
O8    O     O_2   0.843532 0.694263 0.235847 -0.671541
O9    O     O_R   0.694611 0.731842 0.339226 -0.813139
O10   O     O_3   0.666092 0.479749 0.963456 -0.638762
O11   O     O_2   0.538396 0.180296 0.848692 -0.670151
O12   O     O_R   0.614640 0.683250 0.500010 -0.560202
O13   O     O_R   0.392612 0.234338 0.951344 -0.835408
O14   O     O_R   0.371780 0.500010 0.615800 -0.590498
O15   O     O_R   0.601110 0.500030 0.615800 -0.552205
O16   O     O_R   0.385360 0.316750 0.499990 -0.590260
O17   O     O_R   0.614690 0.316780 0.500000 -0.616803
O18   O     O_R   0.398890 0.499970 0.384200 -0.549994
O19   O     O_R   0.628220 0.499990 0.384200 -0.617110
O20   O     O_2   0.130622 0.224208 0.428770 -0.611113
Zn1   Zn    Zn3+2 0.346870 0.499980 0.499990 1.053418
Zn2   Zn    Zn3+2 0.653130 0.500020 0.500010 1.012122

loop_
_geom_bond_atom_site_label_1
_geom_bond_atom_site_label_2
_ccdc_geom_bond_type
C35   H15   S    
C37   H17   S    
C41   C42   S    
C4    O15   A    
C19   C20   A    
C42   H30   S    
C25   O18   A    
C41   H28   S    
C5    H42   S    
C23   H4    S    
C46   H37   S    
C26   C27   A    
C29   C30   A    
C4    O14   A    
C28   C29   A    
C32   H9    S    
C18   C19   A    
C1    O12   A    
C38   C39   S    
C21   N1    A    
C35   H13   S    
C16   O16   A    
N2    Zn1   S    
C47   H40   S    
C39   H22   S    
C34   H46   S    
C46   C47   S    
O14   Zn1   S    
C33   H10   S    
C50   C52   S    
C17   C36   S    
C45   C49   A    
C44   H35   S    
C9    C10   A    
C2    C34   A    
C49   H12   S    
C37   H18   S    
C3    H34   S    
C42   H29   S    
C25   O19   A    
C44   C46   S    
C46   H36   S    
C2    C45   A    
C38   H20   S    
C7    C31   S    
O16   Zn1   S    
C1    C10   S    
C13   H44   S    
C51   C52   D    
C31   O2    S    
C7    C8    A    
O15   Zn2   S    
C51   H6    S    
C8    C9    A    
C23   C50   A    
C35   H14   S    
O1    Zn1   S    
C12   C26   A    
O18   Zn1   S    
O17   Zn2   S    
O12   Zn2   S    
C37   C38   S    
C3    C9    A    
C20   N2    A    
C52   O10   S    
C33   H11   S    
C23   C34   A    
C17   C18   A    
C32   O3    S    
C24   O7    S    
H41   O13   S    
C39   H24   S    
C43   C45   S    
N1    Zn2   S    
C12   H5    S    
C40   H26   S    
C40   C41   S    
C49   C50   A    
C40   O7    S    
C47   H38   S    
C22   C24   A    
H16   O5    S    
C32   H8    S    
C44   H33   S    
C1    O1    A    
C29   C51   S    
O19   Zn2   S    
C15   C17   A    
C38   H19   S    
C28   C48   S    
C8    C14   A    
C22   N1    A    
C12   C30   A    
C36   O5    S    
C24   N2    A    
H7    O2    S    
C47   H39   S    
C42   H31   S    
C3    C5    A    
C41   H27   S    
C4    C26   S    
C27   H1    S    
C6    C7    A    
C30   H3    S    
H32   O9    S    
C36   O4    D    
C32   C33   S    
C37   O6    S    
C11   H23   S    
C16   O17   A    
C11   C13   A    
C5    C6    A    
C33   C35   S    
C2    C25   S    
C14   C16   S    
C43   O8    D    
C39   H21   S    
C31   O20   D    
C10   C11   A    
C18   H2    S    
C19   O6    S    
C15   C21   A    
C48   O11   D    
C20   C21   A    
C6    H43   S    
C27   C28   A    
C22   H45   S    
C40   H25   S    
C43   O9    S    
C15   O3    S    
C13   C14   A    
C48   O13   S    
C44   O10   S    
