data_mof_unit_62344.cif
_audit_creation_date              2013-03-05T16:14:15-0500
_audit_creation_method            fapswitch 2.2
_symmetry_space_group_name_H-M    P1
_symmetry_Int_Tables_number       1
_space_group_crystal_system       triclinic
_cell_length_a                    44.996978
_cell_length_b                    39.051563
_cell_length_c                    21.913546
_cell_angle_alpha                 89.307915
_cell_angle_beta                  60.173741
_cell_angle_gamma                 89.811902
_cell_volume                      33403.2640385

loop_
_atom_site_label
_atom_site_type_symbol
_atom_site_description
_atom_site_fract_x
_atom_site_fract_y
_atom_site_fract_z
_atom_type_partial_charge
O1    O     O_R   0.049910 0.528880 0.450120 -0.586201
O2    O     O_R   0.950090 0.528880 0.549880 -0.591531
O3    O     O_R   0.549910 0.028880 0.450120 -0.586201
O4    O     O_R   0.450090 0.028880 0.549880 -0.591531
O5    O     O_R   0.049900 0.471110 0.450110 -0.588408
O6    O     O_R   0.950100 0.471110 0.549890 -0.584712
O7    O     O_R   0.549900 0.971110 0.450110 -0.588408
O8    O     O_R   0.450100 0.971110 0.549890 -0.584712
C1    C     C_R   0.066232 0.500034 0.433580 0.783396
C2    C     C_R   0.933763 0.499953 0.566326 0.786841
C3    C     C_R   0.566232 0.000034 0.433580 0.783396
C4    C     C_R   0.433763 0.999954 0.566326 0.786841
O9    O     O_R   0.999990 0.528880 0.589040 -0.579754
O10   O     O_R   0.000010 0.528880 0.410960 -0.583121
O11   O     O_R   0.499990 0.028880 0.589040 -0.579754
O12   O     O_R   0.500010 0.028880 0.410960 -0.583121
O13   O     O_R   0.999990 0.471110 0.589030 -0.576534
O14   O     O_R   0.000010 0.471110 0.410970 -0.574568
O15   O     O_R   0.499990 0.971110 0.589030 -0.576534
O16   O     O_R   0.500010 0.971110 0.410970 -0.574568
C5    C     C_R   0.998919 0.499689 0.618640 0.848860
C6    C     C_R   0.000988 0.500312 0.381476 0.856815
C7    C     C_R   0.498919 0.999689 0.618640 0.848860
C8    C     C_R   0.500988 0.000312 0.381476 0.856815
Cu1   Cu    Cu3+1 0.000000 0.534200 0.500000 0.966731
Cu2   Cu    Cu3+1 0.500000 0.034200 0.500000 0.966732
Cu3   Cu    Cu3+1 0.000000 0.465790 0.500000 0.979849
Cu4   Cu    Cu3+1 0.500000 0.965790 0.500000 0.979849
C9    C     C_2   0.977576 0.518986 0.805823 -0.144744
C10   C     C_2   0.023126 0.482241 0.193562 -0.080714
C11   C     C_2   0.477576 0.018986 0.805823 -0.144744
C12   C     C_2   0.523126 0.982240 0.193562 -0.080714
C13   C     C_2   0.001977 0.503604 0.814227 -0.257084
C14   C     C_2   0.998071 0.496513 0.185774 -0.298971
C15   C     C_2   0.501977 0.003604 0.814227 -0.257084
C16   C     C_2   0.498071 0.996513 0.185774 -0.298971
H1    H     H_    0.955844 0.530937 0.850122 0.164204
H2    H     H_    0.045533 0.471501 0.148717 0.200855
H3    H     H_    0.455844 0.030937 0.850122 0.164204
H4    H     H_    0.545533 0.971501 0.148717 0.200855
H5    H     H_    0.025482 0.494981 0.768862 0.153392
H6    H     H_    0.974166 0.504016 0.231521 0.150867
H7    H     H_    0.525482 0.994981 0.768862 0.153392
H8    H     H_    0.474166 0.004016 0.231521 0.150867
C17   C     C_2   0.980899 0.522298 0.735641 -0.154542
C18   C     C_2   0.019792 0.478534 0.263659 -0.150506
C19   C     C_2   0.480899 0.022298 0.735641 -0.154542
C20   C     C_2   0.519792 0.978534 0.263659 -0.150506
C21   C     C_2   0.996525 0.498028 0.687274 -0.299276
C22   C     C_2   0.003132 0.502053 0.313139 -0.323383
C23   C     C_2   0.496525 0.998028 0.687274 -0.299276
C24   C     C_2   0.503132 0.002053 0.313139 -0.323383
H9    H     H_    0.968775 0.543912 0.725142 0.166562
H10   H     H_    0.032835 0.457437 0.273136 0.176043
H11   H     H_    0.468775 0.043912 0.725142 0.166562
H12   H     H_    0.532835 0.957437 0.273136 0.176043
H13   H     H_    0.005300 0.474596 0.700404 0.172054
H14   H     H_    0.993462 0.525159 0.301033 0.155489
H15   H     H_    0.505300 0.974596 0.700404 0.172054
H16   H     H_    0.493462 0.025159 0.301033 0.155489
C25   C     C_R   0.377572 0.491599 0.071737 -0.161496
C26   C     C_R   0.622280 0.499405 0.931170 -0.162778
C27   C     C_R   0.877572 0.991599 0.071737 -0.161496
C28   C     C_R   0.122280 0.999405 0.931170 -0.162778
H17   H     H_    0.390747 0.484671 0.016748 0.166685
H18   H     H_    0.609024 0.497482 0.988030 0.167711
H19   H     H_    0.890747 0.984671 0.016749 0.166685
H20   H     H_    0.109024 0.997482 0.988030 0.167711
C29   C     C_R   0.341892 0.491355 0.108905 -0.212601
C30   C     C_R   0.657941 0.500313 0.894628 -0.212460
C31   C     C_R   0.841892 0.991355 0.108905 -0.212601
C32   C     C_R   0.157941 0.000313 0.894628 -0.212459
H21   H     H_    0.328159 0.484458 0.081870 0.160022
H22   H     H_    0.671442 0.498635 0.923970 0.156303
H23   H     H_    0.828159 0.984458 0.081870 0.160022
H24   H     H_    0.171442 0.998635 0.923970 0.156303
C33   C     C_R   0.323901 0.499990 0.180234 -0.037754
C34   C     C_R   0.676166 0.502697 0.820941 -0.024499
C35   C     C_R   0.823901 0.999990 0.180234 -0.037754
C36   C     C_R   0.176166 0.002697 0.820941 -0.024498
C37   C     C_R   0.342070 0.509309 0.215055 0.354888
C38   C     C_R   0.658061 0.504695 0.783485 0.350437
C39   C     C_R   0.842070 0.009309 0.215055 0.354889
C40   C     C_R   0.158061 0.004695 0.783485 0.350436
C41   C     C_R   0.378077 0.509120 0.176808 -0.236271
C42   C     C_R   0.622138 0.503191 0.820958 -0.229101
C43   C     C_R   0.878077 0.009121 0.176808 -0.236271
C44   C     C_R   0.122138 0.003191 0.820958 -0.229100
H25   H     H_    0.392248 0.516013 0.202881 0.196384
H26   H     H_    0.608290 0.504876 0.792352 0.196032
H27   H     H_    0.892248 0.016013 0.202881 0.196383
H28   H     H_    0.108290 0.004876 0.792352 0.196032
C45   C     C_R   0.395979 0.500263 0.105445 -0.095750
C46   C     C_R   0.604036 0.500698 0.894721 -0.097527
C47   C     C_R   0.895979 0.000262 0.105445 -0.095750
C48   C     C_R   0.104036 0.000698 0.894721 -0.097527
C49   C     C_R   0.268823 0.528966 0.212651 -0.131691
C50   C     C_R   0.731998 0.476900 0.733660 -0.082134
C51   C     C_R   0.768823 0.028966 0.212652 -0.131691
C52   C     C_R   0.231997 0.976900 0.733660 -0.082134
H29   H     H_    0.282876 0.551616 0.183872 0.140345
H30   H     H_    0.718424 0.458193 0.720490 0.148413
H31   H     H_    0.782876 0.051617 0.183872 0.140345
H32   H     H_    0.218424 0.958193 0.720490 0.148413
C53   C     C_R   0.233085 0.528930 0.246678 -0.165636
C54   C     C_R   0.767714 0.476228 0.698963 -0.159176
C55   C     C_R   0.733085 0.028931 0.246679 -0.165637
C56   C     C_R   0.267714 0.976228 0.698963 -0.159176
H33   H     H_    0.220186 0.551573 0.242679 0.133926
H34   H     H_    0.781116 0.457302 0.658682 0.139181
H35   H     H_    0.720186 0.051573 0.242679 0.133926
H36   H     H_    0.281116 0.957302 0.658682 0.139181
C57   C     C_R   0.214317 0.499838 0.284711 0.091045
C58   C     C_R   0.785900 0.500233 0.715125 0.088893
C59   C     C_R   0.714317 0.999838 0.284711 0.091045
C60   C     C_R   0.285900 0.000233 0.715125 0.088893
C61   C     C_R   0.232182 0.470633 0.286968 -0.159412
C62   C     C_R   0.767651 0.524665 0.767192 -0.167137
C63   C     C_R   0.732182 0.970633 0.286967 -0.159413
C64   C     C_R   0.267651 0.024665 0.767192 -0.167137
H37   H     H_    0.218569 0.447998 0.316562 0.135942
H38   H     H_    0.780988 0.543107 0.781497 0.135247
H39   H     H_    0.718569 0.947998 0.316561 0.135942
H40   H     H_    0.280988 0.043107 0.781497 0.135248
C65   C     C_R   0.267918 0.470588 0.252231 -0.090160
C66   C     C_R   0.731947 0.525350 0.801766 -0.146311
C67   C     C_R   0.767918 0.970588 0.252231 -0.090158
C68   C     C_R   0.231947 0.025350 0.801766 -0.146311
H41   H     H_    0.281265 0.447943 0.254717 0.144550
H42   H     H_    0.718358 0.544526 0.841402 0.139610
H43   H     H_    0.781265 0.947943 0.254716 0.144550
H44   H     H_    0.218358 0.044526 0.841402 0.139610
C69   C     C_R   0.286306 0.499901 0.215792 0.140264
C70   C     C_R   0.713920 0.501725 0.784665 0.136492
C71   C     C_R   0.786306 0.999901 0.215792 0.140264
C72   C     C_R   0.213920 0.001725 0.784665 0.136492
C73   C     C_R   0.157919 0.470365 0.325416 -0.159557
C74   C     C_R   0.841843 0.469031 0.661996 -0.158997
C75   C     C_R   0.657919 0.970365 0.325416 -0.159557
C76   C     C_R   0.341843 0.969031 0.661996 -0.158997
H45   H     H_    0.171147 0.447227 0.299023 0.132838
H46   H     H_    0.828309 0.444818 0.678731 0.135499
H47   H     H_    0.671147 0.947227 0.299022 0.132838
H48   H     H_    0.328309 0.944818 0.678731 0.135499
C77   C     C_R   0.122168 0.470346 0.361871 -0.170705
C78   C     C_R   0.877595 0.468957 0.625871 -0.165165
C79   C     C_R   0.622168 0.970346 0.361871 -0.170706
C80   C     C_R   0.377595 0.968957 0.625871 -0.165165
H49   H     H_    0.108746 0.447126 0.363231 0.156704
H50   H     H_    0.890805 0.444644 0.615048 0.160848
H51   H     H_    0.608746 0.947126 0.363230 0.156704
H52   H     H_    0.390806 0.944644 0.615048 0.160848
C81   C     C_R   0.104015 0.500083 0.395262 -0.034798
C82   C     C_R   0.895973 0.499925 0.604399 -0.036808
C83   C     C_R   0.604015 0.000083 0.395262 -0.034798
C84   C     C_R   0.395973 0.999925 0.604399 -0.036808
C85   C     C_R   0.122279 0.529828 0.391661 -0.173981
C86   C     C_R   0.877904 0.530946 0.619742 -0.177458
C87   C     C_R   0.622279 0.029828 0.391662 -0.173982
C88   C     C_R   0.377904 0.030946 0.619742 -0.177458
H53   H     H_    0.108936 0.553063 0.417324 0.157487
H54   H     H_    0.891335 0.555231 0.603663 0.158907
H55   H     H_    0.608936 0.053063 0.417324 0.157487
H56   H     H_    0.391335 0.055231 0.603663 0.158907
C89   C     C_R   0.158040 0.529739 0.355929 -0.148367
C90   C     C_R   0.842184 0.531005 0.655740 -0.151084
C91   C     C_R   0.658040 0.029739 0.355929 -0.148367
C92   C     C_R   0.342184 0.031005 0.655740 -0.151084
H57   H     H_    0.171356 0.552828 0.355650 0.138673
H58   H     H_    0.828944 0.555280 0.665876 0.138887
H59   H     H_    0.671356 0.052828 0.355651 0.138674
H60   H     H_    0.328944 0.055280 0.665876 0.138887
C93   C     C_R   0.176296 0.500011 0.322299 0.105653
C94   C     C_R   0.823793 0.500061 0.677267 0.105791
C95   C     C_R   0.676296 0.000011 0.322299 0.105653
C96   C     C_R   0.323793 0.000061 0.677267 0.105791
O17   O     O_R   0.971110 0.450090 0.028870 -0.555512
O18   O     O_R   0.028890 0.450090 0.971130 -0.560357
O19   O     O_R   0.471110 0.950090 0.028870 -0.555512
O20   O     O_R   0.528890 0.950090 0.971130 -0.560357
C97   C     C_R   0.999955 0.433874 0.999789 0.944682
C98   C     C_R   0.499955 0.933873 0.999789 0.944682
O21   O     O_R   0.971120 0.500000 0.939830 -0.558557
O22   O     O_R   0.028880 0.500000 0.060170 -0.570603
O23   O     O_R   0.471120 0.000000 0.939830 -0.558557
O24   O     O_R   0.528880 1.000000 0.060170 -0.570603
O25   O     O_R   0.028890 0.500000 0.882090 -0.594868
O26   O     O_R   0.971110 0.500000 0.117910 -0.589541
O27   O     O_R   0.528890 1.000000 0.882090 -0.594868
O28   O     O_R   0.471110 0.000000 0.117910 -0.589541
C99   C     C_R   0.000315 0.501230 0.882126 0.891562
C100  C     C_R   0.999698 0.499078 0.117898 0.889551
C101  C     C_R   0.500315 0.001230 0.882126 0.891562
C102  C     C_R   0.499698 0.999078 0.117898 0.889551
Cu5   Cu    Cu3+1 0.965790 0.500000 0.034190 1.022422
Cu6   Cu    Cu3+1 0.034210 0.500000 0.965810 1.015873
Cu7   Cu    Cu3+1 0.465790 0.000000 0.034190 1.022422
Cu8   Cu    Cu3+1 0.534210 0.000000 0.965810 1.015872
O29   O     O_R   0.971120 0.549910 0.028870 -0.599811
O30   O     O_R   0.028880 0.549910 0.971130 -0.595456
O31   O     O_R   0.471120 0.049910 0.028870 -0.599811
O32   O     O_R   0.528880 0.049910 0.971130 -0.595457
C103  C     C_R   0.000040 0.566233 0.000026 0.764707
C104  C     C_R   0.500040 0.066233 0.000026 0.764707
O33   O     O_R   0.499990 0.450020 0.051430 -0.583817
O34   O     O_R   0.500010 0.450020 0.948570 -0.584229
O35   O     O_R   0.999990 0.950020 0.051430 -0.583817
O36   O     O_R   0.000010 0.950020 0.948570 -0.584229
C105  C     C_R   0.500028 0.433694 0.000290 0.803175
C106  C     C_R   0.000028 0.933694 0.000290 0.803175
O37   O     O_R   0.450090 0.499930 0.101420 -0.580718
O38   O     O_R   0.549910 0.499930 0.898580 -0.581676
O39   O     O_R   0.950090 0.999930 0.101420 -0.580718
O40   O     O_R   0.049910 0.999930 0.898580 -0.581676
O41   O     O_R   0.450100 0.500000 0.998350 -0.586337
O42   O     O_R   0.549900 0.500000 0.001650 -0.587432
O43   O     O_R   0.950100 1.000000 0.998350 -0.586338
O44   O     O_R   0.049900 1.000000 0.001650 -0.587432
C107  C     C_R   0.433775 0.500058 0.066560 0.813792
C108  C     C_R   0.566232 0.500083 0.933445 0.815404
C109  C     C_R   0.933775 0.000058 0.066560 0.813792
C110  C     C_R   0.066232 0.000083 0.933445 0.815404
Cu9   Cu    Cu3+1 0.499990 0.499920 0.061020 0.979111
Cu10  Cu    Cu3+1 0.500010 0.499920 0.938980 0.979418
Cu11  Cu    Cu3+1 0.999990 0.999920 0.061020 0.979111
Cu12  Cu    Cu3+1 0.000010 0.999920 0.938980 0.979418
O45   O     O_R   0.500000 0.549840 0.051640 -0.584440
O46   O     O_R   0.500000 0.549840 0.948360 -0.584535
O47   O     O_R   0.000000 0.049840 0.051640 -0.584440
O48   O     O_R   0.000000 0.049840 0.948360 -0.584535
C111  C     C_R   0.500007 0.566113 0.999661 0.784579
C112  C     C_R   0.000007 0.066113 0.999661 0.784579
C113  C     C_R   0.510459 0.622013 0.039963 -0.170335
C114  C     C_R   0.489707 0.622041 0.956904 -0.170884
C115  C     C_R   0.010459 0.122013 0.039963 -0.170335
C116  C     C_R   0.989707 0.122041 0.956904 -0.170885
H61   H     H_    0.518662 0.608609 0.072572 0.155739
H62   H     H_    0.481454 0.608649 0.924887 0.155694
H63   H     H_    0.018662 0.108609 0.072572 0.155739
H64   H     H_    0.981454 0.108649 0.924887 0.155694
C117  C     C_R   0.510802 0.657752 0.038704 -0.156082
C118  C     C_R   0.489500 0.657790 0.956596 -0.156680
C119  C     C_R   0.010802 0.157752 0.038704 -0.156082
C120  C     C_R   0.989500 0.157790 0.956596 -0.156679
H65   H     H_    0.518940 0.671273 0.070784 0.138094
H66   H     H_    0.481403 0.671344 0.923956 0.137930
H67   H     H_    0.018940 0.171273 0.070784 0.138094
H68   H     H_    0.981403 0.171344 0.923956 0.137930
C121  C     C_R   0.500197 0.675890 0.997240 0.100510
C122  C     C_R   0.000197 0.175890 0.997240 0.100510
C123  C     C_R   0.500052 0.603844 0.998831 -0.032583
C124  C     C_R   0.000052 0.103844 0.998831 -0.032583
C125  C     C_R   0.471174 0.731786 0.007047 -0.168842
C126  C     C_R   0.529414 0.731749 0.985609 -0.169829
C127  C     C_R   0.971174 0.231786 0.007047 -0.168842
C128  C     C_R   0.029414 0.231749 0.985609 -0.169829
H69   H     H_    0.448305 0.718254 0.016258 0.141235
H70   H     H_    0.552275 0.718199 0.976554 0.140808
H71   H     H_    0.948305 0.218254 0.016258 0.141235
H72   H     H_    0.052275 0.218199 0.976554 0.140808
C129  C     C_R   0.971047 0.267524 0.007598 -0.155534
C130  C     C_R   0.029508 0.267480 0.985052 -0.156751
C131  C     C_R   0.471047 0.767524 0.007598 -0.155534
C132  C     C_R   0.529508 0.767480 0.985052 -0.156751
H73   H     H_    0.947872 0.280781 0.017874 0.144471
H74   H     H_    0.052654 0.280719 0.974902 0.143937
H75   H     H_    0.447872 0.780781 0.017874 0.144471
H76   H     H_    0.552654 0.780719 0.974902 0.143937
C133  C     C_R   0.000241 0.285819 0.996506 0.140613
C134  C     C_R   0.500241 0.785819 0.996506 0.140613
C135  C     C_R   0.500279 0.713654 0.996489 0.088908
C136  C     C_R   0.000279 0.213654 0.996489 0.088908
C137  C     C_R   0.017154 0.341542 0.026247 -0.209993
C138  C     C_R   0.982913 0.342565 0.969388 -0.210106
C139  C     C_R   0.517154 0.841542 0.026247 -0.209993
C140  C     C_R   0.482913 0.842565 0.969388 -0.210106
H77   H     H_    0.029588 0.327417 0.050105 0.177664
H78   H     H_    0.970512 0.329258 0.944993 0.177620
H79   H     H_    0.529588 0.827417 0.050105 0.177664
H80   H     H_    0.470512 0.829258 0.944993 0.177620
C141  C     C_R   0.017077 0.377381 0.027948 0.304915
C142  C     C_R   0.982743 0.378452 0.969491 0.296141
C143  C     C_R   0.517077 0.877381 0.027948 0.304915
C144  C     C_R   0.482743 0.878452 0.969491 0.296141
C145  C     C_R   0.999875 0.396156 0.999157 -0.270767
C146  C     C_R   0.499875 0.896156 0.999157 -0.270767
C147  C     C_R   0.000121 0.323844 0.997313 -0.024971
C148  C     C_R   0.500121 0.823844 0.997313 -0.024971
C149  C     C_R   0.504124 0.377869 0.942141 -0.166331
C150  C     C_R   0.496208 0.377582 0.060012 -0.167625
C151  C     C_R   0.004123 0.877869 0.942142 -0.166330
C152  C     C_R   0.996209 0.877582 0.060011 -0.167625
H81   H     H_    0.507298 0.391299 0.895739 0.161347
H82   H     H_    0.493004 0.390802 0.106051 0.160451
H83   H     H_    0.007296 0.891299 0.895741 0.161347
H84   H     H_    0.993006 0.890802 0.106049 0.160451
C153  C     C_R   0.504259 0.342159 0.942548 -0.055937
C154  C     C_R   0.496138 0.341848 0.060511 -0.054538
C155  C     C_R   0.004258 0.842159 0.942549 -0.055937
C156  C     C_R   0.996139 0.841848 0.060510 -0.054538
H85   H     H_    0.507511 0.328630 0.896762 0.141680
H86   H     H_    0.492876 0.328068 0.106657 0.141577
H87   H     H_    0.007509 0.828630 0.896763 0.141680
H88   H     H_    0.992878 0.828067 0.106655 0.141577
C157  C     C_R   0.500187 0.323990 0.001767 0.199984
C158  C     C_R   0.000187 0.823990 0.001767 0.199985
C159  C     C_R   0.500123 0.395934 0.000857 -0.047177
C160  C     C_R   0.000123 0.895934 0.000857 -0.047177
C161  C     C_R   0.526216 0.267835 0.006478 0.311677
C162  C     C_R   0.473872 0.268170 0.997965 0.311736
C163  C     C_R   0.026217 0.767835 0.006475 0.311678
C164  C     C_R   0.973871 0.768170 0.997968 0.311737
C165  C     C_R   0.025516 0.731969 0.007401 -0.222368
C166  C     C_R   0.974599 0.732329 0.996615 -0.223107
C167  C     C_R   0.525515 0.231969 0.007404 -0.222367
C168  C     C_R   0.474600 0.232329 0.996612 -0.223105
H89   H     H_    0.045229 0.717962 0.011676 0.182045
H90   H     H_    0.954902 0.718613 0.992135 0.181682
H91   H     H_    0.545228 0.217962 0.011681 0.182044
H92   H     H_    0.454904 0.218613 0.992129 0.181681
C169  C     C_R   0.000080 0.714038 0.001837 -0.031727
C170  C     C_R   0.500080 0.214038 0.001837 -0.031728
C171  C     C_R   0.500059 0.286215 0.002235 -0.177401
C172  C     C_R   0.000059 0.786215 0.002235 -0.177402
C173  C     C_R   0.030923 0.658077 0.963210 -0.152559
C174  C     C_R   0.969304 0.657750 0.039152 -0.153470
C175  C     C_R   0.530923 0.158077 0.963212 -0.152559
C176  C     C_R   0.469304 0.157750 0.039150 -0.153471
H93   H     H_    0.054992 0.671589 0.932833 0.142469
H94   H     H_    0.945237 0.670977 0.069922 0.142156
H95   H     H_    0.554993 0.171589 0.932836 0.142469
H96   H     H_    0.445236 0.170977 0.069918 0.142156
C177  C     C_R   0.030927 0.622351 0.962821 -0.178561
C178  C     C_R   0.969280 0.622043 0.038483 -0.181417
C179  C     C_R   0.530927 0.122351 0.962824 -0.178561
C180  C     C_R   0.469280 0.122043 0.038481 -0.181416
H97   H     H_    0.055062 0.609142 0.932694 0.161133
H98   H     H_    0.945129 0.608596 0.068276 0.160804
H99   H     H_    0.555062 0.109142 0.932698 0.161133
H100  H     H_    0.445128 0.108596 0.068272 0.160805
C181  C     C_R   0.000094 0.603992 0.000377 -0.030693
C182  C     C_R   0.500094 0.103992 0.000377 -0.030693
C183  C     C_R   0.000113 0.676135 0.001434 0.149965
C184  C     C_R   0.500113 0.176135 0.001434 0.149965
N1    N     N_R   0.033406 0.394146 0.061619 0.129399
O49   O     O_R   0.060831 0.381069 0.058179 -0.351362
O50   O     O_R   0.018203 0.419289 0.104398 -0.396053
N2    N     N_R   0.966102 0.396362 0.937048 0.134059
O51   O     O_R   0.938759 0.383491 0.940040 -0.340327
O52   O     O_R   0.980827 0.422635 0.895926 -0.378117
N3    N     N_R   0.533406 0.894146 0.061619 0.129399
O53   O     O_R   0.560831 0.881069 0.058179 -0.351362
O54   O     O_R   0.518203 0.919289 0.104398 -0.396053
N4    N     N_R   0.466102 0.896362 0.937048 0.134059
O55   O     O_R   0.438759 0.883491 0.940040 -0.340327
O56   O     O_R   0.480827 0.922635 0.895926 -0.378117
N5    N     N_R   0.554005 0.285036 0.008367 0.125463
O57   O     O_R   0.568094 0.271232 0.042111 -0.343045
O58   O     O_R   0.568232 0.312049 0.969277 -0.343801
N6    N     N_R   0.446068 0.285691 0.996282 0.125228
O59   O     O_R   0.431915 0.272568 0.962558 -0.344692
O60   O     O_R   0.431916 0.312266 0.035485 -0.345535
N7    N     N_R   0.054006 0.785036 0.008361 0.125462
O61   O     O_R   0.068097 0.771232 0.042102 -0.343045
O62   O     O_R   0.068233 0.812049 0.969270 -0.343801
N8    N     N_R   0.946066 0.785691 0.996288 0.125229
O63   O     O_R   0.931912 0.772568 0.962567 -0.344693
O64   O     O_R   0.931915 0.812266 0.035492 -0.345536
N9    N     N_R   0.324914 0.519575 0.287794 0.124332
O65   O     O_R   0.341199 0.537573 0.311568 -0.342801
O66   O     O_R   0.293861 0.509533 0.331910 -0.340047
N10   N     N_R   0.675471 0.509400 0.708290 0.112296
O67   O     O_R   0.702331 0.529123 0.676849 -0.337144
O68   O     O_R   0.662069 0.497546 0.672092 -0.343713
N11   N     N_R   0.824914 0.019575 0.287794 0.124331
O69   O     O_R   0.841199 0.037573 0.311568 -0.342801
O70   O     O_R   0.793861 0.009533 0.331910 -0.340047
N12   N     N_R   0.175471 0.009400 0.708290 0.112296
O71   O     O_R   0.202331 0.029123 0.676849 -0.337144
O72   O     O_R   0.162069 0.997546 0.672092 -0.343713

loop_
_geom_bond_atom_site_label_1
_geom_bond_atom_site_label_2
_geom_bond_distance
_ccdc_geom_bond_type
C166  H90   1.083049 S    
C51   H31   1.083272 S    
N5    O57   1.301443 A    
C128  C130  1.395255 A    
Cu9   Cu10  2.673882 S    
C138  C142  1.401458 A    
C176  H96   1.082886 S    
C28   C32   1.392417 A    
C2    C82   1.475233 S    
C162  C168  1.400242 A    
C131  H75   1.082498 S    
C86   C90   1.394408 A    
C33   C69   1.468875 S    
C117  H65   1.083221 S    
C4    C84   1.475233 S    
C82   C86   1.404652 A    
C43   H27   1.082927 S    
C156  C158  1.401486 A    
C9    C13   1.339545 D    
C52   H32   1.083230 S    
N10   O67   1.301376 A    
C10   H2    1.086161 S    
C154  H86   1.083247 S    
C113  H61   1.083023 S    
O40   C110  1.296714 A    
C78   H50   1.082877 S    
C131  C134  1.406989 A    
C140  H80   1.082827 S    
C161  N5    1.440188 S    
C14   H6    1.086394 S    
C74   C94   1.404638 A    
O35   C106  1.295254 A    
C173  H93   1.082870 S    
C112  C124  1.473366 S    
O4    C4    1.295335 A    
C79   C83   1.403901 A    
C173  C183  1.404839 A    
O43   Cu12  1.957001 S    
C49   C53   1.396141 A    
C168  C170  1.400396 A    
C119  C122  1.403068 A    
Cu10  O46   1.962704 S    
C164  N8    1.440267 S    
C176  C184  1.404587 A    
O20   C98   1.293466 A    
C27   H19   1.082997 S    
C89   H57   1.082540 S    
C90   C94   1.404313 A    
C117  C121  1.403068 A    
C42   H26   1.082994 S    
C26   H18   1.082896 S    
C91   H59   1.082537 S    
C162  C171  1.417962 A    
O16   Cu4   1.959274 S    
C50   H30   1.083230 S    
O33   Cu9   1.962494 S    
O13   C5    1.286461 A    
O7    Cu4   1.958491 S    
C163  N7    1.440185 S    
C151  H83   1.082840 S    
C73   C93   1.406029 A    
C34   C38   1.416591 A    
C78   C82   1.404833 A    
C177  H97   1.082906 S    
C76   C96   1.404638 A    
O37   Cu9   1.961630 S    
C64   C68   1.394708 A    
O9    C5    1.293817 A    
C47   C109  1.475471 S    
O48   C112  1.298164 A    
C34   C70   1.475226 S    
C115  C119  1.395572 A    
C27   C31   1.392918 A    
C137  C147  1.401646 A    
C16   H8    1.086394 S    
C37   N9    1.444566 S    
C157  C171  1.475087 S    
C35   C71   1.468875 S    
C144  N4    1.438552 S    
O17   Cu5   1.960717 S    
C118  C121  1.403027 A    
O3    Cu2   1.960125 S    
C40   C44   1.403426 A    
N11   O69   1.301681 A    
C63   H39   1.082426 S    
C149  C159  1.405805 A    
C141  N1    1.437710 S    
C50   C54   1.395112 A    
C13   C99   1.453985 S    
C149  C153  1.394469 A    
C14   C100  1.454604 S    
C137  C141  1.400474 A    
C130  C133  1.406953 A    
C175  H95   1.082872 S    
N2    O51   1.301407 A    
C87   C91   1.396078 A    
C25   C29   1.392918 A    
C88   C92   1.394408 A    
C67   H43   1.083309 S    
O3    C3    1.295907 A    
Cu5   Cu6   2.671080 S    
C65   H41   1.083308 S    
C58   C94   1.479359 S    
C66   C70   1.401858 A    
C151  C160  1.405802 A    
O23   Cu7   1.959557 S    
N12   O71   1.301376 A    
C158  C172  1.475087 S    
O46   C111  1.298164 A    
O28   Cu7   1.964669 S    
O45   C111  1.297466 A    
C174  C178  1.394686 A    
C29   C33   1.401610 A    
N3    O53   1.301392 A    
C49   C69   1.399298 A    
C111  C123  1.473366 S    
C31   C35   1.401610 A    
C161  C167  1.400733 A    
C26   C30   1.392417 A    
C28   H20   1.082896 S    
C53   C57   1.407782 A    
O47   C112  1.297466 A    
Cu9   O45   1.957768 S    
C126  C135  1.402132 A    
C21   H13   1.086401 S    
C62   H38   1.082843 S    
C85   H53   1.083009 S    
C59   C95   1.484494 S    
C24   H16   1.086443 S    
O36   Cu12  1.957447 S    
O5    Cu3   1.958491 S    
C41   C45   1.404370 A    
C127  C129  1.395787 A    
O34   Cu10  1.957447 S    
C43   C47   1.404370 A    
Cu8   O32   1.960757 S    
C139  C143  1.400474 A    
C129  C133  1.406989 A    
C3    C83   1.474918 S    
C125  C131  1.395787 A    
C17   H9    1.086329 S    
C143  C146  1.416236 A    
C115  C124  1.404517 A    
C116  C124  1.404738 A    
C153  C157  1.401114 A    
N6    O59   1.301453 A    
C169  C183  1.480304 S    
Cu5   O29   1.959522 S    
C127  C136  1.402316 A    
C52   C56   1.395112 A    
C10   C14   1.340066 D    
C83   C87   1.403751 A    
O13   Cu3   1.964263 S    
C152  H84   1.082827 S    
O20   Cu8   1.959479 S    
C28   C48   1.401956 A    
C85   C89   1.396078 A    
C140  C144  1.401458 A    
Cu12  O48   1.962704 S    
O18   Cu6   1.959479 S    
C60   C64   1.405568 A    
C149  H81   1.082837 S    
C79   H51   1.083025 S    
O5    C1    1.295326 A    
C25   H17   1.082998 S    
C20   C24   1.338732 D    
O8    C4    1.296085 A    
O15   Cu4   1.964263 S    
C114  C118  1.396012 A    
C57   C61   1.407699 A    
C90   H58   1.082906 S    
C59   C63   1.407691 A    
C163  C165  1.400733 A    
C91   C95   1.406354 A    
O38   Cu10  1.961628 S    
C92   C96   1.404314 A    
C53   H33   1.082480 S    
C132  C134  1.406953 A    
C75   C95   1.406026 A    
C150  H82   1.082827 S    
C55   H35   1.082475 S    
C10   C18   1.472586 S    
C80   H52   1.082877 S    
C114  C123  1.404737 A    
C165  H89   1.083062 S    
O37   C107  1.296238 A    
C45   C107  1.475471 S    
O10   C6    1.285616 A    
C144  C146  1.416947 A    
C32   C36   1.402925 A    
C74   C78   1.395681 A    
O17   C97   1.293582 A    
C128  H72   1.083243 S    
N10   O68   1.301428 A    
Cu7   Cu8   2.671080 S    
O39   Cu11  1.961630 S    
C154  C157  1.401489 A    
C175  C184  1.404836 A    
O27   C101  1.286148 A    
C142  C145  1.416947 A    
N4    O55   1.301407 A    
C153  H85   1.083298 S    
C11   C19   1.473390 S    
C61   C65   1.395515 A    
C9    C17   1.473390 S    
C52   C72   1.402634 A    
N9    O66   1.300586 A    
C63   C67   1.395519 A    
C8    C24   1.452706 S    
C39   C43   1.406020 A    
C44   C48   1.404542 A    
O25   Cu6   1.964671 S    
C143  N3    1.437710 S    
C150  C154  1.395385 A    
C36   C40   1.416591 A    
O41   Cu10  1.957001 S    
C175  C179  1.395288 A    
C118  H66   1.083198 S    
O32   C104  1.295468 A    
C88   H56   1.082890 S    
C73   C77   1.395603 A    
C67   C71   1.399826 A    
C68   C72   1.401858 A    
C167  C170  1.400497 A    
C170  C184  1.480304 S    
C25   C45   1.400915 A    
C66   H42   1.083266 S    
C142  N2    1.438552 S    
C27   C47   1.400916 A    
C114  H62   1.083013 S    
N8    O63   1.301453 A    
O39   C109  1.296238 A    
C126  C132  1.395255 A    
O26   Cu5   1.964669 S    
C174  H94   1.082885 S    
O21   Cu5   1.959557 S    
N7    O61   1.301448 A    
O22   C100  1.293318 A    
C29   H21   1.083717 S    
N1    O50   1.300288 A    
C97   C145  1.473177 S    
Cu6   O30   1.960757 S    
C6    C22   1.452706 S    
O19   C98   1.293582 A    
C19   H11   1.086329 S    
N5    O58   1.301352 A    
O14   C6    1.293971 A    
O29   C103  1.294898 A    
C12   C20   1.472586 S    
C139  C148  1.401646 A    
C5    C21   1.454085 S    
O24   C102  1.293318 A    
C141  C145  1.416236 A    
C22   H14   1.086443 S    
O42   C108  1.296622 A    
O1    C1    1.295907 A    
C105  C159  1.474488 S    
O43   C109  1.296799 A    
C74   H46   1.082869 S    
C134  C148  1.485191 S    
C41   H25   1.082924 S    
C19   C23   1.339639 D    
C38   C42   1.403426 A    
C103  C181  1.474701 S    
C137  H77   1.082841 S    
C56   H36   1.082783 S    
C139  H79   1.082841 S    
C129  H73   1.082498 S    
O41   C107  1.296799 A    
C178  H98   1.082916 S    
O38   C108  1.296714 A    
C17   C21   1.339639 D    
C18   H10   1.086382 S    
N2    O52   1.300720 A    
C51   C71   1.399296 A    
C48   C110  1.475856 S    
C26   C46   1.401956 A    
C11   C15   1.339545 D    
C152  C156  1.395385 A    
N12   O72   1.301426 A    
C12   C16   1.340066 D    
C113  C123  1.404517 A    
C140  C148  1.401901 A    
C39   N11   1.444564 S    
C73   H45   1.082539 S    
C115  H63   1.083023 S    
C76   H48   1.082869 S    
C164  C172  1.417965 A    
O6    C2    1.296085 A    
O4    Cu2   1.958893 S    
N3    O54   1.300288 A    
C84   C88   1.404652 A    
C51   C55   1.396137 A    
C167  H91   1.083062 S    
C36   C72   1.475226 S    
O26   C100  1.286632 A    
C168  H92   1.083050 S    
C13   H5    1.086356 S    
C56   C60   1.405444 A    
C16   C102  1.454604 S    
O42   Cu9   1.956975 S    
C176  C180  1.394686 A    
O22   Cu6   1.959555 S    
C35   C39   1.418548 A    
C125  C135  1.402316 A    
C164  C166  1.400246 A    
O2    Cu1   1.958893 S    
O10   Cu1   1.964487 S    
C81   C85   1.403750 A    
Cu11  O47   1.957768 S    
O18   C97   1.293466 A    
C15   C101  1.453985 S    
C104  C182  1.474701 S    
C92   H60   1.082906 S    
C9    H1    1.086319 S    
O24   Cu8   1.959555 S    
O23   C101  1.293656 A    
C138  C147  1.401901 A    
C80   C84   1.404833 A    
C155  H87   1.083300 S    
C77   H49   1.083027 S    
C156  H88   1.083249 S    
O27   Cu8   1.964671 S    
C31   H23   1.083718 S    
C30   C34   1.402925 A    
C121  C135  1.474629 S    
O15   C7    1.286461 A    
C122  C136  1.474629 S    
C180  H100  1.082917 S    
C76   C80   1.395681 A    
N6    O60   1.301369 A    
C163  C172  1.418032 A    
O7    C3    1.295326 A    
C128  C136  1.402132 A    
C75   C79   1.395603 A    
C150  C159  1.405818 A    
C120  C122  1.403027 A    
C54   C58   1.405444 A    
C162  N6    1.440268 S    
C126  H70   1.083243 S    
C89   C93   1.406350 A    
C61   H37   1.082428 S    
C30   H22   1.083558 S    
C42   C46   1.404542 A    
O35   Cu11  1.962494 S    
O16   C8    1.293971 A    
C180  C182  1.404534 A    
Cu7   O31   1.959522 S    
C33   C37   1.418546 A    
C151  C155  1.394469 A    
O44   Cu11  1.956975 S    
O25   C99   1.286148 A    
C152  C160  1.405819 A    
C77   C81   1.403900 A    
O11   C7    1.293817 A    
C177  C181  1.404497 A    
O12   C8    1.285616 A    
O1    Cu1   1.960125 S    
N7    O62   1.301350 A    
O9    Cu1   1.959492 S    
C75   H47   1.082539 S    
O40   Cu12  1.961628 S    
C174  C183  1.404585 A    
C68   H44   1.083265 S    
C46   C108  1.475856 S    
O44   C110  1.296622 A    
N8    O64   1.301367 A    
N11   O70   1.300588 A    
C127  H71   1.083221 S    
C60   C96   1.479359 S    
C44   H28   1.082994 S    
C106  C160  1.474488 S    
C86   H54   1.082890 S    
O11   Cu2   1.959492 S    
O19   Cu7   1.960717 S    
C116  H64   1.083011 S    
C125  H69   1.083221 S    
C98   C146  1.473177 S    
C166  C169  1.400392 A    
C7    C23   1.454085 S    
O6    Cu3   1.959732 S    
O33   C105  1.295254 A    
C132  H76   1.082521 S    
C120  H68   1.083198 S    
Cu11  Cu12  2.673882 S    
C32   H24   1.083558 S    
C55   C59   1.407789 A    
C58   C62   1.405566 A    
C178  C181  1.404536 A    
C113  C117  1.395572 A    
N4    O56   1.300720 A    
O31   C104  1.294898 A    
C87   H55   1.083006 S    
C23   H15   1.086401 S    
O2    C2    1.295335 A    
C15   H7    1.086356 S    
C57   C93   1.484494 S    
N9    O65   1.301679 A    
C54   H34   1.082783 S    
C65   C69   1.399827 A    
C20   H12   1.086382 S    
C138  H78   1.082827 S    
C133  C147  1.485191 S    
O14   Cu3   1.959274 S    
C165  C169  1.400499 A    
O12   Cu2   1.964487 S    
O21   C99   1.293656 A    
C130  H74   1.082521 S    
C155  C158  1.401115 A    
Cu1   Cu3   2.671517 S    
C18   C22   1.338732 D    
Cu2   Cu4   2.671517 S    
C116  C120  1.396012 A    
C179  H99   1.082908 S    
O34   C105  1.294019 A    
C173  C177  1.395288 A    
O30   C103  1.295468 A    
O8    Cu4   1.959732 S    
C11   H3    1.086319 S    
C50   C70   1.402634 A    
C12   H4    1.086161 S    
C161  C171  1.418030 A    
C119  H67   1.083221 S    
C37   C41   1.406020 A    
O28   C102  1.286632 A    
C1    C81   1.474918 S    
O36   C106  1.294019 A    
C62   C66   1.394708 A    
N1    O49   1.301392 A    
C40   N12   1.439522 S    
C38   N10   1.439520 S    
C179  C182  1.404496 A    
C49   H29   1.083273 S    
C64   H40   1.082840 S    
