data_mof_unit_50576.cif
_audit_creation_date              2012-12-10T17:13:34-0500
_audit_creation_method            fapswitch 2.2
_symmetry_space_group_name_H-M    P1
_symmetry_Int_Tables_number       1
_space_group_crystal_system       triclinic
_cell_length_a                    10.788564
_cell_length_b                    13.005473
_cell_length_c                    11.644324
_cell_angle_alpha                 100.809003
_cell_angle_beta                  95.122063
_cell_angle_gamma                 90.112584
_cell_volume                      1598.13120211

loop_
_atom_site_label
_atom_site_type_symbol
_atom_type_description
_atom_site_fract_x
_atom_site_fract_y
_atom_site_fract_z
_atom_type_partial_charge
C1    C     C_R   0.496715 0.298142 0.476857 0.784313
C2    C     C_3   0.879638 0.494744 0.506185 0.000218
C3    C     C_3   0.935714 0.608237 0.521679 -0.067067
C4    C     C_3   0.912708 0.433291 0.383505 -0.450358
C5    C     C_R   0.502606 0.814638 0.535782 -0.049933
C6    C     C_R   0.493453 0.182970 0.460069 -0.108795
C7    C     C_R   0.484890 0.007594 0.341541 -0.220865
C8    C     C_R   0.482399 0.116022 0.346558 0.078910
C9    C     C_R   0.502092 0.139246 0.562033 -0.300479
C10   C     C_R   0.502098 0.031573 0.554539 0.178077
C11   C     C_R   0.494269 0.965935 0.443471 0.138776
C12   C     C_R   0.260049 0.493303 0.497689 0.771365
C13   C     C_R   0.495169 0.858290 0.434767 -0.262705
C14   C     C_R   0.509934 0.879739 0.647003 -0.220024
C15   C     C_R   0.510252 0.988141 0.656333 -0.215207
C16   C     C_R   0.378432 0.407994 0.017708 -0.326733
C17   C     C_R   0.389867 0.415548 0.140118 0.067717
C18   C     C_R   0.553523 0.540697 0.160445 0.013353
C19   C     C_R   0.545961 0.536447 0.036452 0.009459
C20   C     C_R   0.456960 0.467795 0.964812 0.050092
C21   C     C_R   0.448000 0.460306 0.841564 0.009775
C22   C     C_R   0.608325 0.587785 0.857661 0.045044
C23   C     C_R   0.501853 0.701157 0.522323 0.809198
C24   C     C_R   0.623575 0.598293 0.982018 -0.034240
C25   C     C_R   0.740700 0.496616 0.501335 0.774075
C26   C     C_3   0.084424 0.422153 0.588504 -0.116731
C27   C     C_3   0.940983 0.432621 0.602305 -0.039430
C28   C     C_3   0.079198 0.601661 0.537070 -0.434059
C29   C     C_3   0.053906 0.441013 0.366382 0.328508
C30   C     C_3   0.122271 0.486812 0.494094 0.023517
Cu1   Cu    Cu3+1 0.509350 0.507730 0.615930 0.915574
Cu2   Cu    Cu3+1 0.490650 0.492270 0.384070 0.912382
H1    H     H_    0.132599 0.465838 0.671934 0.162229
H2    H     H_    0.857870 0.461692 0.310559 0.186443
H3    H     H_    0.121998 0.657960 0.490498 0.154863
H4    H     H_    0.909162 0.635650 0.438030 0.156467
H5    H     H_    0.489454 0.808467 0.348510 0.148815
H6    H     H_    0.516082 0.847090 0.726284 0.154778
H7    H     H_    0.479200 0.953591 0.258450 0.127989
H8    H     H_    0.516918 0.037763 0.742531 0.134259
H9    H     H_    0.509017 0.189058 0.648280 0.162841
H10   H     H_    0.380548 0.407023 0.786420 0.114091
H11   H     H_    0.664199 0.633760 0.812934 0.118850
H12   H     H_    0.308241 0.355727 0.964683 0.131954
H13   H     H_    0.328696 0.369277 0.179240 0.115653
H14   H     H_    0.620175 0.592304 0.218583 0.119664
H15   H     H_    0.893207 0.355164 0.581453 0.139055
H16   H     H_    0.113423 0.628581 0.631046 0.172846
H17   H     H_    0.881174 0.350382 0.374823 0.144477
N1    N     N_R   0.523430 0.519360 0.790130 -0.189749
N2    N     N_R   0.476570 0.480640 0.209880 -0.174380
O1    O     O_R   0.506640 0.354460 0.582000 -0.580586
O2    O     O_R   0.490840 0.341410 0.386200 -0.604718
O3    O     O_R   0.325590 0.506510 0.597900 -0.592576
O4    O     O_R   0.309790 0.493450 0.402100 -0.588932
O5    O     O_R   0.509160 0.658590 0.613800 -0.590382
O6    O     O_R   0.493360 0.645540 0.418000 -0.585336
O7    O     O_R   0.690210 0.506550 0.597900 -0.601085
O8    O     O_R   0.674410 0.493490 0.402100 -0.592554
C31   C     C_3   0.466779 0.159206 0.232668 -0.362630
C32   C     C_3   0.447764 0.078613 0.117113 -0.395662
C33   C     C_3   0.425126 0.132378 0.011541 -0.861448
H18   H     H_    0.338603 0.178348 0.017834 0.252129
H19   H     H_    0.504921 0.185074 0.006784 0.261266
H20   H     H_    0.414042 0.072326 0.929743 0.239494
H21   H     H_    0.531973 0.029931 0.105580 0.222400
H22   H     H_    0.365579 0.027328 0.118657 0.222412
H23   H     H_    0.383565 0.209206 0.236519 0.201945
H24   H     H_    0.550743 0.207341 0.227803 0.219550
C34   C     C_3   0.144127 0.311007 0.584236 -0.406946
C35   C     C_3   0.056505 0.214571 0.570170 -0.369988
C36   C     C_3   0.129582 0.113236 0.549399 -0.836922
H25   H     H_    0.175251 0.105580 0.466427 0.257337
H26   H     H_    0.201764 0.112280 0.623476 0.257026
H27   H     H_    0.065315 0.045096 0.542535 0.239500
H28   H     H_    0.009032 0.217166 0.651190 0.211390
H29   H     H_    0.983858 0.211294 0.495999 0.206803
H30   H     H_    0.211600 0.296939 0.516868 0.186385
H31   H     H_    0.203642 0.312294 0.667701 0.182822
C37   C     C_3   0.721399 0.672781 0.056992 -0.434161
C38   C     C_3   0.803790 0.733022 0.989843 -0.360620
C39   C     C_3   0.899919 0.802430 0.073750 -0.850732
H32   H     H_    0.852883 0.860670 0.137102 0.252245
H33   H     H_    0.961768 0.754055 0.122731 0.251721
H34   H     H_    0.957825 0.845019 0.023026 0.239376
H35   H     H_    0.854153 0.676952 0.926968 0.214170
H36   H     H_    0.745208 0.783589 0.940784 0.215701
H37   H     H_    0.672971 0.730766 0.119621 0.197332
H38   H     H_    0.783551 0.626399 0.108418 0.199353
C40   C     C_3   0.922598 0.477734 0.734690 -0.404697
C41   C     C_3   0.941152 0.393885 0.811318 -0.359398
C42   C     C_3   0.915726 0.436570 0.937905 -0.889430
H39   H     H_    0.979130 0.503978 0.976620 0.257409
H40   H     H_    0.817742 0.461242 0.941786 0.269581
H41   H     H_    0.930606 0.374024 0.990103 0.238613
H42   H     H_    0.876326 0.326537 0.776257 0.217959
H43   H     H_    0.038324 0.365932 0.811151 0.220805
H44   H     H_    0.989574 0.542981 0.771325 0.181116
H45   H     H_    0.830798 0.510951 0.748906 0.235054
C43   C     C_3   0.884777 0.692828 0.618088 -0.411189
C44   C     C_3   0.927289 0.803919 0.609750 -0.366555
C45   C     C_3   0.876572 0.885834 0.704892 -0.847328
H46   H     H_    0.773385 0.882786 0.695959 0.262893
H47   H     H_    0.911058 0.871942 0.793318 0.250700
H48   H     H_    0.908019 0.965136 0.696220 0.243382
H49   H     H_    0.030519 0.810415 0.620132 0.225259
H50   H     H_    0.893843 0.821194 0.522383 0.215599
H51   H     H_    0.781533 0.690886 0.607856 0.204843
H52   H     H_    0.914895 0.679070 0.706985 0.199705
C46   C     C_3   0.071088 0.514726 0.275969 -0.834223
H53   H     H_    0.052487 0.597855 0.308926 0.208575
H54   H     H_    0.164973 0.510026 0.244420 0.251662
H55   H     H_    0.005398 0.492200 0.196192 0.206637
C47   C     C_3   0.099961 0.329208 0.311537 -0.384832
C48   C     C_3   0.050019 0.287554 0.182863 -0.381119
C49   C     C_3   0.072995 0.170613 0.146489 -0.875473
H56   H     H_    0.173624 0.154464 0.159522 0.258325
H57   H     H_    0.020858 0.125270 0.199044 0.257043
H58   H     H_    0.040765 0.144335 0.052227 0.247062
H59   H     H_    0.948276 0.300193 0.170626 0.225756
H60   H     H_    0.097728 0.329289 0.123851 0.222559
H61   H     H_    0.202823 0.327017 0.317121 0.183639
H62   H     H_    0.069928 0.271643 0.361493 0.210117

loop_
_geom_bond_atom_site_label_1
_geom_bond_atom_site_label_2
_ccdc_geom_bond_type
C44   H50   S    
C29   C47   S    
C44   C45   S    
C48   H60   S    
C34   H30   S    
Cu2   O2    S    
C19   C20   A    
Cu1   O1    S    
C17   N2    A    
C6    C9    A    
C47   C48   S    
C7    C8    A    
C7    C11   A    
C26   C27   S    
C33   H18   S    
C27   C40   S    
C3    H4    S    
Cu1   O7    S    
C3    C28   S    
C17   H13   S    
C10   C15   A    
C35   H28   S    
C32   H21   S    
C48   C49   S    
C49   H56   S    
C45   H48   S    
C18   C19   A    
C37   H38   S    
C1    O2    A    
C46   H53   S    
C43   C44   S    
C33   H19   S    
C41   H42   S    
C3    C43   S    
C24   C37   S    
Cu1   Cu2   S    
C28   H3    S    
C16   C17   A    
C2    C27   S    
Cu1   O5    S    
C9    C10   A    
C16   H12   S    
Cu2   O4    S    
C13   H5    S    
C38   H35   S    
C22   N1    A    
C43   H52   S    
C32   C33   S    
Cu2   O6    S    
C36   H27   S    
C18   H14   S    
C21   N1    A    
C18   N2    A    
C38   C39   S    
C4    H2    S    
C43   H51   S    
C1    C6    S    
C29   C46   S    
C23   O5    A    
C36   H26   S    
C41   C42   S    
C36   H25   S    
C6    C8    A    
C42   H41   S    
C31   C32   S    
C2    C4    S    
Cu2   N2    S    
C29   C30   S    
C14   H6    S    
C32   H22   S    
C26   H1    S    
C22   H11   S    
C5    C23   S    
C16   C20   A    
C42   H40   S    
C41   H43   S    
C45   H47   S    
C46   H55   S    
C5    C14   A    
C38   H36   S    
C47   H62   S    
C26   C30   S    
C39   H33   S    
C26   C34   S    
C22   C24   A    
C25   O7    A    
Cu1   N1    S    
C40   H45   S    
C35   H29   S    
C34   C35   S    
C27   H15   S    
C44   H49   S    
C23   O6    A    
C28   H16   S    
C33   H20   S    
C12   C30   S    
C34   H31   S    
C5    C13   A    
C4    C29   S    
C37   C38   S    
C48   H59   S    
C39   H34   S    
C9    H9    S    
C49   H58   S    
C4    H17   S    
C28   C30   S    
C2    C3    S    
C35   C36   S    
C37   H37   S    
C8    C31   S    
C11   C13   A    
C40   C41   S    
C31   H24   S    
C42   H39   S    
C49   H57   S    
C19   C24   A    
C2    C25   S    
Cu1   O3    S    
C45   H46   S    
C1    O1    A    
C46   H54   S    
C15   H8    S    
C12   O4    A    
C10   C11   A    
C21   H10   S    
C47   H61   S    
C20   C21   A    
C31   H23   S    
C39   H32   S    
C7    H7    S    
C14   C15   A    
C25   O8    A    
Cu2   O8    S    
C40   H44   S    
C12   O3    A    
