data_mof_unit_64429.cif
_audit_creation_date              2013-03-05T15:54:06-0500
_audit_creation_method            fapswitch 2.2
_symmetry_space_group_name_H-M    P1
_symmetry_Int_Tables_number       1
_space_group_crystal_system       triclinic
_cell_length_a                    23.582856
_cell_length_b                    13.739765
_cell_length_c                    28.494661
_cell_angle_alpha                 90.136291
_cell_angle_beta                  89.950954
_cell_angle_gamma                 90.017083
_cell_volume                      9232.89276755

loop_
_atom_site_label
_atom_site_type_symbol
_atom_site_description
_atom_site_fract_x
_atom_site_fract_y
_atom_site_fract_z
_atom_type_partial_charge
O1    O     O_R   0.237900 0.735050 0.799950 -0.490250
O2    O     O_R   0.762100 0.735050 0.200050 -0.493875
O3    O     O_R   0.737900 0.235050 0.799950 -0.490265
O4    O     O_R   0.262100 0.235050 0.200050 -0.493900
O5    O     O_R   0.256160 0.936210 0.796950 -0.492845
O6    O     O_R   0.743840 0.936210 0.203050 -0.494871
O7    O     O_R   0.756160 0.436210 0.796950 -0.492860
O8    O     O_R   0.243840 0.436210 0.203050 -0.494878
C1    C     C_R   0.284676 0.004967 0.815954 0.564054
C2    C     C_R   0.715322 0.004406 0.183880 0.562058
C3    C     C_R   0.784676 0.504967 0.815954 0.564064
C4    C     C_R   0.215322 0.504406 0.183880 0.562068
O9    O     O_R   0.333710 0.029860 0.801630 -0.467896
O10   O     O_R   0.666290 0.029860 0.198370 -0.468919
O11   O     O_R   0.833710 0.529860 0.801630 -0.467879
O12   O     O_R   0.166290 0.529860 0.198370 -0.468897
O13   O     O_R   0.425340 0.901920 0.798280 -0.482920
O14   O     O_R   0.574660 0.901920 0.201720 -0.481967
O15   O     O_R   0.925340 0.401920 0.798280 -0.482918
O16   O     O_R   0.074660 0.401920 0.201720 -0.481961
C5    C     C_R   0.445706 0.824199 0.816168 0.571161
C6    C     C_R   0.554781 0.823808 0.183459 0.564272
C7    C     C_R   0.945706 0.324199 0.816168 0.571153
C8    C     C_R   0.054781 0.323808 0.183460 0.564259
O17   O     O_R   0.433530 0.738890 0.801610 -0.474173
O18   O     O_R   0.566470 0.738890 0.198390 -0.480967
O19   O     O_R   0.933530 0.238890 0.801610 -0.474175
O20   O     O_R   0.066470 0.238890 0.198390 -0.480973
O21   O     O_R   0.323650 0.665810 0.796720 -0.477269
O22   O     O_R   0.676350 0.665810 0.203280 -0.481809
O23   O     O_R   0.823650 0.165810 0.796720 -0.477272
O24   O     O_R   0.176350 0.165810 0.203280 -0.481811
C9    C     C_R   0.274323 0.674945 0.815160 0.567622
C10   C     C_R   0.725566 0.674884 0.184911 0.558285
C11   C     C_R   0.774323 0.174945 0.815160 0.567622
C12   C     C_R   0.225566 0.174883 0.184911 0.558274
O25   O     O_R   0.237790 0.735800 0.697250 -0.483455
O26   O     O_R   0.762210 0.735800 0.302750 -0.477318
O27   O     O_R   0.737790 0.235800 0.697250 -0.483599
O28   O     O_R   0.262210 0.235800 0.302750 -0.477326
O29   O     O_R   0.256050 0.936910 0.701750 -0.497317
O30   O     O_R   0.743950 0.936910 0.298250 -0.484578
O31   O     O_R   0.756050 0.436910 0.701750 -0.497303
O32   O     O_R   0.243950 0.436910 0.298250 -0.484593
C13   C     C_R   0.284631 0.006892 0.684188 0.554489
C14   C     C_R   0.715304 0.006703 0.315953 0.559040
C15   C     C_R   0.784633 0.506888 0.684186 0.554525
C16   C     C_R   0.215303 0.506698 0.315954 0.559038
O33   O     O_R   0.333600 0.030610 0.698930 -0.481046
O34   O     O_R   0.666400 0.030610 0.301070 -0.488285
O35   O     O_R   0.833600 0.530610 0.698930 -0.481178
O36   O     O_R   0.166400 0.530610 0.301070 -0.488328
O37   O     O_R   0.425240 0.902610 0.703070 -0.480225
O38   O     O_R   0.574760 0.902610 0.296930 -0.490290
O39   O     O_R   0.925240 0.402610 0.703070 -0.480316
O40   O     O_R   0.074760 0.402610 0.296930 -0.490366
C17   C     C_R   0.445447 0.825033 0.684433 0.551022
C18   C     C_R   0.554421 0.825213 0.315508 0.556163
C19   C     C_R   0.945446 0.325033 0.684433 0.551066
C20   C     C_R   0.054421 0.325213 0.315507 0.556168
O41   O     O_R   0.433420 0.739640 0.698910 -0.499012
O42   O     O_R   0.566580 0.739640 0.301090 -0.487791
O43   O     O_R   0.933420 0.239640 0.698910 -0.498896
O44   O     O_R   0.066580 0.239640 0.301090 -0.487623
O45   O     O_R   0.323550 0.666510 0.701520 -0.496563
O46   O     O_R   0.676450 0.666510 0.298480 -0.490696
O47   O     O_R   0.823550 0.166510 0.701520 -0.496451
O48   O     O_R   0.176450 0.166510 0.298480 -0.490595
C21   C     C_R   0.274470 0.674720 0.682916 0.553435
C22   C     C_R   0.725588 0.674598 0.316908 0.558946
C23   C     C_R   0.774470 0.174727 0.682913 0.553491
C24   C     C_R   0.225587 0.174603 0.316910 0.558935
Cr1   Cr    Cr6+3 0.250680 0.837130 0.748990 1.104192
Cr2   Cr    Cr6+3 0.749320 0.837130 0.251010 1.113898
Cr3   Cr    Cr6+3 0.750680 0.337130 0.748990 1.104080
Cr4   Cr    Cr6+3 0.249320 0.337130 0.251010 1.113821
Cr5   Cr    Cr6+3 0.378160 0.960100 0.750430 1.134690
Cr6   Cr    Cr6+3 0.621840 0.960100 0.249570 1.121764
Cr7   Cr    Cr6+3 0.878160 0.460100 0.750430 1.134643
Cr8   Cr    Cr6+3 0.121840 0.460100 0.249570 1.121770
Cr9   Cr    Cr6+3 0.376090 0.707720 0.749670 1.113894
Cr10  Cr    Cr6+3 0.623910 0.707720 0.250330 1.116213
Cr11  Cr    Cr6+3 0.876090 0.207720 0.749670 1.114042
Cr12  Cr    Cr6+3 0.123910 0.207720 0.250330 1.116351
O49   O     O_3   0.334980 0.834990 0.749700 -0.294888
O50   O     O_3   0.665020 0.834990 0.250300 -0.291737
O51   O     O_3   0.834980 0.334990 0.749700 -0.294860
O52   O     O_3   0.165020 0.334990 0.250300 -0.291754
C25   C     C_3   0.432412 0.878649 0.980201 0.122898
C26   C     C_3   0.558732 0.910316 0.020899 0.120094
C27   C     C_3   0.932412 0.378650 0.980201 0.122899
C28   C     C_3   0.058732 0.410316 0.020899 0.120093
C29   C     C_3   0.544177 0.909449 0.964067 -0.021651
C30   C     C_3   0.447109 0.877270 0.037030 -0.019444
C31   C     C_3   0.044177 0.409449 0.964067 -0.021651
C32   C     C_3   0.947109 0.377271 0.037030 -0.019445
C33   C     C_1   0.533159 0.830002 0.137280 0.188315
C34   C     C_1   0.468434 0.831897 0.861818 0.190163
C35   C     C_1   0.033159 0.330002 0.137280 0.188319
C36   C     C_1   0.968434 0.331898 0.861818 0.190166
C37   C     C_3   0.489887 0.836363 0.953602 -0.166391
C38   C     C_3   0.512121 0.835492 0.045240 -0.164448
C39   C     C_3   0.989886 0.336363 0.953602 -0.166392
C40   C     C_3   0.012120 0.335493 0.045240 -0.164449
C41   C     C_3   0.523349 0.724621 0.023918 -0.035956
C42   C     C_3   0.499364 0.722397 0.970395 -0.044397
C43   C     C_3   0.023348 0.224621 0.023918 -0.035957
C44   C     C_3   0.999363 0.222397 0.970395 -0.044398
C45   C     C_1   0.521932 0.832899 0.096328 0.138374
C46   C     C_1   0.480233 0.835600 0.902585 0.135430
C47   C     C_1   0.021931 0.332899 0.096328 0.138374
C48   C     C_1   0.980233 0.335601 0.902585 0.135430
C49   C     C_1   0.263706 0.633477 0.860360 0.084269
C50   C     C_1   0.734853 0.635657 0.139225 0.090318
C51   C     C_1   0.763706 0.133477 0.860360 0.084270
C52   C     C_1   0.234853 0.135657 0.139225 0.090320
C53   C     C_R   0.282905 0.513647 0.970727 0.028406
C54   C     C_R   0.712130 0.522262 0.027375 0.061313
C55   C     C_R   0.782906 0.013647 0.970727 0.028403
C56   C     C_R   0.212130 0.022262 0.027375 0.061310
C57   C     C_R   0.282576 0.503957 0.020353 0.012058
C58   C     C_R   0.716806 0.508108 0.978178 0.047630
C59   C     C_R   0.782576 0.003957 0.020353 0.012057
C60   C     C_R   0.216807 0.008108 0.978178 0.047630
C61   C     C_R   0.213796 0.638302 0.025620 0.060878
C62   C     C_R   0.785554 0.643160 0.974469 0.065451
C63   C     C_R   0.713796 0.138301 0.025620 0.060878
C64   C     C_R   0.285554 0.143160 0.974470 0.065454
C65   C     C_R   0.214282 0.645080 0.976646 -0.081750
C66   C     C_R   0.782154 0.651887 0.023249 -0.105942
C67   C     C_R   0.714282 0.145080 0.976646 -0.081750
C68   C     C_R   0.282155 0.151887 0.023250 -0.105942
C69   C     C_R   0.249374 0.585802 0.949500 -0.017440
C70   C     C_R   0.746038 0.593116 0.049431 -0.018564
C71   C     C_R   0.749374 0.085802 0.949500 -0.017440
C72   C     C_R   0.246038 0.093116 0.049431 -0.018565
C73   C     C_R   0.247735 0.566787 0.047577 -0.010375
C74   C     C_R   0.752142 0.571493 0.951697 -0.007639
C75   C     C_R   0.747735 0.066786 0.047577 -0.010374
C76   C     C_R   0.252142 0.071493 0.951697 -0.007638
C77   C     C_1   0.241831 0.551218 0.097439 0.091621
C78   C     C_1   0.758780 0.555635 0.901970 0.099101
C79   C     C_1   0.741831 0.051218 0.097439 0.091623
C80   C     C_1   0.258780 0.055635 0.901970 0.099102
C81   C     C_1   0.255830 0.608500 0.900315 0.035330
C82   C     C_1   0.741001 0.612963 0.098837 0.064161
C83   C     C_1   0.755830 0.108500 0.900316 0.035330
C84   C     C_1   0.241000 0.112963 0.098837 0.064160
C85   C     C_1   0.232154 0.534251 0.138029 0.118348
C86   C     C_1   0.768079 0.536861 0.861517 0.118025
C87   C     C_1   0.732154 0.034251 0.138029 0.118350
C88   C     C_1   0.268079 0.036861 0.861517 0.118027
H1    H     H_    0.188659 0.699578 0.959349 0.195755
H2    H     H_    0.808509 0.704359 0.041351 0.201198
H3    H     H_    0.688660 0.199578 0.959349 0.195754
H4    H     H_    0.308509 0.204359 0.041351 0.201196
C89   C     C_1   0.469575 0.833271 0.638829 0.080396
C90   C     C_1   0.530566 0.834053 0.361213 0.069211
C91   C     C_1   0.969573 0.333268 0.638829 0.080403
C92   C     C_1   0.030576 0.334050 0.361215 0.069251
C93   C     C_R   0.460010 0.786414 0.519756 -0.047398
C94   C     C_R   0.467902 0.787160 0.471546 -0.047274
C95   C     C_R   0.959942 0.286556 0.519746 -0.046884
C96   C     C_R   0.967843 0.287299 0.471537 -0.047330
C97   C     C_R   0.542982 0.908493 0.480185 0.087402
C98   C     C_R   0.535095 0.907147 0.529583 0.086866
C99   C     C_R   0.043107 0.408290 0.480203 0.087254
C100  C     C_R   0.035203 0.406956 0.529599 0.086764
C101  C     C_R   0.493475 0.844869 0.548818 0.036319
C102  C     C_R   0.508985 0.847194 0.451596 0.027704
C103  C     C_R   0.993486 0.344851 0.548820 0.036410
C104  C     C_R   0.009019 0.347166 0.451602 0.027184
C105  C     C_1   0.517806 0.840863 0.401852 0.038334
C106  C     C_1   0.483141 0.839218 0.598362 0.061038
C107  C     C_1   0.017827 0.340852 0.401857 0.038163
C108  C     C_1   0.983141 0.339208 0.598362 0.061083
H5    H     H_    0.427828 0.739168 0.534558 0.147840
H6    H     H_    0.442066 0.740088 0.449711 0.155912
H7    H     H_    0.927688 0.239441 0.534537 0.148279
H8    H     H_    0.941940 0.240358 0.449692 0.156291
C109  C     C_1   0.266042 0.634310 0.637470 0.084083
C110  C     C_1   0.734064 0.633347 0.361981 0.111587
C111  C     C_1   0.766031 0.134326 0.637464 0.084145
C112  C     C_1   0.234062 0.133372 0.361988 0.111677
C113  C     C_R   0.237222 0.678147 0.518928 0.021352
C114  C     C_R   0.794044 0.552352 0.470473 0.055357
C115  C     C_R   0.736920 0.178058 0.518947 0.021373
C116  C     C_R   0.294258 0.053167 0.470517 0.055423
C117  C     C_R   0.237971 0.668293 0.469628 0.153693
C118  C     C_R   0.798848 0.541242 0.519450 0.216158
C119  C     C_R   0.737722 0.168281 0.469641 0.153992
C120  C     C_R   0.299054 0.042065 0.519495 0.216208
C121  C     C_R   0.270767 0.499880 0.477613 0.202072
C122  C     C_R   0.703898 0.610698 0.530187 0.214554
C123  C     C_R   0.770969 0.000115 0.477581 0.201929
C124  C     C_R   0.203743 0.110100 0.530165 0.214538
C125  C     C_R   0.271028 0.509918 0.526780 0.206696
C126  C     C_R   0.699070 0.622517 0.481345 0.236012
C127  C     C_R   0.771194 0.010097 0.526750 0.206813
C128  C     C_R   0.198915 0.121893 0.481321 0.236196
C129  C     C_R   0.254026 0.598641 0.547204 -0.082015
C130  C     C_R   0.744232 0.593803 0.451782 -0.035285
C131  C     C_R   0.753959 0.098660 0.547199 -0.081844
C132  C     C_R   0.244254 0.093872 0.451791 -0.035004
C133  C     C_R   0.254174 0.579102 0.449397 -0.046290
C134  C     C_R   0.753780 0.570450 0.548894 -0.014918
C135  C     C_R   0.754164 0.079238 0.449387 -0.045900
C136  C     C_R   0.253803 0.070572 0.548906 -0.014912
C137  C     C_1   0.244167 0.562936 0.400311 0.100946
C138  C     C_1   0.759869 0.558565 0.598595 0.101733
C139  C     C_1   0.744171 0.063030 0.400299 0.101175
C140  C     C_1   0.259868 0.058636 0.598606 0.101458
C141  C     C_1   0.260115 0.612752 0.596969 0.055869
C142  C     C_1   0.739279 0.610196 0.402242 0.107552
C143  C     C_1   0.760077 0.112775 0.596964 0.056020
C144  C     C_1   0.239286 0.110243 0.402250 0.107664
C145  C     C_1   0.232600 0.542405 0.360554 0.102515
C146  C     C_1   0.768692 0.540455 0.639018 0.094804
C147  C     C_1   0.732608 0.042450 0.360547 0.102551
C148  C     C_1   0.268685 0.040486 0.639026 0.094680
C149  C     C_2   0.442994 0.978303 0.062991 0.678258
O53   O     O_2   0.437133 0.980187 0.105831 -0.483443
O54   O     O_R   0.448646 0.067989 0.040505 -0.544201
H9    H     H_    0.444932 0.125664 0.062583 0.365153
C150  C     C_2   0.529470 0.010992 0.941772 0.677154
O55   O     O_2   0.534201 0.021938 0.899167 -0.479025
O56   O     O_R   0.508002 0.089691 0.967276 -0.545660
H10   H     H_    0.500599 0.149299 0.947265 0.362466
C151  C     C_2   0.942994 0.478303 0.062991 0.678259
O57   O     O_2   0.937134 0.480187 0.105831 -0.483433
O58   O     O_R   0.948646 0.567990 0.040505 -0.544201
H11   H     H_    0.944933 0.625664 0.062583 0.365157
C152  C     C_2   0.029471 0.510992 0.941772 0.677155
O59   O     O_2   0.034201 0.521938 0.899167 -0.479018
O60   O     O_R   0.008003 0.589691 0.967276 -0.545660
H12   H     H_    0.000599 0.649299 0.947265 0.362469
C153  C     C_2   0.584753 0.976172 0.458501 0.616225
O61   O     O_2   0.616973 0.947377 0.427827 -0.477043
O62   O     O_R   0.586975 0.073223 0.473213 -0.630879
H13   H     H_    0.616770 0.111993 0.455735 0.364753
C154  C     C_2   0.571557 0.966701 0.561109 0.648175
O63   O     O_2   0.550434 0.012519 0.593556 -0.456216
O64   O     O_R   0.630157 0.969567 0.553914 -0.621031
H14   H     H_    0.650201 0.011483 0.578048 0.360966
C155  C     C_2   0.085004 0.475766 0.458536 0.616294
O65   O     O_2   0.117196 0.446807 0.427878 -0.476989
O66   O     O_R   0.087379 0.572809 0.473247 -0.631046
H15   H     H_    0.117245 0.611444 0.455780 0.364348
C156  C     C_2   0.071742 0.466334 0.561139 0.647881
O67   O     O_2   0.050674 0.512261 0.593574 -0.456464
O68   O     O_R   0.130351 0.468906 0.553971 -0.620973
H16   H     H_    0.150446 0.510733 0.578111 0.361020
C157  C     C_2   0.220559 0.772542 0.540750 0.647527
O69   O     O_2   0.236809 0.849039 0.523615 -0.461433
O70   O     O_R   0.186125 0.774020 0.580723 -0.658950
H17   H     H_    0.178230 0.842535 0.592308 0.362643
C158  C     C_2   0.840256 0.517488 0.439000 0.650148
O71   O     O_2   0.862293 0.438236 0.445903 -0.458882
O72   O     O_R   0.858605 0.575129 0.401570 -0.662163
H18   H     H_    0.890195 0.543333 0.382873 0.347166
C159  C     C_2   0.719927 0.272242 0.540812 0.647899
O73   O     O_2   0.735874 0.348947 0.523700 -0.460936
O74   O     O_R   0.685520 0.273275 0.580803 -0.659296
H19   H     H_    0.677382 0.341682 0.592422 0.362651
C160  C     C_2   0.340699 0.019076 0.439076 0.649975
O75   O     O_2   0.363148 0.940164 0.445971 -0.459104
O76   O     O_R   0.358791 0.077062 0.401685 -0.661750
H20   H     H_    0.390572 0.045792 0.383005 0.347355
N1    N     N_R   0.219762 0.747019 0.439990 0.098399
O77   O     O_R   0.251254 0.775127 0.405034 -0.304405
O78   O     O_R   0.170599 0.787866 0.446537 -0.272383
N2    N     N_R   0.850107 0.502554 0.539488 0.104845
O79   O     O_R   0.848278 0.426831 0.566789 -0.344423
O80   O     O_R   0.898827 0.542592 0.530146 -0.266643
N3    N     N_R   0.719369 0.246932 0.440016 0.098397
O81   O     O_R   0.750826 0.275263 0.405081 -0.304084
O82   O     O_R   0.670121 0.287485 0.446549 -0.272813
N4    N     N_R   0.350466 0.004059 0.539569 0.105049
O83   O     O_R   0.348957 0.928230 0.566814 -0.343977
O84   O     O_R   0.399008 0.044803 0.530305 -0.265225
N5    N     N_R   0.284477 0.407604 0.456476 0.123461
O85   O     O_R   0.262028 0.327824 0.472500 -0.249764
O86   O     O_R   0.318902 0.403027 0.420826 -0.292818
N6    N     N_R   0.659159 0.643363 0.560748 0.117770
O87   O     O_R   0.637888 0.730156 0.555967 -0.242434
O88   O     O_R   0.639570 0.586679 0.593494 -0.309576
N7    N     N_R   0.784966 0.907990 0.456416 0.123441
O89   O     O_R   0.762804 0.827971 0.472436 -0.249557
O90   O     O_R   0.819388 0.903782 0.420753 -0.292863
N8    N     N_R   0.158797 0.142051 0.560693 0.117862
O91   O     O_R   0.137086 0.228523 0.555915 -0.243106
O92   O     O_R   0.139450 0.085029 0.593400 -0.309467
N9    N     N_R   0.290124 0.430936 0.555824 0.116551
O93   O     O_R   0.260390 0.403414 0.591925 -0.285645
O94   O     O_R   0.337399 0.386235 0.546270 -0.237885
N10   N     N_R   0.647617 0.661405 0.461765 0.109764
O95   O     O_R   0.649312 0.734639 0.432942 -0.288383
O96   O     O_R   0.598692 0.625389 0.473791 -0.265222
N11   N     N_R   0.790479 0.931229 0.555777 0.116530
O97   O     O_R   0.760769 0.903383 0.591834 -0.285091
O98   O     O_R   0.837906 0.886971 0.546258 -0.237800
N12   N     N_R   0.147300 0.160055 0.461704 0.109780
O99   O     O_R   0.148671 0.233383 0.432925 -0.288592
O100  O     O_R   0.098540 0.123280 0.473655 -0.264064
N13   N     N_R   0.415518 0.977270 0.965013 0.110000
O101  O     O_R   0.372882 0.015145 0.987451 -0.294272
O102  O     O_R   0.418623 0.000832 0.920806 -0.300716
N14   N     N_R   0.557072 0.010744 0.039956 0.108366
O103  O     O_R   0.589867 0.073844 0.019528 -0.268421
O104  O     O_R   0.550280 0.024636 0.084869 -0.293818
N15   N     N_R   0.915519 0.477271 0.965013 0.109999
O105  O     O_R   0.872883 0.515146 0.987451 -0.294271
O106  O     O_R   0.918623 0.500833 0.920806 -0.300714
N16   N     N_R   0.057073 0.510744 0.039956 0.108365
O107  O     O_R   0.089868 0.573844 0.019528 -0.268421
O108  O     O_R   0.050280 0.524636 0.084869 -0.293810
C161  C     C_2   0.597821 0.885534 0.935094 0.650711
O109  O     O_2   0.603450 0.809713 0.913644 -0.437108
O110  O     O_R   0.639679 0.957404 0.929695 -0.620623
H21   H     H_    0.671937 0.935769 0.908563 0.368562
C162  C     C_2   0.401008 0.821477 0.064860 0.642165
O111  O     O_2   0.410060 0.743575 0.083452 -0.449220
O112  O     O_R   0.348564 0.866863 0.073517 -0.601163
H22   H     H_    0.322062 0.825580 0.093238 0.367712
C163  C     C_2   0.097821 0.385534 0.935094 0.650710
O113  O     O_2   0.103450 0.309713 0.913644 -0.437107
O114  O     O_R   0.139680 0.457403 0.929695 -0.620622
H23   H     H_    0.171936 0.435768 0.908563 0.368563
C164  C     C_2   0.901008 0.321479 0.064860 0.642163
O115  O     O_2   0.910060 0.243576 0.083452 -0.449219
O116  O     O_R   0.848564 0.366865 0.073518 -0.601163
H24   H     H_    0.822061 0.325583 0.093238 0.367712
C165  C     C_2   0.621094 0.885103 0.036381 0.646076
O117  O     O_2   0.632311 0.883047 0.078330 -0.484934
O118  O     O_R   0.666292 0.872275 0.005371 -0.657955
H25   H     H_    0.702729 0.852669 0.021576 0.344953
C166  C     C_2   0.377157 0.824846 0.963368 0.653380
O119  O     O_2   0.367780 0.817654 0.921238 -0.483955
O120  O     O_R   0.333890 0.795691 0.993535 -0.651129
H26   H     H_    0.299342 0.770820 0.976311 0.346776
C167  C     C_2   0.121094 0.385101 0.036381 0.646075
O121  O     O_2   0.132311 0.383046 0.078330 -0.484935
O122  O     O_R   0.166292 0.372274 0.005371 -0.657955
H27   H     H_    0.202729 0.352668 0.021576 0.344953
C168  C     C_2   0.877157 0.324847 0.963368 0.653379
O123  O     O_2   0.867780 0.317654 0.921238 -0.483956
O124  O     O_R   0.833889 0.295693 0.993536 -0.651130
H28   H     H_    0.799342 0.270823 0.976311 0.346777
C169  C     C_2   0.442712 0.665573 0.965452 0.597054
O125  O     O_2   0.425499 0.641844 0.926390 -0.447317
O126  O     O_R   0.408253 0.645100 0.003973 -0.621771
H29   H     H_    0.371575 0.612774 0.994884 0.372269
C170  C     C_2   0.587427 0.699491 0.027416 0.595200
O127  O     O_2   0.608735 0.684572 0.066034 -0.482766
O128  O     O_R   0.623089 0.697889 0.988293 -0.633698
H30   H     H_    0.664212 0.687266 0.996539 0.341916
C171  C     C_2   0.942711 0.165574 0.965452 0.597054
O129  O     O_2   0.925498 0.141845 0.926391 -0.447315
O130  O     O_R   0.908252 0.145101 0.003974 -0.621771
H31   H     H_    0.871573 0.112776 0.994884 0.372267
C172  C     C_2   0.087427 0.199490 0.027416 0.595199
O131  O     O_2   0.108734 0.184571 0.066034 -0.482765
O132  O     O_R   0.123089 0.197888 0.988293 -0.633697
H32   H     H_    0.164212 0.187265 0.996539 0.341917
C173  C     C_2   0.535316 0.655785 0.937528 0.697347
O133  O     O_2   0.538872 0.671053 0.895360 -0.458864
O134  O     O_R   0.554556 0.565917 0.954025 -0.566033
H33   H     H_    0.572073 0.525175 0.928130 0.368968
C174  C     C_2   0.501091 0.637301 0.053558 0.708209
O135  O     O_2   0.497628 0.642212 0.096328 -0.455785
O136  O     O_R   0.495071 0.545466 0.032660 -0.568916
H34   H     H_    0.483698 0.493112 0.055850 0.358697
C175  C     C_2   0.035315 0.155785 0.937528 0.697349
O137  O     O_2   0.038871 0.171053 0.895360 -0.458856
O138  O     O_R   0.054554 0.065917 0.954025 -0.566031
H35   H     H_    0.072072 0.025174 0.928130 0.368973
C176  C     C_2   0.001090 0.137301 0.053558 0.708209
O139  O     O_2   0.997627 0.142213 0.096329 -0.455777
O140  O     O_R   0.995070 0.045466 0.032660 -0.568914
H36   H     H_    0.983697 0.993112 0.055850 0.358700
C177  C     C_2   0.317059 0.449476 0.939887 0.607915
O141  O     O_2   0.293215 0.401591 0.909563 -0.479821
O142  O     O_R   0.376176 0.450968 0.942195 -0.599242
H37   H     H_    0.394508 0.411690 0.916139 0.358851
C178  C     C_2   0.671273 0.467124 0.056454 0.638373
O143  O     O_2   0.688174 0.421145 0.090324 -0.475530
O144  O     O_R   0.613206 0.476038 0.048038 -0.578660
H38   H     H_    0.589333 0.444545 0.073394 0.341781
C179  C     C_2   0.817060 0.949477 0.939887 0.607915
O145  O     O_2   0.793216 0.901593 0.909562 -0.479816
O146  O     O_R   0.876176 0.950969 0.942196 -0.599239
H39   H     H_    0.894509 0.911691 0.916140 0.358855
C180  C     C_2   0.171273 0.967124 0.056454 0.638373
O147  O     O_2   0.188173 0.921145 0.090324 -0.475524
O148  O     O_R   0.113205 0.976038 0.048038 -0.578659
H40   H     H_    0.089333 0.944545 0.073394 0.341786
C181  C     C_2   0.317595 0.428310 0.043988 0.574869
O149  O     O_2   0.296271 0.375579 0.073669 -0.551067
O150  O     O_R   0.375292 0.419761 0.033786 -0.607967
H41   H     H_    0.394445 0.366657 0.052657 0.355976
C182  C     C_2   0.689385 0.422804 0.954877 0.573676
O151  O     O_2   0.716576 0.372945 0.927273 -0.539914
O152  O     O_R   0.632916 0.399348 0.963975 -0.616760
H42   H     H_    0.619158 0.341711 0.944827 0.358570
C183  C     C_2   0.817596 0.928309 0.043988 0.574873
O153  O     O_2   0.796271 0.875578 0.073669 -0.551065
O154  O     O_R   0.875293 0.919762 0.033787 -0.607965
H43   H     H_    0.894445 0.866657 0.052658 0.355979
C184  C     C_2   0.189385 0.922804 0.954877 0.573680
O155  O     O_2   0.216576 0.872945 0.927273 -0.539911
O156  O     O_R   0.132915 0.899348 0.963975 -0.616759
H44   H     H_    0.119158 0.841712 0.944826 0.358572
C185  C     C_2   0.176049 0.705436 0.052565 0.656651
O157  O     O_2   0.183290 0.719704 0.094491 -0.467642
O158  O     O_R   0.130996 0.751342 0.029861 -0.618563
H45   H     H_    0.103880 0.783610 0.052620 0.372334
C186  C     C_2   0.831009 0.699178 0.949950 0.670975
O159  O     O_2   0.829856 0.711223 0.907480 -0.460575
O160  O     O_R   0.877094 0.734483 0.975771 -0.641898
H46   H     H_    0.908040 0.762659 0.955221 0.359881
C187  C     C_2   0.676050 0.205435 0.052565 0.656649
O161  O     O_2   0.683291 0.219705 0.094491 -0.467650
O162  O     O_R   0.630996 0.251341 0.029861 -0.618562
H47   H     H_    0.603881 0.283611 0.052621 0.372332
C188  C     C_2   0.331010 0.199177 0.949951 0.670977
O163  O     O_2   0.329856 0.211222 0.907481 -0.460581
O164  O     O_R   0.377095 0.234483 0.975771 -0.641900
H48   H     H_    0.408040 0.262659 0.955222 0.359880

loop_
_geom_bond_atom_site_label_1
_geom_bond_atom_site_label_2
_geom_bond_distance
_ccdc_geom_bond_type
C135  C139  1.435487 S    
O164  H48   1.012674 S    
O4    C12   1.268979 A    
C171  O129  1.228373 D    
O39   C19   1.281561 A    
C188  O163  1.222145 D    
O54   H9    1.014386 S    
C53   C69   1.406479 A    
Cr7   O51   1.997776 S    
C166  O119  1.224607 D    
C165  O117  1.224847 D    
C100  C156  1.487692 S    
N11   O98   1.301309 A    
C117  N1    1.439749 S    
N6    O87   1.301364 A    
C29   C161  1.545055 S    
C181  O150  1.396047 S    
O21   C9    1.282109 A    
C114  C130  1.410991 A    
C25   C30   1.656465 S    
C1    O9    1.272928 A    
O44   Cr12  2.026401 S    
C27   C32   1.656465 S    
C3    O11   1.272928 A    
C44   C175  1.558398 S    
C118  C134  1.411267 A    
C4    O12   1.276167 A    
C31   C39   1.653779 S    
N2    O79   1.301249 A    
C30   C149  1.574389 S    
C25   C166  1.572696 S    
C101  C106  1.434696 S    
N7    O90   1.301260 A    
C11   C51   1.431411 S    
C104  C107  1.434869 S    
O2    C10   1.268978 A    
C79   C87   1.202061 T    
C185  O158  1.395991 S    
C155  O65   1.222798 D    
O17   Cr9   2.051549 S    
C66   C70   1.391192 A    
C170  O128  1.396014 S    
C93   C94   1.386183 A    
C28   N16   1.482173 S    
C16   C145  1.421279 S    
C111  C143  1.199092 T    
C70   C82   1.438164 S    
C125  N9    1.438939 S    
O16   Cr8   1.932072 S    
O112  H22   1.014300 S    
C23   C111  1.421913 S    
O68   H16   1.013187 S    
C24   C112  1.419424 S    
C29   C37   1.653777 S    
C56   C180  1.479894 S    
C140  C148  1.197390 T    
N16   O107  1.299946 A    
C115  C159  1.489762 S    
O13   C5    1.278338 A    
O28   Cr4   2.053085 S    
C39   C48   1.471636 S    
O12   Cr8   2.037015 S    
C42   C173  1.558396 S    
C114  C118  1.408941 A    
O15   C7    1.278338 A    
C151  O57   1.228603 D    
C27   C39   1.657033 S    
C41   C170  1.553534 S    
C2    C87   1.426257 S    
O46   Cr10  1.935274 S    
C3    C86   1.423852 S    
O56   H10   1.014323 S    
O48   C24   1.277349 A    
O132  H32   1.008794 S    
C130  C142  1.434876 S    
C55   C179  1.481166 S    
C175  O137  1.223038 D    
C65   C69   1.393871 A    
N10   O95   1.300942 A    
C124  N8    1.438677 S    
C32   C40   1.654251 S    
C177  O141  1.222122 D    
C69   C81   1.444397 S    
C93   H5    1.084316 S    
O142  H37   1.013437 S    
C26   C29   1.655682 S    
C159  O74   1.398394 S    
C131  C143  1.438143 S    
C121  N5    1.439097 S    
C25   C37   1.657032 S    
Cr12  O52   1.999180 S    
C118  N2    1.439742 S    
O138  H35   1.012973 S    
C17   O41   1.276376 A    
C55   C59   1.420653 A    
C180  O147  1.221930 D    
C19   O43   1.276368 A    
C20   O44   1.277139 A    
C137  C145  1.198451 T    
Cr8   O52   1.998381 S    
C173  O133  1.223040 D    
O46   C22   1.277336 A    
C67   H3    1.082245 S    
C63   C67   1.398877 A    
C28   C40   1.657611 S    
O118  H25   1.012703 S    
C57   C181  1.490206 S    
C16   O36   1.272624 A    
C30   C38   1.654252 S    
C162  O111  1.214465 D    
O130  H31   1.006058 S    
C98   C154  1.487732 S    
O27   C23   1.271809 A    
C38   C45   1.474707 S    
C154  O64   1.397473 S    
C184  O155  1.223108 D    
C183  O153  1.222751 D    
O31   C15   1.276955 A    
C40   C43   1.659948 S    
O136  H34   1.013827 S    
C21   C109  1.421859 S    
C178  O144  1.395899 S    
O47   Cr11  1.933145 S    
C187  O161  1.222313 D    
C126  N10   1.439465 S    
O126  H29   1.006058 S    
C182  O151  1.223108 D    
C156  O67   1.223065 D    
C149  O53   1.228600 D    
O24   C12   1.278994 A    
C44   C171  1.553542 S    
C159  O73   1.221401 D    
C43   C176  1.559461 S    
C113  C129  1.415818 A    
O150  H41   1.013906 S    
C59   C75   1.420658 A    
O8    Cr4   1.935665 S    
C158  O71   1.223106 D    
C54   C58   1.419009 A    
C57   C73   1.420659 A    
C163  O114  1.404661 S    
C26   C38   1.657609 S    
C75   C79   1.443921 S    
C100  C103  1.413074 A    
O11   Cr7   2.034043 S    
N13   O102  1.303355 A    
C126  C130  1.413062 A    
C43   C44   1.627303 S    
C29   C150  1.573301 S    
O27   Cr3   2.048197 S    
O3    Cr3   2.043345 S    
C152  O59   1.228641 D    
C54   C70   1.407004 A    
O8    C4    1.277534 A    
C89   C106  1.199358 T    
C31   C163  1.545052 S    
C93   C101  1.396864 A    
C7    C36   1.411006 S    
Cr5   O49   1.997776 S    
C153  O61   1.222796 D    
C122  N6    1.438670 S    
C164  O116  1.406614 S    
C119  N3    1.439782 S    
C186  O160  1.398988 S    
N14   O104  1.303238 A    
C123  C127  1.407466 A    
C167  O122  1.394900 S    
N12   O100  1.301274 A    
C42   C169  1.553544 S    
C121  C133  1.410424 A    
O22   C10   1.278994 A    
C2    O10   1.276167 A    
C116  C132  1.411020 A    
C124  C136  1.405957 A    
C59   C183  1.490205 S    
O5    C1    1.278975 A    
N9    O93   1.301288 A    
C61   C65   1.398874 A    
C33   C45   1.197559 T    
O25   C21   1.271835 A    
C134  C138  1.433321 S    
O3    C11   1.269018 A    
C68   C72   1.391192 A    
C35   C47   1.197560 T    
C66   H2    1.081942 S    
C119  C135  1.405977 A    
C32   C151  1.574388 S    
C160  O76   1.398226 S    
Cr1   O49   1.988380 S    
C72   C84   1.438164 S    
Cr3   O51   1.988380 S    
C71   C83   1.444398 S    
C91   C108  1.199349 T    
N15   O106  1.303355 A    
C95   H7    1.084312 S    
C92   C107  1.199638 T    
C127  N11   1.438889 S    
C96   C104  1.393914 A    
C12   C52   1.424554 S    
C177  O142  1.395896 S    
O26   Cr2   2.053085 S    
C58   C182  1.493082 S    
C37   C42   1.653724 S    
C5    O17   1.275197 A    
O29   C13   1.276958 A    
O28   C24   1.271340 A    
O14   C6    1.280551 A    
C8    O20   1.273209 A    
O76   H20   1.013932 S    
C113  C117  1.411069 A    
N5    O86   1.301260 A    
C139  C147  1.198485 T    
C103  C108  1.434680 S    
C132  C144  1.434886 S    
C9    C49   1.431409 S    
O40   Cr8   1.918287 S    
C116  C160  1.489332 S    
C116  C120  1.408948 A    
N6    O88   1.301202 A    
C64   C76   1.417355 A    
C80   C88   1.200616 T    
O41   Cr9   2.027710 S    
C181  O149  1.222751 D    
C65   H1    1.082248 S    
C122  C126  1.406283 A    
C150  O56   1.396286 S    
O33   Cr5   2.050936 S    
N4    O84   1.301286 A    
O5    Cr1   1.931034 S    
O35   Cr7   2.050936 S    
C94   H6    1.084024 S    
C95   C96   1.386179 A    
O29   Cr1   1.927661 S    
O32   C16   1.275859 A    
N2    O80   1.301300 A    
C13   C148  1.419260 S    
N4    O83   1.301244 A    
C123  N7    1.439136 S    
Cr9   O49   1.999684 S    
O72   H18   1.013950 S    
C174  O136  1.401188 S    
C18   O42   1.277143 A    
Cr11  O51   1.999684 S    
O26   C22   1.271357 A    
C185  O157  1.222313 D    
C34   C46   1.195712 T    
O20   Cr12  2.053188 S    
O62   H13   1.012905 S    
C63   C187  1.492866 S    
C170  O127  1.227795 D    
C43   C172  1.553535 S    
O140  H36   1.013827 S    
C172  O132  1.396010 S    
C169  O125  1.228372 D    
C121  C125  1.407475 A    
C175  O138  1.398189 S    
C113  C157  1.489709 S    
C112  C144  1.197649 T    
C62   C66   1.397086 A    
C114  C158  1.489309 S    
N16   O108  1.303238 A    
O64   H14   1.013185 S    
C115  C131  1.415839 A    
C38   C41   1.659948 S    
N8    O91   1.301363 A    
O30   C14   1.275892 A    
C49   C81   1.204149 T    
C161  O110  1.404661 S    
C17   C89   1.422883 S    
C19   C91   1.422867 S    
C22   C110  1.419421 S    
O160  H46   1.012675 S    
C117  C133  1.405912 A    
C27   C168  1.572696 S    
O60   H12   1.014322 S    
C128  N12   1.439445 S    
C168  O124  1.392999 S    
C26   C165  1.574711 S    
C95   C103  1.396863 A    
C96   H8    1.084027 S    
N10   O96   1.301286 A    
O42   Cr10  2.026401 S    
C32   C164  1.549013 S    
O18   Cr10  2.053188 S    
C54   C178  1.479895 S    
N1    O77   1.301242 A    
C127  C131  1.407810 A    
C188  O164  1.398989 S    
O34   Cr6   2.047339 S    
C166  O120  1.392998 S    
O6    Cr2   1.935665 S    
C165  O118  1.394900 S    
O24   Cr12  1.911096 S    
C15   C146  1.419259 S    
O30   Cr2   1.923159 S    
C77   C85   1.202061 T    
O48   Cr12  1.935274 S    
C58   C74   1.422626 A    
C74   C78   1.441515 S    
O124  H28   1.010523 S    
C52   C84   1.200305 T    
O37   C17   1.281562 A    
C15   O35   1.271306 A    
C61   C73   1.414848 A    
Cr10  O50   1.999180 S    
C55   C71   1.406478 A    
O40   C20   1.281830 A    
O43   Cr11  2.027710 S    
C56   C72   1.407003 A    
O37   Cr5   1.915912 S    
O116  H24   1.014300 S    
O21   Cr9   1.912797 S    
C25   N13   1.478353 S    
O39   Cr7   1.915912 S    
C90   C105  1.199653 T    
O45   Cr9   1.933145 S    
O120  H26   1.010526 S    
C94   C102  1.393919 A    
C13   O33   1.271304 A    
O13   Cr5   1.935028 S    
O15   Cr7   1.935028 S    
C129  C141  1.438080 S    
C36   C48   1.195715 T    
C155  O66   1.397858 S    
O23   C11   1.282109 A    
C30   C162  1.549012 S    
C99   C100  1.419810 A    
C178  O143  1.221928 D    
C97   C102  1.418874 A    
C73   C77   1.443921 S    
C4    C85   1.426257 S    
C60   C76   1.422626 A    
C76   C80   1.441515 S    
O6    C2    1.277534 A    
O148  H40   1.013340 S    
C99   C104  1.418879 A    
C41   C42   1.627303 S    
C97   C153  1.489295 S    
C51   C83   1.204149 T    
O1    Cr1   2.043345 S    
C78   C86   1.200616 T    
O19   Cr11  2.051549 S    
C37   C46   1.471639 S    
C64   C188  1.493456 S    
C151  O58   1.396527 S    
C28   C167  1.574710 S    
C5    C34   1.411006 S    
C157  O69   1.221399 D    
O45   C21   1.278617 A    
O47   C23   1.278658 A    
C163  O113  1.213832 D    
O110  H21   1.013963 S    
C123  C135  1.410428 A    
C149  O54   1.396526 S    
N13   O101  1.299304 A    
C6    O18   1.273210 A    
O156  H44   1.014004 S    
C179  O146  1.395894 S    
O31   Cr3   1.927661 S    
O36   Cr8   2.047339 S    
C120  N4    1.439742 S    
O38   Cr6   1.918287 S    
C102  C105  1.434889 S    
O122  H27   1.012702 S    
C1    C88   1.423852 S    
O22   Cr10  1.911096 S    
C97   C98   1.419824 A    
C8    C35   1.414382 S    
C164  O115  1.214464 D    
O152  H42   1.014002 S    
C124  C128  1.406287 A    
C186  O159  1.222146 D    
O1    C9    1.269018 A    
O146  H39   1.013439 S    
C167  O121  1.224847 D    
O7    C3    1.278975 A    
C180  O148  1.395900 S    
N3    O82   1.301349 A    
C154  O63   1.223063 D    
C67   C71   1.393871 A    
C173  O134  1.398189 S    
C26   N14   1.482173 S    
C183  O154  1.396046 S    
O23   Cr11  1.912797 S    
O32   Cr4   1.923159 S    
C53   C57   1.420652 A    
C68   H4    1.081942 S    
O128  H30   1.008793 S    
C162  O112  1.406614 S    
O154  H43   1.013904 S    
C125  C129  1.407847 A    
C39   C44   1.653723 S    
C7    O19   1.275197 A    
C184  O156  1.394313 S    
C160  O75   1.223102 D    
Cr4   O52   1.988365 S    
C115  C119  1.411160 A    
O2    Cr2   2.038718 S    
C136  C140  1.433329 S    
Cr6   O50   1.998381 S    
C169  O126  1.394344 S    
C6    C33   1.414381 S    
C120  C136  1.411265 A    
C63   C75   1.414846 A    
C64   C68   1.397087 A    
C182  O152  1.394314 S    
C122  C134  1.405928 A    
O9    Cr5   2.034043 S    
C156  O68   1.397448 S    
C176  O140  1.401189 S    
O16   C8    1.280550 A    
C50   C82   1.200306 T    
C18   C90   1.423161 S    
O162  H47   1.012001 S    
C157  O70   1.398390 S    
N11   O97   1.301291 A    
O7    Cr3   1.931034 S    
N15   O105  1.299306 A    
N5    O85   1.300761 A    
C99   C155  1.489323 S    
C53   C177  1.481166 S    
C28   C31   1.655684 S    
C158  O72   1.398224 S    
C171  O130  1.394344 S    
C128  C132  1.413034 A    
O134  H33   1.012972 S    
O158  H45   1.012001 S    
C133  C137  1.435435 S    
C150  O55   1.228642 D    
Cr2   O50   1.988365 S    
C152  O60   1.396285 S    
C176  O139  1.223113 D    
C41   C174  1.559461 S    
O14   Cr6   1.932072 S    
N3    O81   1.301244 A    
C153  O62   1.397826 S    
N7    O89   1.300768 A    
C61   C185  1.492865 S    
O70   H17   1.014088 S    
N14   O103  1.299945 A    
C174  O135  1.223113 D    
O38   C18   1.281836 A    
O25   Cr1   2.048197 S    
N12   O99   1.300943 A    
C62   C74   1.417355 A    
C14   C147  1.421341 S    
C20   C92   1.423138 S    
C40   C47   1.474707 S    
C109  C141  1.199063 T    
O66   H15   1.012937 S    
C27   N15   1.478350 S    
C10   C50   1.424554 S    
C62   C186  1.493456 S    
C172  O131  1.227797 D    
C14   O34   1.272618 A    
C138  C146  1.197393 T    
N1    O78   1.301353 A    
N9    O94   1.301312 A    
C60   C184  1.493083 S    
O114  H23   1.013964 S    
C179  O145  1.222124 D    
O74   H19   1.014090 S    
N8    O92   1.301194 A    
O10   Cr6   2.037015 S    
C161  O109  1.213832 D    
O4    Cr4   2.038718 S    
C56   C60   1.419009 A    
C98   C101  1.413086 A    
C187  O162  1.395992 S    
O58   H11   1.014386 S    
C110  C142  1.197654 T    
C31   C152  1.573300 S    
C168  O123  1.224607 D    
O144  H38   1.013340 S    
