data_mof_unit_66243.cif
_audit_creation_date              2012-12-10T18:07:47-0500
_audit_creation_method            fapswitch 2.2
_symmetry_space_group_name_H-M    P1
_symmetry_Int_Tables_number       1
_space_group_crystal_system       triclinic
_cell_length_a                    10.675914
_cell_length_b                    12.767554
_cell_length_c                    13.897081
_cell_angle_alpha                 98.008431
_cell_angle_beta                  90.234731
_cell_angle_gamma                 92.584699
_cell_volume                      1873.7609577

loop_
_atom_site_label
_atom_site_type_symbol
_atom_type_description
_atom_site_fract_x
_atom_site_fract_y
_atom_site_fract_z
_atom_type_partial_charge
C1    C     C_R   0.498659 0.483525 0.315858 0.835164
C2    C     C_R   0.501341 0.516475 0.684141 0.835165
C3    C     C_2   0.458760 0.028952 0.477721 0.036288
C4    C     C_2   0.541240 0.971048 0.522279 0.036288
C5    C     C_1   0.527743 0.854163 0.517762 0.283673
C6    C     C_1   0.472257 0.145837 0.482238 0.283673
C7    C     C_R   0.259299 0.500978 0.499952 0.958963
C8    C     C_R   0.740701 0.499022 0.500048 0.958962
C9    C     C_3   0.039213 0.443503 0.418257 0.267795
C10   C     C_3   0.960787 0.556497 0.581743 0.267794
C11   C     C_3   0.958970 0.541468 0.423113 0.266933
C12   C     C_3   0.041030 0.458532 0.576887 0.266933
C13   C     C_3   0.876592 0.497319 0.499947 -0.401473
C14   C     C_3   0.123408 0.502681 0.500053 -0.401473
C15   C     C_3   0.956254 0.399246 0.495088 0.311382
C16   C     C_3   0.043746 0.600753 0.504912 0.311382
C17   C     C_1   0.502227 0.525945 0.787521 -0.066842
C18   C     C_1   0.497773 0.474055 0.212479 -0.066842
C19   C     C_2   0.503940 0.543483 0.978479 -0.117077
C20   C     C_2   0.496060 0.456517 0.021521 -0.117077
C21   C     C_1   0.496954 0.465550 0.125383 0.067464
C22   C     C_1   0.503046 0.534450 0.874617 0.067464
Cu1   Cu    Cu3+1 0.491940 0.395330 0.493960 1.085945
Cu2   Cu    Cu3+1 0.508060 0.604670 0.506040 1.085945
H1    H     H_    0.488903 0.378243 0.979068 0.176843
H2    H     H_    0.511097 0.621757 0.020931 0.176843
N1    N     N_1   0.479830 0.238040 0.484880 -0.143693
N2    N     N_1   0.520170 0.761960 0.515120 -0.143693
O1    O     O_R   0.492210 0.399110 0.356330 -0.565605
O2    O     O_R   0.507790 0.600890 0.643670 -0.565605
O3    O     O_R   0.505820 0.575890 0.366540 -0.571868
O4    O     O_R   0.494180 0.424110 0.633460 -0.571868
O5    O     O_R   0.310050 0.411620 0.494870 -0.541676
O6    O     O_R   0.689950 0.588380 0.505130 -0.541676
O7    O     O_R   0.323660 0.588400 0.505080 -0.552493
O8    O     O_R   0.676340 0.411600 0.494920 -0.552493
Cl1   Cl    Cl    0.902266 0.595653 0.320656 -0.455604
Cl2   Cl    Cl    0.097734 0.404347 0.679344 -0.455604
Cl3   Cl    Cl    0.093458 0.369308 0.309431 -0.455357
Cl4   Cl    Cl    0.906542 0.630692 0.690569 -0.455357
Cl5   Cl    Cl    0.900163 0.264740 0.488638 -0.463161
Cl6   Cl    Cl    0.099836 0.735260 0.511362 -0.463161
C23   C     C_3   0.652552 0.025861 0.578132 -0.717122
H3    H     H_    0.709385 0.968338 0.610164 0.252276
H4    H     H_    0.713422 0.066587 0.528888 0.272759
H5    H     H_    0.620312 0.084939 0.638148 0.236484
C24   C     C_3   0.347448 0.974139 0.421868 -0.717122
H6    H     H_    0.290614 0.031661 0.389836 0.252276
H7    H     H_    0.379688 0.915061 0.361852 0.236484
H8    H     H_    0.286578 0.933413 0.471111 0.272759

loop_
_geom_bond_atom_site_label_1
_geom_bond_atom_site_label_2
_ccdc_geom_bond_type
C9    C14   S    
C19   H2    S    
C8    C13   S    
C4    C23   S    
Cu1   N1    S    
C5    N2    T    
C23   H4    S    
C11   C16   S    
C19   C20   D    
C12   C15   S    
C9    Cl3   S    
C23   H3    S    
C3    C6    S    
Cu1   O4    S    
C1    O1    A    
C9    C15   S    
Cu2   O3    S    
C24   H7    S    
C10   C16   S    
C6    N1    T    
C2    C17   S    
C7    O5    A    
C1    C18   S    
C10   C12   S    
Cu1   O1    S    
C10   Cl4   S    
C12   C14   S    
C24   H8    S    
Cu2   O2    S    
C9    C11   S    
C13   C15   S    
C12   Cl2   S    
C23   H5    S    
C14   C16   S    
C11   C13   S    
C20   H1    S    
Cu1   Cu2   S    
C3    C4    D    
Cu2   O7    S    
Cu2   N2    S    
C1    O3    A    
C19   C22   S    
C2    O2    A    
C20   C21   S    
C15   Cl5   S    
C2    O4    A    
Cu1   O8    S    
C8    O8    A    
C3    C24   S    
C11   Cl1   S    
C17   C22   T    
C18   C21   T    
C8    O6    A    
C16   Cl6   S    
C7    O7    A    
C7    C14   S    
Cu2   O6    S    
C24   H6    S    
C4    C5    S    
Cu1   O5    S    
C10   C13   S    
