data_mof_unit_21106.cif
_audit_creation_date              2012-12-10T18:09:36-0500
_audit_creation_method            fapswitch 2.2
_symmetry_space_group_name_H-M    P1
_symmetry_Int_Tables_number       1
_space_group_crystal_system       triclinic
_cell_length_a                    14.704909
_cell_length_b                    15.918967
_cell_length_c                    9.408863
_cell_angle_alpha                 89.044074
_cell_angle_beta                  89.999487
_cell_angle_gamma                 90.000035
_cell_volume                      2202.18561383

loop_
_atom_site_label
_atom_site_type_symbol
_atom_type_description
_atom_site_fract_x
_atom_site_fract_y
_atom_site_fract_z
_atom_type_partial_charge
C1    C     C_R   0.119441 0.379123 0.500552 0.905658
C2    C     C_R   0.119606 0.620659 0.499677 0.907396
C3    C     C_R   0.619603 0.879339 0.500322 0.907399
C4    C     C_R   0.619440 0.120877 0.499447 0.905641
C5    C     C_3   0.072294 0.556342 0.082315 -0.172954
C6    C     C_3   0.074367 0.554129 0.915052 -0.173303
C7    C     C_3   0.574435 0.945949 0.084942 -0.173254
C8    C     C_3   0.572355 0.943724 0.917680 -0.172917
C9    C     C_R   0.878500 0.381376 0.500280 0.785184
C10   C     C_R   0.878536 0.618775 0.499448 0.784082
C11   C     C_R   0.378538 0.881224 0.500552 0.784097
C12   C     C_R   0.378502 0.118626 0.499720 0.785185
C13   C     C_3   0.850446 0.228946 0.560561 -0.262327
C14   C     C_3   0.778055 0.294223 0.342993 -0.208167
C15   C     C_3   0.787302 0.714046 0.655607 -0.202042
C16   C     C_3   0.845801 0.767711 0.417660 -0.259089
C17   C     C_3   0.345817 0.732278 0.582292 -0.259107
C18   C     C_3   0.287286 0.785970 0.344387 -0.202043
C19   C     C_3   0.278075 0.205795 0.657009 -0.208167
C20   C     C_3   0.350443 0.271053 0.439405 -0.262331
C21   C     C_3   0.265245 0.673029 0.612465 0.270242
C22   C     C_3   0.226992 0.706461 0.346886 0.190012
C23   C     C_3   0.216735 0.284973 0.657213 0.187936
C24   C     C_3   0.272118 0.332056 0.405682 0.275193
C25   C     C_3   0.772127 0.167935 0.594279 0.275193
C26   C     C_3   0.716716 0.215045 0.342782 0.187957
C27   C     C_3   0.727006 0.793553 0.653104 0.190034
C28   C     C_3   0.765226 0.826958 0.387503 0.270228
C29   C     C_3   0.722859 0.337442 0.586726 -0.366421
C30   C     C_3   0.717929 0.658463 0.429202 -0.362890
C31   C     C_3   0.217942 0.841526 0.570836 -0.362899
C32   C     C_3   0.222853 0.162550 0.413307 -0.366412
C33   C     C_3   0.809175 0.312960 0.499528 -0.055228
C34   C     C_3   0.809112 0.687330 0.498922 -0.059244
C35   C     C_3   0.309115 0.812668 0.501075 -0.059230
C36   C     C_3   0.309178 0.187043 0.500473 -0.055238
C37   C     C_3   0.188190 0.689919 0.500211 -0.062665
C38   C     C_3   0.188006 0.309646 0.501216 -0.064529
C39   C     C_3   0.688005 0.190355 0.498780 -0.064540
C40   C     C_3   0.688186 0.810079 0.499787 -0.062673
C41   C     C_3   0.142952 0.773737 0.547408 -0.550328
C42   C     C_3   0.146567 0.229086 0.434698 -0.551388
C43   C     C_3   0.646572 0.270907 0.565337 -0.551375
C44   C     C_3   0.642943 0.726255 0.452632 -0.550334
C45   C     C_3   0.912398 0.527306 0.082664 -0.186686
C46   C     C_3   0.914111 0.531591 0.915403 -0.181851
C47   C     C_3   0.019454 0.415040 0.086295 -0.191132
C48   C     C_3   0.014456 0.414498 0.919147 -0.181224
C49   C     C_3   0.514348 0.085517 0.080853 -0.181164
C50   C     C_3   0.519362 0.084977 0.913705 -0.191129
C51   C     C_3   0.414149 0.968319 0.084603 -0.181904
C52   C     C_3   0.412428 0.972611 0.917343 -0.186734
Cu1   Cu    Cu3+1 0.000100 0.500000 0.642410 0.955951
Cu2   Cu    Cu3+1 0.000100 0.500000 0.357590 0.949879
Cu3   Cu    Cu3+1 0.500100 0.000000 0.642410 0.949869
Cu4   Cu    Cu3+1 0.500100 0.000000 0.357590 0.955956
H1    H     H_    0.894326 0.201612 0.476655 0.195635
H2    H     H_    0.839069 0.282513 0.276174 0.174110
H3    H     H_    0.852111 0.727776 0.711800 0.175148
H4    H     H_    0.895444 0.799645 0.487895 0.195472
H5    H     H_    0.395445 0.700351 0.512021 0.195486
H6    H     H_    0.352088 0.772246 0.288169 0.175136
H7    H     H_    0.339095 0.217512 0.723807 0.174093
H8    H     H_    0.394325 0.298400 0.523293 0.195640
H9    H     H_    0.236392 0.687040 0.719258 0.116027
H10   H     H_    0.168922 0.714967 0.271804 0.122603
H11   H     H_    0.154079 0.272078 0.720584 0.127915
H12   H     H_    0.251115 0.325344 0.292428 0.124671
H13   H     H_    0.751135 0.174626 0.707542 0.124692
H14   H     H_    0.654051 0.227946 0.279436 0.127919
H15   H     H_    0.668945 0.785053 0.728205 0.122619
H16   H     H_    0.736356 0.812937 0.280725 0.116022
H17   H     H_    0.740590 0.340481 0.701501 0.192169
H18   H     H_    0.697505 0.400704 0.554056 0.196546
H19   H     H_    0.695074 0.597021 0.474477 0.197984
H20   H     H_    0.728418 0.649500 0.313322 0.192136
H21   H     H_    0.228445 0.850475 0.686716 0.192126
H22   H     H_    0.195080 0.902973 0.525590 0.197984
H23   H     H_    0.197504 0.099291 0.446002 0.196548
H24   H     H_    0.240572 0.159500 0.298528 0.192170
H25   H     H_    0.103698 0.764309 0.647568 0.198025
H26   H     H_    0.093910 0.796223 0.465069 0.207678
H27   H     H_    0.092512 0.202703 0.505195 0.208547
H28   H     H_    0.114119 0.243837 0.330355 0.198167
H29   H     H_    0.614137 0.256145 0.669687 0.198173
H30   H     H_    0.592508 0.297297 0.494866 0.208534
H31   H     H_    0.593910 0.703778 0.534992 0.207690
H32   H     H_    0.603676 0.735672 0.352481 0.198025
H33   H     H_    0.893588 0.589943 0.122309 0.176665
H34   H     H_    0.903590 0.598041 0.881401 0.161629
H35   H     H_    0.088111 0.393024 0.119560 0.166949
H36   H     H_    0.077432 0.385584 0.877313 0.191508
H37   H     H_    0.577280 0.114504 0.122702 0.191463
H38   H     H_    0.587998 0.107055 0.880447 0.166898
H39   H     H_    0.403709 0.901855 0.118600 0.161594
H40   H     H_    0.393685 0.909958 0.877696 0.176683
H41   H     H_    0.857871 0.483645 0.118897 0.162435
H42   H     H_    0.856355 0.494841 0.872211 0.166024
H43   H     H_    0.970067 0.368878 0.131224 0.154795
H44   H     H_    0.956544 0.374488 0.888076 0.171916
H45   H     H_    0.456376 0.125462 0.111909 0.171892
H46   H     H_    0.469930 0.131096 0.868773 0.154808
H47   H     H_    0.356351 0.005009 0.127803 0.166065
H48   H     H_    0.357853 0.016223 0.881119 0.162450
H49   H     H_    0.060113 0.621907 0.116280 0.166789
H50   H     H_    0.066787 0.619542 0.873382 0.149761
H51   H     H_    0.140108 0.537736 0.124508 0.213440
H52   H     H_    0.141929 0.531320 0.878904 0.212855
H53   H     H_    0.641969 0.968833 0.121077 0.212926
H54   H     H_    0.640148 0.962384 0.875466 0.213434
H55   H     H_    0.566939 0.880528 0.126615 0.149775
H56   H     H_    0.560234 0.878145 0.883734 0.166767
N1    N     N_3   0.001260 0.500000 0.143650 -0.144948
N2    N     N_3   0.001260 0.500000 0.856350 -0.148764
N3    N     N_3   0.501260 0.000000 0.143650 -0.148780
N4    N     N_3   0.501260 0.000000 0.856350 -0.144955
O1    O     O_R   0.091250 0.408820 0.620260 -0.555221
O2    O     O_R   0.091250 0.408820 0.379740 -0.592563
O3    O     O_R   0.091250 0.591180 0.620260 -0.588439
O4    O     O_R   0.091250 0.591180 0.379740 -0.571688
O5    O     O_R   0.591250 0.908820 0.620260 -0.571695
O6    O     O_R   0.591250 0.908820 0.379740 -0.588423
O7    O     O_R   0.591250 0.091180 0.620260 -0.592574
O8    O     O_R   0.591250 0.091180 0.379740 -0.555193
O9    O     O_R   0.908940 0.408800 0.620260 -0.594304
O10   O     O_R   0.908940 0.408800 0.379740 -0.607362
O11   O     O_R   0.908940 0.591200 0.620260 -0.606631
O12   O     O_R   0.908940 0.591200 0.379740 -0.593425
O13   O     O_R   0.408940 0.908800 0.620260 -0.593430
O14   O     O_R   0.408940 0.908800 0.379740 -0.606641
O15   O     O_R   0.408940 0.091200 0.620260 -0.607356
O16   O     O_R   0.408940 0.091200 0.379740 -0.594307
C53   C     C_1   0.909976 0.234666 0.686151 0.271654
N5    N     N_1   0.957529 0.235630 0.783938 -0.286840
C54   C     C_1   0.730043 0.366443 0.275636 0.227164
N6    N     N_1   0.692298 0.422758 0.223312 -0.261307
C55   C     C_1   0.741583 0.646319 0.738999 0.217373
N7    N     N_1   0.705346 0.593730 0.803793 -0.271800
C56   C     C_1   0.894632 0.753178 0.282964 0.283518
N8    N     N_1   0.933233 0.743703 0.177292 -0.288983
C57   C     C_1   0.394681 0.746792 0.716965 0.283472
N9    N     N_1   0.433312 0.756250 0.822614 -0.288947
C58   C     C_1   0.241558 0.853705 0.261032 0.217357
N10   N     N_1   0.205312 0.906301 0.196266 -0.271789
C59   C     C_1   0.230070 0.133582 0.724403 0.227202
N11   N     N_1   0.192330 0.077272 0.776755 -0.261324
C60   C     C_1   0.409967 0.265321 0.313809 0.271670
N12   N     N_1   0.457517 0.264346 0.216017 -0.286863
Cl1   Cl    Cl    0.303871 0.568392 0.636488 -0.433970
Cl2   Cl    Cl    0.289979 0.619802 0.279005 -0.533601
Cl3   Cl    Cl    0.273353 0.368574 0.747637 -0.537351
Cl4   Cl    Cl    0.312620 0.436146 0.411679 -0.420175
Cl5   Cl    Cl    0.812636 0.063850 0.588212 -0.420173
Cl6   Cl    Cl    0.773322 0.131454 0.252312 -0.537377
Cl7   Cl    Cl    0.789997 0.880220 0.720945 -0.533589
Cl8   Cl    Cl    0.803850 0.931593 0.363429 -0.434010

loop_
_geom_bond_atom_site_label_1
_geom_bond_atom_site_label_2
_ccdc_geom_bond_type
C12   O16   A    
C16   C28   S    
Cu3   Cu4   S    
Cu3   O5    S    
C12   O15   A    
Cu2   O4    S    
C60   N12   T    
C13   C25   S    
C14   C33   S    
C22   Cl2   S    
C59   N11   T    
C7    C8    S    
C24   H12   S    
C5    H49   S    
Cu1   Cu2   S    
C47   H35   S    
Cu2   O10   S    
C19   C59   S    
C32   C36   S    
C18   C58   S    
C38   C42   S    
C19   C36   S    
C8    H56   S    
C49   H45   S    
C5    C6    S    
Cu1   O1    S    
C26   C39   S    
C29   H17   S    
Cu3   N4    S    
C28   C40   S    
C51   H47   S    
C58   N10   T    
Cu2   N1    S    
C29   C33   S    
C47   H43   S    
C4    O8    A    
C17   C57   S    
C16   H4    S    
C7    N3    S    
C6    N2    S    
C24   Cl4   S    
C17   H5    S    
C21   H9    S    
C22   H10   S    
C20   C24   S    
C19   H7    S    
Cu3   O13   S    
C24   C38   S    
C21   Cl1   S    
C12   C36   S    
C44   H31   S    
Cu1   O11   S    
C18   C35   S    
C15   C34   S    
C3    O6    A    
C16   C34   S    
C46   H42   S    
C29   C43   S    
C9    C33   S    
C30   C44   S    
C28   H16   S    
C13   C53   S    
C10   O12   A    
C11   O13   A    
C31   H21   S    
C52   N4    S    
C27   Cl7   S    
C14   H2    S    
Cu3   O7    S    
C30   C34   S    
C25   Cl5   S    
C51   C52   S    
C43   H29   S    
C54   N6    T    
C48   H44   S    
C42   H28   S    
C2    O4    A    
C50   H38   S    
C39   C43   S    
C29   H18   S    
C45   C46   S    
C22   C37   S    
Cu2   O12   S    
C9    O9    A    
C7    H53   S    
C4    O7    A    
Cu4   O6    S    
C20   H8    S    
C19   C23   S    
C13   C33   S    
C8    H54   S    
C32   H24   S    
C30   H20   S    
C15   C27   S    
C47   C48   S    
C4    C39   S    
C27   C40   S    
C56   N8    T    
C41   H25   S    
C6    H50   S    
C20   C60   S    
C21   C37   S    
C10   C34   S    
C1    O1    A    
C14   C26   S    
Cu4   O16   S    
Cu1   O9    S    
C1    C38   S    
C49   N3    S    
C3    C40   S    
C50   H46   S    
Cu3   O15   S    
Cu2   O2    S    
C53   N5    T    
C26   H14   S    
C31   C35   S    
C26   Cl6   S    
C16   C56   S    
C25   H13   S    
C10   O11   A    
C11   O14   A    
Cu4   O8    S    
C27   H15   S    
Cu1   N2    S    
C31   H22   S    
C48   N2    S    
C5    H51   S    
C47   N1    S    
C23   Cl3   S    
C52   H48   S    
C6    H52   S    
C45   H33   S    
C31   C41   S    
C5    N1    S    
C18   C22   S    
C43   H30   S    
C15   H3    S    
C18   H6    S    
C42   H27   S    
C46   N2    S    
C2    O3    A    
Cu1   O3    S    
C46   H34   S    
C23   C38   S    
C55   N7    T    
C9    O10   A    
C11   C35   S    
C45   H41   S    
C57   N9    T    
C25   C39   S    
C32   H23   S    
C30   H19   S    
C2    C37   S    
C23   H11   S    
C41   H26   S    
Cu4   N3    S    
C7    H55   S    
C52   H40   S    
C50   N4    S    
C1    O2    A    
C37   C41   S    
C51   N3    S    
C8    N4    S    
C20   C36   S    
C45   N1    S    
C40   C44   S    
C13   H1    S    
C49   C50   S    
C48   H36   S    
C28   Cl8   S    
C32   C42   S    
C17   C35   S    
C49   H37   S    
C44   H32   S    
Cu4   O14   S    
C14   C54   S    
C3    O5    A    
C51   H39   S    
C15   C55   S    
C17   C21   S    
