data_mof_unit_6823.cif
_audit_creation_date              2012-12-10T18:59:12-0500
_audit_creation_method            fapswitch 2.2
_symmetry_space_group_name_H-M    P1
_symmetry_Int_Tables_number       1
_space_group_crystal_system       triclinic
_cell_length_a                    9.903201
_cell_length_b                    10.689252
_cell_length_c                    16.829237
_cell_angle_alpha                 88.194392
_cell_angle_beta                  96.445529
_cell_angle_gamma                 88.898079
_cell_volume                      1768.90139922

loop_
_atom_site_label
_atom_site_type_symbol
_atom_type_description
_atom_site_fract_x
_atom_site_fract_y
_atom_site_fract_z
_atom_type_partial_charge
C1    C     C_R   0.501013 0.260091 0.500824 0.875014
C2    C     C_R   0.499122 0.739944 0.499438 0.875586
C3    C     C_R   0.389792 0.936755 0.526298 -0.182827
C4    C     C_R   0.611754 0.063329 0.475513 -0.174833
C5    C     C_R   0.498703 0.872533 0.499265 -0.013263
C6    C     C_R   0.502088 0.127537 0.501759 -0.016136
C7    C     C_R   0.059888 0.590924 0.456908 0.156735
C8    C     C_R   0.941254 0.412120 0.545182 0.171673
C9    C     C_R   0.915949 0.588054 0.456661 -0.069599
C10   C     C_R   0.083577 0.409679 0.541020 -0.075298
C11   C     C_R   0.519402 0.504525 0.652953 0.895481
C12   C     C_R   0.480305 0.497741 0.346970 0.899388
C13   C     C_R   0.534415 0.519443 0.738664 -0.076010
C14   C     C_R   0.464328 0.492969 0.260793 -0.076380
C15   C     C_R   0.441539 0.594103 0.775073 0.129860
C16   C     C_R   0.553359 0.419322 0.221231 0.126678
C17   C     C_R   0.452710 0.596855 0.857806 -0.179575
C18   C     C_R   0.544612 0.428059 0.138569 -0.179389
C19   C     C_R   0.555188 0.525672 0.904466 0.286887
C20   C     C_R   0.448340 0.509953 0.095110 0.287060
C21   C     C_R   0.653342 0.460899 0.867901 -0.173738
C22   C     C_R   0.353325 0.574567 0.134296 -0.174920
C23   C     C_R   0.642839 0.457526 0.785227 -0.263847
C24   C     C_R   0.361295 0.566402 0.217089 -0.252953
C25   C     C_R   0.391358 0.064806 0.527466 -0.182681
C26   C     C_R   0.609786 0.935273 0.473901 -0.179713
H1    H     H_    0.614029 0.372011 0.108304 0.172129
H2    H     H_    0.379764 0.652541 0.885650 0.172665
H3    H     H_    0.733988 0.407885 0.903617 0.153334
H4    H     H_    0.276783 0.635148 0.100836 0.152881
H5    H     H_    0.716026 0.402581 0.757681 0.173259
H6    H     H_    0.290533 0.621087 0.247152 0.158433
H7    H     H_    0.306831 0.114425 0.548895 0.153630
H8    H     H_    0.694372 0.885671 0.452517 0.149085
H9    H     H_    0.305089 0.888399 0.547583 0.171636
H10   H     H_    0.697326 0.111827 0.455210 0.175579
H11   H     H_    0.849381 0.657036 0.423539 0.136917
H12   H     H_    0.148197 0.336722 0.571866 0.135017
N1    N     N_2   0.558367 0.511678 0.987989 -0.189741
N2    N     N_2   0.445258 0.529318 0.011923 -0.189761
N3    N     N_R   0.857210 0.499970 0.500020 -0.107054
N4    N     N_R   0.142790 0.500030 0.499980 -0.107034
O1    O     O_R   0.614620 0.316750 0.500010 -0.638426
O2    O     O_R   0.385380 0.683250 0.499990 -0.638275
O3    O     O_R   0.385290 0.316780 0.500000 -0.625191
O4    O     O_R   0.614710 0.683220 0.500000 -0.626482
O5    O     O_R   0.627460 0.498830 0.616130 -0.634314
O6    O     O_R   0.372540 0.501170 0.383870 -0.635470
O7    O     O_R   0.398130 0.498850 0.616130 -0.587237
O8    O     O_R   0.601870 0.501150 0.383870 -0.587695
Zn1   Zn    Zn3+2 0.653130 0.499980 0.500000 0.955555
Zn2   Zn    Zn3+2 0.346870 0.500020 0.500000 0.953456
I1    I     I_    0.699367 0.289106 0.280501 -0.394529
I2    I     I_    0.284987 0.709204 0.711363 -0.404138
C27   C     C_3   0.122108 0.698859 0.414098 -0.380238
C28   C     C_3   0.027842 0.770855 0.348491 -0.451981
C29   C     C_3   0.106374 0.867343 0.304321 -0.819418
H13   H     H_    0.154465 0.935136 0.346908 0.268081
H14   H     H_    0.186384 0.820671 0.273871 0.249264
H15   H     H_    0.035597 0.919477 0.258504 0.263666
H16   H     H_    0.980320 0.704429 0.304717 0.243581
H17   H     H_    0.947029 0.822560 0.375592 0.227423
H18   H     H_    0.158455 0.766740 0.459658 0.217874
H19   H     H_    0.208615 0.662575 0.385307 0.251438
C30   C     C_3   0.887322 0.313159 0.598904 -0.412933
C31   C     C_3   0.957290 0.311523 0.685438 -0.399355
C32   C     C_3   0.908707 0.202245 0.734778 -0.857282
H20   H     H_    0.796112 0.202948 0.731444 0.254973
H21   H     H_    0.943614 0.112048 0.712137 0.272996
H22   H     H_    0.951560 0.208993 0.798318 0.258973
H23   H     H_    0.069248 0.301175 0.687639 0.231612
H24   H     H_    0.934744 0.401241 0.713380 0.240144
H25   H     H_    0.779253 0.328763 0.603401 0.265205
H26   H     H_    0.901027 0.220197 0.572685 0.194546

loop_
_geom_bond_atom_site_label_1
_geom_bond_atom_site_label_2
_ccdc_geom_bond_type
C2    O2    A    
C12   O8    A    
C27   C28   S    
C4    H10   S    
C21   H3    S    
C11   O7    A    
C7    C27   S    
C5    C26   A    
C10   N4    A    
C32   H22   S    
C11   O5    A    
C31   H23   S    
C3    H9    S    
C10   H12   S    
O7    Zn2   S    
O1    Zn1   S    
C27   H19   S    
O2    Zn2   S    
C9    H11   S    
C31   C32   S    
C12   C14   S    
C30   H26   S    
N3    Zn1   S    
C8    C30   S    
C2    O4    A    
C11   C13   S    
C1    O3    A    
C29   H13   S    
C28   H17   S    
C27   H18   S    
C19   N1    S    
C4    C6    A    
C19   C21   A    
C12   O6    A    
C1    O1    A    
O8    Zn1   S    
C22   C24   A    
C13   C15   A    
C21   C23   A    
C20   N2    S    
C14   C16   A    
C4    C26   A    
C29   H14   S    
C6    C25   A    
C28   C29   S    
C20   C22   A    
C14   C24   A    
C32   H20   S    
C2    C5    S    
C15   I2    S    
C7    C9    A    
O6    Zn2   S    
C3    C25   A    
C30   H25   S    
C8    N3    A    
C13   C23   A    
C18   C20   A    
C16   C18   A    
C30   C31   S    
C7    N4    A    
C25   H7    S    
N1    N2    D    
C15   C17   A    
C3    C5    A    
C16   I1    S    
C29   H15   S    
O5    Zn1   S    
C22   H4    S    
O3    Zn2   S    
C17   C19   A    
C28   H16   S    
C17   H2    S    
C9    N3    A    
O4    Zn1   S    
C26   H8    S    
C8    C10   A    
C31   H24   S    
C18   H1    S    
C1    C6    S    
N4    Zn2   S    
C32   H21   S    
C24   H6    S    
C23   H5    S    
