data_mof_unit_6015.cif
_audit_creation_date              2012-12-11T15:41:19-0500
_audit_creation_method            fapswitch 2.2
_symmetry_space_group_name_H-M    P1
_symmetry_Int_Tables_number       1
_space_group_crystal_system       triclinic
_cell_length_a                    19.076522
_cell_length_b                    11.097036
_cell_length_c                    18.788602
_cell_angle_alpha                 90.250592
_cell_angle_beta                  90.426294
_cell_angle_gamma                 90.730136
_cell_volume                      3976.93999446

loop_
_atom_site_label
_atom_site_type_symbol
_atom_type_description
_atom_site_fract_x
_atom_site_fract_y
_atom_site_fract_z
_atom_type_partial_charge
C1    C     C_R   0.709033 0.001288 0.861056 0.550925
C2    C     C_R   0.292934 0.498758 0.043619 0.082091
C3    C     C_R   0.760819 0.859752 0.354663 0.538479
C4    C     C_2   0.498909 0.171360 0.920797 -0.120046
C5    C     C_2   0.500475 0.159654 0.077859 -0.123816
C6    C     C_2   0.999053 0.671221 0.920952 -0.120704
C7    C     C_2   0.000960 0.659151 0.078101 -0.124527
C8    C     C_2   0.478884 0.066825 0.034478 0.251891
C9    C     C_2   0.490738 0.067375 0.956556 0.238118
C10   C     C_2   0.979268 0.566337 0.034723 0.251026
C11   C     C_2   0.990456 0.567197 0.956628 0.235684
C12   C     C_R   0.746326 0.398865 0.081700 0.008111
C13   C     C_R   0.192701 0.954557 0.965052 0.086583
C14   C     C_R   0.218903 0.488682 0.937865 -0.012511
C15   C     C_R   0.247890 0.910025 0.078877 0.009854
C16   C     C_R   0.719721 0.984142 0.937354 -0.007102
C17   C     C_3   0.481295 0.878524 0.081461 -0.070493
C18   C     C_3   0.426705 0.940382 0.885085 -0.074731
C19   C     C_3   0.983510 0.378674 0.082278 -0.073057
C20   C     C_3   0.924577 0.439250 0.887820 -0.069410
C21   C     C_3   0.928134 0.226320 0.632300 -0.106660
C22   C     C_3   0.081152 0.183750 0.373675 -0.116146
C23   C     C_3   0.428144 0.726378 0.632330 -0.107028
C24   C     C_R   0.793611 0.995573 0.042951 0.084780
C25   C     C_3   0.581153 0.683744 0.373676 -0.116214
C26   C     C_R   0.782245 0.292402 0.976280 -0.166330
C27   C     C_R   0.176062 0.418377 0.052238 -0.180051
C28   C     C_R   0.285155 0.809717 0.972720 -0.153957
C29   C     C_R   0.676415 0.916178 0.051916 -0.179156
C30   C     C_R   0.788404 0.312933 0.048781 -0.119301
C31   C     C_R   0.164100 0.445375 0.980486 -0.182350
C32   C     C_R   0.286637 0.820155 0.046029 -0.121163
C33   C     C_R   0.272559 0.956834 0.146695 0.565198
C34   C     C_R   0.664695 0.941861 0.980016 -0.182171
C35   C     C_3   0.662791 0.569366 0.035963 -0.208371
C36   C     C_3   0.356182 0.504562 0.951820 -0.209602
C37   C     C_3   0.183631 0.103812 0.032945 -0.193409
C38   C     C_3   0.856954 0.998058 0.950864 -0.209515
C39   C     C_3   0.654531 0.542285 0.956644 0.191399
C40   C     C_3   0.369436 0.482442 0.030846 0.186482
C41   C     C_3   0.178110 0.085123 0.952754 0.179641
C42   C     C_3   0.870155 0.978952 0.030195 0.187010
C43   C     C_R   0.730022 0.347558 0.935733 0.005871
C44   C     C_R   0.208666 0.502626 0.860975 0.562378
C45   C     C_R   0.243285 0.433900 0.083068 0.002992
C46   C     C_R   0.240940 0.881454 0.930871 0.012282
C47   C     C_R   0.743620 0.932276 0.082773 0.006347
C48   C     C_R   0.512870 0.173368 0.418120 0.037260
C49   C     C_R   0.527117 0.168398 0.564956 0.020959
C50   C     C_R   0.012871 0.673358 0.418120 0.037322
C51   C     C_R   0.027112 0.668398 0.564957 0.021225
C52   C     C_R   0.525810 0.279930 0.456164 -0.025609
C53   C     C_R   0.531752 0.276510 0.528328 -0.004521
C54   C     C_R   0.025828 0.779919 0.456160 -0.025623
C55   C     C_R   0.772309 0.455327 0.147018 0.565882
C56   C     C_R   0.031764 0.776505 0.528325 -0.004529
C57   C     C_R   0.531946 0.058916 0.526046 0.081141
C58   C     C_R   0.525439 0.062980 0.451012 0.077751
C59   C     C_R   0.031925 0.558910 0.526053 0.081104
C60   C     C_R   0.025420 0.562966 0.451019 0.077771
C61   C     C_R   0.530239 0.177880 0.850424 0.541196
C62   C     C_R   0.469383 0.176515 0.148846 0.578640
C63   C     C_R   0.030186 0.677818 0.850427 0.548164
C64   C     C_R   0.969618 0.676405 0.148986 0.578061
C65   C     C_3   0.485009 0.394413 0.460230 -0.259498
C66   C     C_R   0.688847 0.443532 0.043346 -0.039091
C67   C     C_3   0.491780 0.389199 0.539906 -0.257383
C68   C     C_3   0.985048 0.894426 0.460219 -0.259496
C69   C     C_3   0.991806 0.889211 0.539895 -0.257343
C70   C     C_R   0.757120 0.417470 0.424491 -0.007992
C71   C     C_R   0.246395 0.410936 0.577267 -0.001924
C72   C     C_R   0.257130 0.917493 0.424500 -0.008075
C73   C     C_R   0.746400 0.910915 0.577272 -0.001904
C74   C     C_R   0.814906 0.383302 0.465006 0.014090
C75   C     C_R   0.192696 0.354714 0.538873 0.036144
C76   C     C_R   0.314920 0.883352 0.465018 0.013918
C77   C     C_R   0.281404 0.522688 0.972042 -0.021501
C78   C     C_R   0.692702 0.854693 0.538877 0.036006
C79   C     C_R   0.812945 0.378207 0.538587 0.046378
C80   C     C_R   0.191771 0.352011 0.465486 0.034911
C81   C     C_R   0.312954 0.878252 0.538599 0.046201
C82   C     C_R   0.691778 0.851992 0.465490 0.034965
C83   C     C_R   0.690749 0.434905 0.532674 -0.163988
C84   C     C_R   0.302097 0.460901 0.465271 -0.178163
C85   C     C_R   0.190757 0.934930 0.532681 -0.163401
C86   C     C_R   0.802107 0.960870 0.465278 -0.178123
C87   C     C_R   0.693869 0.439231 0.458559 -0.177509
C88   C     C_R   0.197532 0.971534 0.038269 -0.038901
C89   C     C_R   0.302539 0.461144 0.539783 -0.183352
C90   C     C_R   0.193878 0.939251 0.458566 -0.177618
C91   C     C_R   0.802548 0.961110 0.539789 -0.183394
C92   C     C_3   0.848812 0.264381 0.457829 -0.202682
C93   C     C_3   0.169771 0.226821 0.545166 -0.215880
C94   C     C_3   0.348850 0.764450 0.457847 -0.202715
C95   C     C_3   0.669776 0.726798 0.545167 -0.216008
C96   C     C_3   0.850495 0.259645 0.537701 0.161146
C97   C     C_3   0.163132 0.224768 0.464879 0.146975
C98   C     C_3   0.350519 0.759707 0.537719 0.161449
C99   C     C_R   0.782388 0.016822 0.971198 -0.023314
C100  C     C_3   0.663136 0.724751 0.464879 0.147043
C101  C     C_R   0.749797 0.402739 0.573557 -0.029105
C102  C     C_R   0.248565 0.400923 0.427227 -0.016012
C103  C     C_R   0.249803 0.902767 0.573566 -0.028380
C104  C     C_R   0.748571 0.900904 0.427232 -0.015903
C105  C     C_R   0.725415 0.318798 0.860076 0.543194
C106  C     C_R   0.260997 0.365775 0.147774 0.557040
C107  C     C_R   0.236563 0.856641 0.855130 0.531901
C108  C     C_R   0.761067 0.865433 0.147750 0.561649
C109  C     C_R   0.728471 0.953251 0.648306 0.560812
C110  C     C_R   0.680288 0.417092 0.971239 0.082221
C111  C     C_R   0.272037 0.954762 0.352062 0.537312
C112  C     C_R   0.228470 0.453253 0.648306 0.558444
C113  C     C_R   0.772034 0.454756 0.352059 0.536934
C114  C     C_R   0.536417 0.176196 0.641156 0.552185
C115  C     C_R   0.472085 0.177735 0.353344 0.565810
C116  C     C_R   0.036415 0.676197 0.641157 0.551867
C117  C     C_R   0.972085 0.677734 0.353345 0.565585
C118  C     C_R   0.739019 0.359251 0.645579 0.548995
C119  C     C_R   0.260818 0.359756 0.354660 0.538848
C120  C     C_R   0.239021 0.859259 0.645582 0.542784
Cr1   Cr    Cr6+3 0.769260 0.163750 0.750730 0.968033
Cr2   Cr    Cr6+3 0.385810 0.322400 0.252290 1.006860
Cr3   Cr    Cr6+3 0.114190 0.822400 0.747710 1.020241
Cr4   Cr    Cr6+3 0.885810 0.822400 0.252290 1.007691
Cr5   Cr    Cr6+3 0.230740 0.163750 0.249270 0.975172
Cr6   Cr    Cr6+3 0.269260 0.663750 0.750730 0.971258
Cr7   Cr    Cr6+3 0.730740 0.663750 0.249270 0.976439
Cr8   Cr    Cr6+3 0.612640 0.009910 0.748780 1.028115
Cr9   Cr    Cr6+3 0.387360 0.009910 0.251220 1.031893
Cr10  Cr    Cr6+3 0.112640 0.509910 0.748780 1.036059
Cr11  Cr    Cr6+3 0.887360 0.509910 0.251220 1.032437
Cr12  Cr    Cr6+3 0.614190 0.322400 0.747710 1.016304
H1    H     H_    0.930476 0.880452 0.442461 0.170428
H2    H     H_    0.345250 0.502291 0.437340 0.125869
H3    H     H_    0.141228 0.951458 0.557877 0.152543
H4    H     H_    0.845259 0.002263 0.437348 0.125887
H5    H     H_    0.647551 0.461472 0.428442 0.133767
H6    H     H_    0.346180 0.501428 0.568187 0.119434
H7    H     H_    0.147561 0.961482 0.428447 0.133728
H8    H     H_    0.846189 0.001395 0.568194 0.119477
H9    H     H_    0.900939 0.269698 0.432395 0.165649
H10   H     H_    0.119274 0.216785 0.573847 0.172818
H11   H     H_    0.400979 0.769798 0.432425 0.165637
H12   H     H_    0.023753 0.964372 0.562691 0.154339
H13   H     H_    0.619279 0.716760 0.573847 0.172550
H14   H     H_    0.812407 0.197707 0.432794 0.091132
H15   H     H_    0.212665 0.169738 0.565998 0.093216
H16   H     H_    0.312464 0.697759 0.432804 0.091171
H17   H     H_    0.712670 0.669712 0.565996 0.093831
H18   H     H_    0.817626 0.186385 0.559319 0.138254
H19   H     H_    0.199023 0.161204 0.438829 0.148836
H20   H     H_    0.317656 0.686431 0.559327 0.138641
H21   H     H_    0.699025 0.661187 0.438827 0.148875
H22   H     H_    0.534341 0.230893 0.057818 0.033295
H23   H     H_    0.430437 0.380401 0.442478 0.170400
H24   H     H_    0.491285 0.256702 0.947000 0.039094
H25   H     H_    0.034848 0.730297 0.058019 0.035974
H26   H     H_    0.992003 0.756576 0.947285 0.039188
H27   H     H_    0.821805 0.239722 0.950982 0.146200
H28   H     H_    0.134761 0.373075 0.081042 0.122443
H29   H     H_    0.321626 0.749491 0.948541 0.148732
H30   H     H_    0.634815 0.872006 0.080963 0.123845
H31   H     H_    0.831661 0.272200 0.076768 0.178362
H32   H     H_    0.113929 0.422403 0.957075 0.183735
H33   H     H_    0.324335 0.768019 0.075673 0.171572
H34   H     H_    0.523723 0.464370 0.562696 0.154342
H35   H     H_    0.614382 0.919384 0.956704 0.186446
H36   H     H_    0.229769 0.159723 0.049393 0.169878
H37   H     H_    0.883448 0.079217 0.929014 0.133048
H38   H     H_    0.703910 0.638380 0.048412 0.169730
H39   H     H_    0.382777 0.586523 0.931168 0.133970
H40   H     H_    0.612433 0.582269 0.064250 0.098109
H41   H     H_    0.362653 0.423742 0.917362 0.126212
H42   H     H_    0.133512 0.128602 0.058695 0.104241
H43   H     H_    0.863243 0.915945 0.917458 0.125842
H44   H     H_    0.520913 0.908945 0.121636 0.098645
H45   H     H_    0.513286 0.472039 0.436315 0.155467
H46   H     H_    0.507322 0.836227 0.035093 0.134567
H47   H     H_    0.448678 0.808152 0.107197 0.146695
H48   H     H_    0.425730 0.992507 0.834776 0.123931
H49   H     H_    0.381195 0.965931 0.918328 0.153358
H50   H     H_    0.420828 0.843590 0.871069 0.138734
H51   H     H_    0.022620 0.410535 0.122572 0.100815
H52   H     H_    0.010082 0.337128 0.035989 0.132554
H53   H     H_    0.951724 0.307289 0.108076 0.141074
H54   H     H_    0.918964 0.498303 0.840548 0.124316
H55   H     H_    0.880466 0.454744 0.925049 0.162343
H56   H     H_    0.441418 0.371459 0.567423 0.135520
H57   H     H_    0.920939 0.344421 0.869140 0.142851
H58   H     H_    0.897758 0.142497 0.643250 0.124264
H59   H     H_    0.914354 0.299055 0.670208 0.150237
H60   H     H_    0.984131 0.205349 0.641769 0.121221
H61   H     H_    0.114287 0.108208 0.356326 0.133643
H62   H     H_    0.089282 0.262601 0.338681 0.158329
H63   H     H_    0.025774 0.154639 0.366039 0.109095
H64   H     H_    0.397783 0.642531 0.643254 0.124518
H65   H     H_    0.414344 0.799080 0.670249 0.148309
H66   H     H_    0.484144 0.705434 0.641806 0.120703
H67   H     H_    0.013344 0.972035 0.436309 0.155460
H68   H     H_    0.614289 0.608206 0.356323 0.133528
H69   H     H_    0.589280 0.762598 0.338683 0.158295
H70   H     H_    0.525776 0.654630 0.366041 0.109064
H71   H     H_    0.550626 0.487052 0.961330 0.210752
H72   H     H_    0.562961 0.631557 0.937276 0.223868
H73   H     H_    0.366632 0.297444 0.016259 0.215760
H74   H     H_    0.446238 0.360980 0.031455 0.214875
H75   H     H_    0.070592 0.056986 0.951294 0.212448
H76   H     H_    0.096576 0.197092 0.929324 0.237243
H77   H     H_    0.867606 0.793601 0.017754 0.214850
H78   H     H_    0.941438 0.871489 0.567404 0.135718
H79   H     H_    0.946996 0.858339 0.032357 0.217254
H80   H     H_    0.689472 0.704781 0.918832 0.242033
H81   H     H_    0.693221 0.592880 0.859289 0.274865
H82   H     H_    0.462996 0.572728 0.045886 0.209154
H83   H     H_    0.414365 0.558999 0.119787 0.253175
H84   H     H_    0.226801 0.239134 0.917914 0.249310
H85   H     H_    0.227714 0.125002 0.859183 0.258081
H86   H     H_    0.963766 0.069774 0.043701 0.211542
H87   H     H_    0.915403 0.058770 0.117999 0.252198
H88   H     H_    0.495025 0.935798 0.594088 0.267431
H89   H     H_    0.641220 0.451438 0.557872 0.152364
H90   H     H_    0.541617 0.873321 0.529037 0.290992
H91   H     H_    0.579760 0.927427 0.410149 0.265518
H92   H     H_    0.493019 0.893023 0.425275 0.264198
H93   H     H_    0.994953 0.435804 0.594075 0.267698
H94   H     H_    0.041594 0.373312 0.529054 0.290947
H95   H     H_    0.079713 0.427371 0.410165 0.265537
H96   H     H_    0.992965 0.393014 0.425301 0.264229
N1    N     N_3   0.581924 0.544269 0.930432 -0.597723
N2    N     N_3   0.528693 0.957716 0.407473 -0.615894
N3    N     N_3   0.039666 0.447021 0.563156 -0.574006
N4    N     N_3   0.028650 0.457686 0.407488 -0.615889
N5    N     N_3   0.394036 0.361845 0.046812 -0.568257
N6    N     N_3   0.108143 0.105906 0.922644 -0.597587
N7    N     N_3   0.894804 0.859139 0.047639 -0.565980
N8    N     N_3   0.702416 0.614095 0.912786 -0.606009
N9    N     N_3   0.411858 0.577083 0.065252 -0.654498
N10   N     N_3   0.233843 0.146387 0.913146 -0.628069
N11   N     N_3   0.912693 0.074845 0.063246 -0.654088
N12   N     N_3   0.539716 0.947027 0.563142 -0.573979
O1    O     O_R   0.784290 0.290360 0.830540 -0.554561
O2    O     O_R   0.456020 0.282110 0.333230 -0.547283
O3    O     O_R   0.043980 0.782110 0.666770 -0.528103
O4    O     O_R   0.956020 0.782110 0.333230 -0.547363
O5    O     O_R   0.679070 0.374030 0.674430 -0.500444
O6    O     O_R   0.320930 0.374030 0.325570 -0.509588
O7    O     O_R   0.179070 0.874030 0.674430 -0.502499
O8    O     O_R   0.820930 0.874030 0.325570 -0.509837
O9    O     O_3   0.665360 0.165350 0.749070 -0.289235
O10   O     O_3   0.334640 0.165350 0.250930 -0.249835
O11   O     O_3   0.165360 0.665350 0.749070 -0.275879
O12   O     O_R   0.215710 0.290360 0.169460 -0.544331
O13   O     O_3   0.834640 0.665350 0.250930 -0.249304
O14   O     O_R   0.762610 0.041070 0.825230 -0.515064
O15   O     O_R   0.237390 0.041070 0.174770 -0.511593
O16   O     O_R   0.262610 0.541070 0.825230 -0.507322
O17   O     O_R   0.737390 0.541070 0.174770 -0.509547
O18   O     O_R   0.667390 0.924160 0.829970 -0.508661
O19   O     O_R   0.332610 0.924160 0.170030 -0.496015
O20   O     O_R   0.167390 0.424160 0.829970 -0.510658
O21   O     O_R   0.832610 0.424160 0.170030 -0.497468
O22   O     O_R   0.553980 0.081420 0.821780 -0.477088
O23   O     O_R   0.284290 0.790360 0.830540 -0.561192
O24   O     O_R   0.446020 0.081420 0.178220 -0.460209
O25   O     O_R   0.053980 0.581420 0.821780 -0.473123
O26   O     O_R   0.946020 0.581420 0.178220 -0.458950
O27   O     O_R   0.543210 0.283170 0.826740 -0.511767
O28   O     O_R   0.456790 0.283170 0.173260 -0.502991
O29   O     O_R   0.043210 0.783170 0.826740 -0.515612
O30   O     O_R   0.956790 0.783170 0.173260 -0.502132
O31   O     O_R   0.678350 0.375000 0.822720 -0.477802
O32   O     O_R   0.321650 0.375000 0.177280 -0.467287
O33   O     O_R   0.178350 0.875000 0.822720 -0.475743
O34   O     O_R   0.715710 0.790360 0.169460 -0.542290
O35   O     O_R   0.821650 0.875000 0.177280 -0.467961
O36   O     O_R   0.785060 0.289300 0.670580 -0.538763
O37   O     O_R   0.214940 0.289300 0.329420 -0.543938
O38   O     O_R   0.285060 0.789300 0.670580 -0.541621
O39   O     O_R   0.714940 0.789300 0.329420 -0.544358
O40   O     O_R   0.763330 0.040090 0.676940 -0.517473
O41   O     O_R   0.236670 0.040090 0.323060 -0.530707
O42   O     O_R   0.263330 0.540090 0.676940 -0.518178
O43   O     O_R   0.736670 0.540090 0.323060 -0.531098
O44   O     O_R   0.668160 0.923110 0.670000 -0.490134
O45   O     O_R   0.554690 0.080440 0.673480 -0.486158
O46   O     O_R   0.331840 0.923110 0.330000 -0.516563
O47   O     O_R   0.168160 0.423110 0.670000 -0.490762
O48   O     O_R   0.831840 0.423110 0.330000 -0.516738
O49   O     O_3   0.437427 0.973489 0.060209 -0.519250
O50   O     O_3   0.491154 0.957233 0.921337 -0.572120
O51   O     O_3   0.938674 0.472134 0.060776 -0.522095
O52   O     O_3   0.990395 0.457308 0.921161 -0.574199
O53   O     O_3   0.920813 0.267183 0.561729 -0.593167
O54   O     O_3   0.091109 0.215305 0.445912 -0.598722
O55   O     O_3   0.420828 0.767276 0.561766 -0.593058
O56   O     O_R   0.445310 0.080440 0.326520 -0.469707
O57   O     O_3   0.591113 0.715297 0.445912 -0.598679
O58   O     O_R   0.054690 0.580440 0.673480 -0.486849
O59   O     O_R   0.945310 0.580440 0.326520 -0.469864
O60   O     O_R   0.543980 0.282110 0.666770 -0.527573

loop_
_geom_bond_atom_site_label_1
_geom_bond_atom_site_label_2
_ccdc_geom_bond_type
C100  H21   S    
Cr4   O13   S    
C50   C117  S    
C15   C32   A    
C98   H20   S    
Cr6   O38   S    
H74   N5    S    
C119  O6    A    
C39   N1    S    
Cr12  O5    S    
H87   N11   S    
Cr5   O15   S    
C61   O27   A    
C76   C94   S    
C23   H64   S    
C70   C74   A    
C43   C110  A    
Cr4   O4    S    
C85   C103  A    
Cr2   O6    S    
C59   C60   A    
C2    C45   A    
C35   H40   S    
C105  O1    A    
C37   H36   S    
C41   N10   S    
C27   C31   A    
C97   O54   S    
C33   O15   A    
C6    C11   D    
Cr10  O47   S    
C21   H60   S    
C35   C66   S    
C12   C66   A    
C4    C61   S    
Cr6   O11   S    
C6    C63   S    
H77   N7    S    
C78   C82   A    
C3    O39   A    
C96   H18   S    
C112  O42   A    
C66   C110  A    
C73   C109  S    
C63   O25   A    
C64   O30   A    
C11   O52   S    
C74   C79   A    
C3    O8    A    
C34   H35   S    
C109  O40   A    
C1    O14   A    
C75   C93   S    
C38   H37   S    
C1    O18   A    
C51   C116  S    
C40   N5    S    
C119  O37   A    
C5    C8    D    
Cr10  O20   S    
C85   C90   A    
Cr11  O13   S    
C7    H25   S    
C117  O59   A    
Cr8   O9    S    
Cr11  O48   S    
C36   C77   S    
H84   N10   S    
C79   C96   S    
C9    O50   S    
C49   C53   A    
H79   N7    S    
Cr6   O23   S    
C107  O33   A    
C20   H54   S    
C91   H8    S    
C83   H89   S    
C2    C40   S    
C48   C52   A    
C89   H6    S    
C25   H68   S    
C35   H38   S    
C82   C104  A    
H88   N12   S    
Cr6   O16   S    
C100  O57   S    
C52   C65   S    
C80   C97   S    
C84   C102  A    
C98   O55   S    
C14   C31   A    
C108  O35   A    
C86   C104  A    
Cr3   O3    S    
Cr2   O28   S    
Cr10  O11   S    
C69   H12   S    
Cr1   O1    S    
C18   O50   S    
C28   C46   A    
C29   C47   A    
C101  C118  S    
C68   H1    S    
C25   H69   S    
C54   C68   S    
C74   C92   S    
C92   C96   S    
C49   C57   A    
C96   O53   S    
C16   C34   A    
Cr10  O25   S    
Cr1   O9    S    
H83   N9    S    
Cr9   O24   S    
H91   N2    S    
C17   H47   S    
C18   H48   S    
C70   C87   A    
C6    H26   S    
Cr12  O9    S    
C8    O49   S    
C70   C113  S    
C94   H16   S    
C92   H14   S    
C20   O52   S    
C21   O53   S    
C18   H49   S    
C80   C102  A    
Cr4   O8    S    
C58   N2    S    
Cr2   O10   S    
C72   C90   A    
C42   N7    S    
C71   C112  S    
C33   O19   A    
C92   H9    S    
C120  O7    A    
Cr5   O41   S    
C26   C30   A    
C22   H63   S    
Cr8   O44   S    
C93   C97   S    
C52   C53   A    
C81   C103  A    
C31   H32   S    
Cr12  O60   S    
Cr7   O13   S    
C29   H30   S    
Cr9   O19   S    
C19   H52   S    
C50   C60   A    
C63   O29   A    
Cr1   O36   S    
C65   H23   S    
C64   O26   A    
Cr12  O27   S    
C27   C45   A    
C57   C58   A    
C65   H45   S    
C111  O46   A    
C37   C41   S    
C53   C67   S    
C12   C55   S    
C10   C11   S    
C102  C119  S    
C36   H41   S    
C56   C69   S    
C25   O57   S    
C79   C101  A    
C69   H78   S    
Cr7   O39   S    
C4    C9    D    
Cr3   O33   S    
C15   C88   A    
Cr11  O21   S    
C17   H46   S    
C7    C10   D    
C83   C87   A    
C24   C42   S    
C37   C88   S    
C103  C120  S    
C95   H13   S    
C13   C41   S    
C23   H66   S    
C84   H2    S    
C50   C54   A    
C68   H67   S    
H86   N11   S    
Cr8   O45   S    
C108  O34   A    
C86   C91   A    
C39   N8    S    
Cr4   O35   S    
C21   H59   S    
C81   C98   S    
C94   C98   S    
C5    H22   S    
C14   C77   A    
H72   N1    S    
C37   H42   S    
C68   C69   S    
C65   C67   S    
Cr7   O17   S    
C22   H61   S    
C112  O47   A    
Cr8   O22   S    
C83   C101  A    
Cr2   O32   S    
Cr3   O29   S    
C49   C114  S    
C72   C111  S    
C59   N3    S    
C19   O51   S    
C32   H33   S    
C114  O60   A    
C111  O41   A    
Cr11  O59   S    
C30   H31   S    
C23   O55   S    
C118  O36   A    
C62   O24   A    
C95   C100  S    
C29   C34   A    
C55   O17   A    
C35   C39   S    
C20   H57   S    
H92   N2    S    
C115  O2    A    
C28   C32   A    
C78   C95   S    
Cr4   O30   S    
C97   H19   S    
C26   H27   S    
C114  O45   A    
C1    C16   S    
C4    H24   S    
Cr10  O58   S    
C22   O54   S    
H96   N4    S    
C67   H56   S    
C14   C44   S    
C106  O12   A    
Cr9   O10   S    
Cr9   O46   S    
C12   C30   A    
C60   N4    S    
C44   O16   A    
C38   C99   S    
C42   N11   S    
C48   C58   A    
C10   O51   S    
C2    C77   A    
C19   H53   S    
C38   H43   S    
Cr5   O37   S    
Cr6   O42   S    
H90   N12   S    
H80   N8    S    
C117  O4    A    
C3    C104  S    
C105  O31   A    
C71   C75   A    
C106  O32   A    
C24   C99   A    
Cr1   O40   S    
C72   C76   A    
Cr12  O31   S    
C90   H7    S    
C118  O5    A    
Cr1   O14   S    
Cr2   O2    S    
Cr11  O26   S    
H93   N3    S    
C94   H11   S    
Cr5   O10   S    
C61   O22   A    
C38   C42   S    
C113  O48   A    
C13   C46   A    
C41   N6    S    
C18   H50   S    
H94   N3    S    
C51   C56   A    
C43   C105  S    
Cr7   O43   S    
C39   C110  S    
C8    C9    S    
C73   C78   A    
C95   H17   S    
H81   N8    S    
C75   C80   A    
C17   H44   S    
C62   O28   A    
H95   N4    S    
C116  O3    A    
C116  O58   A    
C44   O20   A    
C93   H10   S    
C87   H5    S    
C26   C43   A    
C54   C56   A    
C36   C40   S    
H82   N9    S    
C28   H29   S    
C73   C91   A    
C25   H70   S    
C19   H51   S    
H71   N1    S    
C109  O44   A    
Cr9   O56   S    
C27   H28   S    
Cr8   O18   S    
Cr3   O11   S    
C40   N9    S    
C120  O38   A    
C71   C89   A    
C46   C107  S    
C85   H3    S    
C48   C115  S    
C67   H34   S    
C86   H4    S    
C47   C108  S    
C51   C59   A    
C84   C89   A    
Cr7   O34   S    
H76   N6    S    
C45   C106  S    
C36   H39   S    
C115  O56   A    
C55   O21   A    
C24   C47   A    
C82   C100  S    
C113  O43   A    
Cr5   O12   S    
C76   C81   A    
C16   C99   A    
C23   H65   S    
H73   N5    S    
C20   H55   S    
Cr3   O7    S    
C21   H58   S    
C17   O49   S    
C13   C88   A    
C5    C62   S    
C93   H15   S    
C7    C64   S    
C57   N12   S    
C22   H62   S    
C107  O23   A    
H85   N10   S    
C15   C33   S    
H75   N6    S    
