data_mof_unit_65027.cif
_audit_creation_date              2013-03-05T16:43:45-0500
_audit_creation_method            fapswitch 2.2
_symmetry_space_group_name_H-M    P1
_symmetry_Int_Tables_number       1
_space_group_crystal_system       triclinic
_cell_length_a                    8.821748
_cell_length_b                    15.846569
_cell_length_c                    17.037014
_cell_angle_alpha                 95.552515
_cell_angle_beta                  90.846664
_cell_angle_gamma                 84.814872
_cell_volume                      2360.76072005

loop_
_atom_site_label
_atom_site_type_symbol
_atom_site_description
_atom_site_fract_x
_atom_site_fract_y
_atom_site_fract_z
_atom_type_partial_charge
O1    O     O_R   0.493000 0.421040 0.382520 -0.575781
O2    O     O_R   0.507000 0.578960 0.617480 -0.554527
O3    O     O_R   0.505640 0.563310 0.388930 -0.566297
O4    O     O_R   0.494360 0.436690 0.611070 -0.583374
C1    C     C_R   0.496700 0.490548 0.349000 0.906605
C2    C     C_R   0.501060 0.509568 0.651136 0.902502
O5    O     O_R   0.269980 0.445280 0.497530 -0.549167
O6    O     O_R   0.730020 0.554720 0.502470 -0.563619
O7    O     O_R   0.282610 0.587550 0.503940 -0.553507
O8    O     O_R   0.717390 0.412450 0.496060 -0.539991
C3    C     C_R   0.206366 0.521449 0.499335 0.858369
C4    C     C_R   0.793764 0.478475 0.497103 0.840997
Cu1   Cu    Cu3+1 0.492520 0.415770 0.496210 1.075190
Cu2   Cu    Cu3+1 0.507480 0.584230 0.503790 1.074573
C5    C     C_2   0.042862 0.534069 0.497661 0.079676
C6    C     C_2   0.956943 0.466418 0.488887 0.064958
C7    C     C_R   0.482333 0.488712 0.263697 -0.209447
C8    C     C_R   0.506283 0.511211 0.736849 -0.214751
C9    C     C_R   0.345495 0.522127 0.230292 0.153232
C10   C     C_R   0.393755 0.473360 0.775800 0.160063
C11   C     C_R   0.335798 0.527777 0.148732 0.264826
C12   C     C_R   0.411157 0.461999 0.856213 0.269628
C13   C     C_R   0.462288 0.500854 0.100825 0.225982
C14   C     C_R   0.538741 0.491673 0.897955 0.216058
C15   C     C_R   0.597794 0.466004 0.134862 -0.181873
C16   C     C_R   0.648637 0.529531 0.858802 -0.183075
C17   C     C_R   0.607854 0.459870 0.215734 0.206177
C18   C     C_R   0.633461 0.539695 0.778784 0.208292
N1    N     N_2   0.447903 0.510186 0.018966 -0.123495
N2    N     N_2   0.561813 0.482378 0.978973 -0.182869
H1    H     H_    0.696909 0.444534 0.099175 0.225091
H2    H     H_    0.747408 0.550708 0.890887 0.223001
N3    N     N_R   0.518730 0.710760 0.509500 -0.237314
N4    N     N_R   0.481270 0.289240 0.490500 -0.227506
C19   C     C_R   0.412086 0.757463 0.469668 0.038762
C20   C     C_R   0.534655 0.246292 0.552132 0.046167
C21   C     C_R   0.413158 0.846018 0.470248 0.162076
C22   C     C_R   0.527226 0.158084 0.551415 0.159559
C23   C     C_R   0.532314 0.887918 0.511018 0.206820
C24   C     C_R   0.469137 0.111670 0.483658 0.219203
C25   C     C_R   0.642217 0.837086 0.551829 0.179286
C26   C     C_R   0.414925 0.157944 0.420234 0.175559
C27   C     C_R   0.629865 0.748960 0.551442 0.057089
C28   C     C_R   0.420654 0.246905 0.425965 0.051216
N5    N     N_2   0.547573 0.978127 0.515050 -0.094502
N6    N     N_2   0.450207 0.022123 0.478983 -0.094408
H3    H     H_    0.581227 0.280927 0.603307 0.186540
H4    H     H_    0.323949 0.725472 0.437291 0.204250
H5    H     H_    0.711391 0.710226 0.583518 0.226380
H6    H     H_    0.378339 0.282170 0.377795 0.208579
N7    N     N_R   0.978030 0.621009 0.507885 0.121704
O9    O     O_R   0.008009 0.668425 0.571905 -0.282578
O10   O     O_R   0.924307 0.657304 0.446714 -0.285590
N8    N     N_R   0.022032 0.380597 0.468708 0.143644
O11   O     O_R   0.076881 0.358710 0.398463 -0.282143
O12   O     O_R   0.004532 0.321977 0.515426 -0.280736
Br1   Br    Br    0.215352 0.437627 0.719113 -0.327260
Br2   Br    Br    0.171657 0.560105 0.295917 -0.335012
Br3   Br    Br    0.267732 0.399723 0.906508 -0.265174
Br4   Br    Br    0.149913 0.573005 0.101348 -0.263552
Br5   Br    Br    0.797625 0.415589 0.258910 -0.311193
Br6   Br    Br    0.795319 0.587013 0.728372 -0.357016
Br7   Br    Br    0.586072 0.109028 0.647390 -0.270946
Br8   Br    Br    0.244992 0.900686 0.415450 -0.232819
N9    N     N_R   0.766998 0.873752 0.593937 0.181444
O13   O     O_R   0.829593 0.838190 0.653612 -0.246008
O14   O     O_R   0.829236 0.937113 0.568221 -0.230949
N10   N     N_R   0.355393 0.115642 0.349366 0.172069
O15   O     O_R   0.255731 0.156325 0.306406 -0.250988
O16   O     O_R   0.413081 0.040098 0.322454 -0.238098

loop_
_geom_bond_atom_site_label_1
_geom_bond_atom_site_label_2
_geom_bond_distance
_ccdc_geom_bond_type
C9    C11   1.401913 A    
C15   H1    1.082527 S    
C8    C10   1.410563 A    
C22   C24   1.422147 A    
O7    Cu2   1.979718 S    
C16   H2    1.083472 S    
N1    N2    1.245114 D    
C5    N7    1.438603 S    
C15   C17   1.391566 A    
C25   C27   1.409892 A    
C16   C18   1.391253 A    
N9    O14   1.301311 A    
O6    C4    1.281295 A    
C23   N5    1.442857 S    
Cu2   N3    2.009362 S    
C24   C26   1.417290 A    
O2    Cu2   1.946877 S    
C8    C18   1.406541 A    
Cu1   N4    2.009363 S    
C21   C23   1.429547 A    
N5    N6    1.249190 D    
C1    C7    1.454658 S    
C26   N10   1.439170 S    
O7    C3    1.290601 A    
O2    C2    1.293837 A    
O3    Cu2   1.952949 S    
C26   C28   1.409084 A    
C20   H3    1.080633 S    
O1    C1    1.291980 A    
C19   H4    1.081786 S    
O8    C4    1.293218 A    
C12   C14   1.414537 A    
C20   C22   1.404092 A    
N3    C19   1.358601 A    
N4    C20   1.361349 A    
C14   C16   1.395137 A    
O5    C3    1.282048 A    
N8    O12   1.301109 A    
C13   C15   1.411527 A    
C9    Br2   1.928125 S    
C18   Br6   1.921738 S    
C4    C6    1.442010 S    
C2    C8    1.458132 S    
C6    N8    1.439310 S    
C14   N2    1.412096 S    
O1    Cu1   1.946875 S    
C24   N6    1.438186 S    
N7    O10   1.301417 A    
C5    C6    1.363309 D    
C7    C17   1.402049 A    
C13   N1    1.419244 S    
O5    Cu1   1.976522 S    
C21   Br8   1.925159 S    
N4    C28   1.359989 A    
C23   C25   1.421124 A    
C11   Br4   1.927389 S    
O4    C2    1.289087 A    
N9    O13   1.301607 A    
C28   H6    1.080351 S    
C12   Br3   1.931406 S    
N10   O16   1.301099 A    
N8    O11   1.301206 A    
C7    C9    1.408541 A    
C25   N9    1.440685 S    
O6    Cu2   1.976522 S    
C17   Br5   1.920240 S    
Cu1   Cu2   2.675230 S    
C19   C21   1.403252 A    
C10   Br1   1.934077 S    
C22   Br7   1.922342 S    
C3    C5    1.438415 S    
C11   C13   1.402428 A    
C27   H5    1.079883 S    
N7    O9    1.301146 A    
O4    Cu1   1.952949 S    
C10   C12   1.403357 A    
N10   O15   1.301587 A    
O3    C1    1.289008 A    
O8    Cu1   1.979719 S    
N3    C27   1.356871 A    
