data_mof_unit_58374.cif
_audit_creation_date              2012-12-10T17:46:27-0500
_audit_creation_method            fapswitch 2.2
_symmetry_space_group_name_H-M    P1
_symmetry_Int_Tables_number       1
_space_group_crystal_system       triclinic
_cell_length_a                    20.454463
_cell_length_b                    21.163632
_cell_length_c                    14.762877
_cell_angle_alpha                 90.00074
_cell_angle_beta                  127.783781
_cell_angle_gamma                 89.997324
_cell_volume                      5050.76213879

loop_
_atom_site_label
_atom_site_type_symbol
_atom_type_description
_atom_site_fract_x
_atom_site_fract_y
_atom_site_fract_z
_atom_type_partial_charge
C1    C     C_R   0.602516 0.912550 0.629904 0.801511
C2    C     C_R   0.680487 0.213165 0.087050 -0.210652
C3    C     C_R   0.710396 0.768300 0.952897 0.072608
C4    C     C_R   0.210538 0.731658 0.952973 0.072563
C5    C     C_R   0.754475 0.287771 0.013859 0.072569
C6    C     C_R   0.755425 0.712906 0.014966 0.073136
C7    C     C_R   0.245202 0.287554 0.985809 0.072623
C8    C     C_R   0.284309 0.827107 0.969378 -0.210004
C9    C     C_R   0.670231 0.197396 0.988086 -0.209906
C10   C     C_R   0.672230 0.803852 0.990135 -0.210224
C11   C     C_R   0.329239 0.197057 0.011406 -0.209935
C12   C     C_R   0.782938 0.327950 0.967988 -0.209916
C13   C     C_R   0.682775 0.788257 0.089357 -0.209180
C14   C     C_R   0.171945 0.696357 0.989828 -0.210058
C15   C     C_R   0.216832 0.327787 0.031746 -0.209830
C16   C     C_R   0.783535 0.672552 0.968811 -0.209976
C17   C     C_2   0.301929 0.837274 0.433237 0.394916
C18   C     C_2   0.682896 0.170762 0.551581 0.402007
C19   C     C_2   0.683251 0.829341 0.551960 0.402107
C20   C     C_2   0.317542 0.170983 0.448825 0.402010
C21   C     C_2   0.801512 0.337439 0.432708 0.394728
C22   C     C_2   0.183912 0.670260 0.552577 0.402223
C23   C     C_2   0.198593 0.337516 0.567348 0.394806
C24   C     C_R   0.318999 0.212828 0.912451 -0.210585
C25   C     C_2   0.803648 0.663842 0.434853 0.394741
C26   C     C_R   0.772040 0.312359 0.868386 -0.208290
C27   C     C_R   0.182170 0.712145 0.088760 -0.208956
C28   C     C_R   0.227801 0.312249 0.131409 -0.208397
C29   C     C_R   0.772617 0.688081 0.869196 -0.209742
C30   C     C_R   0.320438 0.000440 0.666348 -0.293161
C31   C     C_R   0.679541 0.999859 0.333644 -0.290245
C32   C     C_R   0.820435 0.500163 0.666369 -0.295859
C33   C     C_R   0.397572 0.087515 0.370191 0.799909
C34   C     C_R   0.179540 0.500295 0.333617 -0.292483
C35   C     C_R   0.350652 0.000539 0.603567 0.059861
C36   C     C_R   0.649349 0.999955 0.396448 0.059069
C37   C     C_R   0.850650 0.500156 0.603591 0.060247
C38   C     C_R   0.149345 0.500449 0.396416 0.060000
C39   C     C_R   0.488735 0.999722 0.775297 0.016627
C40   C     C_R   0.511243 0.999975 0.224703 0.019501
C41   C     C_R   0.988735 0.499900 0.775299 0.018543
C42   C     C_R   0.011243 0.499782 0.224702 0.021624
C43   C     C_R   0.461850 0.999832 0.844895 -0.023786
C44   C     C_R   0.396528 0.913196 0.368987 0.802466
C45   C     C_R   0.538107 0.999870 0.155090 -0.024739
C46   C     C_R   0.961846 0.499910 0.844899 -0.021440
C47   C     C_R   0.038109 0.499858 0.155085 -0.022510
C48   C     C_R   0.375427 0.000058 0.786602 0.162094
C49   C     C_R   0.624530 0.999809 0.213381 0.159814
C50   C     C_R   0.875421 0.500035 0.786615 0.163469
C51   C     C_R   0.124534 0.499961 0.213366 0.161025
C52   C     C_R   0.516601 0.999759 0.968774 0.077462
C53   C     C_R   0.483342 0.999833 0.031205 0.081440
C54   C     C_R   0.016601 0.499825 0.968773 0.082123
C55   C     C_R   0.602429 0.087517 0.629818 0.800531
C56   C     C_R   0.983340 0.499857 0.031204 0.086211
C57   C     C_R   0.396575 0.999864 0.967582 -0.246388
C58   C     C_R   0.603363 0.999676 0.032392 -0.247826
C59   C     C_R   0.896568 0.499967 0.967588 -0.245504
C60   C     C_R   0.103369 0.499722 0.032386 -0.247063
C61   C     C_R   0.344131 0.999974 0.848261 -0.204541
C62   C     C_R   0.655812 0.999697 0.151711 -0.195066
C63   C     C_R   0.844121 0.500053 0.848272 -0.214346
C64   C     C_R   0.155820 0.499799 0.151699 -0.204481
C65   C     C_R   0.655693 0.142687 0.694689 -0.149353
C66   C     C_R   0.103567 0.413251 0.631130 0.802905
C67   C     C_R   0.336162 0.862717 0.296469 -0.144781
C68   C     C_R   0.344266 0.142654 0.305295 -0.148913
C69   C     C_R   0.656089 0.857576 0.695075 -0.149902
C70   C     C_R   0.156286 0.642286 0.695286 -0.149320
C71   C     C_R   0.835707 0.363014 0.295924 -0.144904
C72   C     C_R   0.836364 0.637438 0.296720 -0.144271
C73   C     C_R   0.164210 0.362949 0.703970 -0.145306
C74   C     C_R   0.725877 0.240285 0.713590 -0.160977
C75   C     C_R   0.243998 0.776084 0.257448 -0.164473
C76   C     C_R   0.274159 0.240294 0.286410 -0.161025
C77   C     C_R   0.896601 0.586859 0.369077 0.801666
C78   C     C_R   0.726434 0.760024 0.714291 -0.161528
C79   C     C_R   0.227201 0.739576 0.714927 -0.161846
C80   C     C_R   0.742891 0.276747 0.256256 -0.164930
C81   C     C_R   0.744939 0.724526 0.258330 -0.164153
C82   C     C_R   0.256842 0.276566 0.743457 -0.164864
C83   C     C_R   0.687388 0.184053 0.653991 -0.020465
C84   C     C_R   0.294645 0.826053 0.328149 -0.018302
C85   C     C_R   0.312740 0.184109 0.346123 -0.020569
C86   C     C_R   0.687823 0.816175 0.654475 -0.020608
C87   C     C_R   0.188352 0.683520 0.654952 -0.020671
C88   C     C_R   0.896423 0.413260 0.368853 0.802376
C89   C     C_R   0.793989 0.326432 0.327392 -0.018459
C90   C     C_R   0.795547 0.674539 0.329020 -0.018433
C91   C     C_R   0.205920 0.326368 0.672486 -0.018326
C92   C     C_R   0.667096 0.157708 0.795720 -0.236101
C93   C     C_R   0.322932 0.849293 0.193529 -0.245070
C94   C     C_R   0.332641 0.157549 0.204072 -0.236198
C95   C     C_R   0.667841 0.842807 0.796416 -0.237498
C96   C     C_R   0.167922 0.657119 0.796522 -0.237550
C97   C     C_R   0.822188 0.349796 0.192697 -0.246277
C98   C     C_R   0.822612 0.650536 0.193325 -0.244814
C99   C     C_R   0.102566 0.587411 0.629964 0.800610
C100  C     C_R   0.177621 0.349655 0.807095 -0.246281
C101  C     C_R   0.702617 0.215112 0.853208 0.097993
C102  C     C_R   0.269848 0.800612 0.120298 0.094399
C103  C     C_R   0.297092 0.214932 0.146515 0.097953
C104  C     C_R   0.703572 0.785515 0.854232 0.097742
C105  C     C_R   0.203875 0.714335 0.854476 0.097726
C106  C     C_R   0.768707 0.301350 0.119103 0.094264
C107  C     C_R   0.769753 0.699374 0.120291 0.094427
C108  C     C_R   0.230991 0.301139 0.880585 0.094322
C109  C     C_R   0.733489 0.256003 0.811659 0.110003
C110  C     C_R   0.273536 0.811496 0.869900 -0.209573
C111  C     C_R   0.231961 0.762929 0.155479 0.111674
C112  C     C_R   0.266359 0.255903 0.188167 0.110133
C113  C     C_R   0.734197 0.744463 0.812521 0.110285
C114  C     C_R   0.234867 0.755210 0.813055 0.110430
C115  C     C_R   0.730643 0.263743 0.154107 0.112300
C116  C     C_R   0.732428 0.737391 0.155953 0.111667
C117  C     C_R   0.268987 0.263493 0.845519 0.112191
C118  C     C_R   0.709106 0.232544 0.951522 0.073107
C119  C     C_R   0.255794 0.786941 0.015208 0.073114
C120  C     C_R   0.290497 0.232291 0.048092 0.073052
Cu1   Cu    Cu3+1 0.526640 1.000000 0.436960 0.940043
Cu2   Cu    Cu3+1 0.473360 0.000000 0.563040 0.940091
Cu3   Cu    Cu3+1 0.026640 0.500000 0.436960 0.940536
Cu4   Cu    Cu3+1 0.973360 0.500000 0.563040 0.940279
H1    H     H_    0.296297 0.843651 0.837718 0.154358
H2    H     H_    0.632977 0.999625 0.992174 0.131014
H3    H     H_    0.866948 0.500041 0.007799 0.125040
H4    H     H_    0.132987 0.499618 0.992174 0.128067
H5    H     H_    0.357199 0.876504 0.173901 0.155336
H6    H     H_    0.647885 0.123052 0.828415 0.146997
H7    H     H_    0.648611 0.877551 0.828938 0.146806
H8    H     H_    0.351732 0.122823 0.171318 0.146761
H9    H     H_    0.856545 0.376941 0.173126 0.155075
H10   H     H_    0.148436 0.622489 0.828872 0.146978
H11   H     H_    0.143268 0.376804 0.826670 0.155227
H12   H     H_    0.649777 0.184827 0.112141 0.154410
H13   H     H_    0.856320 0.622931 0.173206 0.154894
H14   H     H_    0.252205 0.771254 0.685232 0.182977
H15   H     H_    0.711731 0.248093 0.280353 0.183514
H16   H     H_    0.714415 0.753555 0.282995 0.183751
H17   H     H_    0.287973 0.247895 0.719331 0.183529
H18   H     H_    0.750679 0.272021 0.683681 0.183014
H19   H     H_    0.212988 0.747356 0.281695 0.183777
H20   H     H_    0.249475 0.272096 0.316408 0.183000
H21   H     H_    0.751176 0.728209 0.684391 0.182704
H22   H     H_    0.313230 0.872134 0.006261 0.138454
H23   H     H_    0.652657 0.816939 0.114985 0.155627
H24   H     H_    0.629312 0.158240 0.940576 0.146663
H25   H     H_    0.631722 0.843270 0.943108 0.146439
H26   H     H_    0.370064 0.157841 0.058828 0.146567
H27   H     H_    0.811879 0.372967 0.004957 0.138586
H28   H     H_    0.131290 0.657033 0.942656 0.146510
H29   H     H_    0.187940 0.372823 0.994811 0.138492
H30   H     H_    0.812289 0.627465 0.005577 0.138412
H31   H     H_    0.277891 0.000019 0.803518 0.147807
H32   H     H_    0.722051 0.999641 0.196453 0.148926
H33   H     H_    0.777881 0.500155 0.803539 0.146722
H34   H     H_    0.349634 0.184441 0.887296 0.154637
H35   H     H_    0.222059 0.499745 0.196431 0.147938
H36   H     H_    0.446644 0.000023 0.187436 0.113623
H37   H     H_    0.553332 0.999450 0.812573 0.114261
H38   H     H_    0.946644 0.499564 0.187433 0.112717
H39   H     H_    0.053334 0.499821 0.812578 0.113422
H40   H     H_    0.692113 0.999975 0.489105 0.109946
H41   H     H_    0.307887 0.001050 0.510923 0.107342
H42   H     H_    0.192121 0.500918 0.489059 0.107002
H43   H     H_    0.807868 0.500287 0.510952 0.104928
H44   H     H_    0.254134 0.000739 0.620895 0.143689
H45   H     H_    0.794720 0.344532 0.836117 0.155052
H46   H     H_    0.745844 0.999814 0.379082 0.144231
H47   H     H_    0.754129 0.500280 0.620916 0.143267
H48   H     H_    0.245843 0.500508 0.379054 0.143786
H49   H     H_    0.302741 0.884595 0.461437 0.084476
H50   H     H_    0.689568 0.123228 0.531346 0.085820
H51   H     H_    0.689602 0.876870 0.531344 0.086284
H52   H     H_    0.310951 0.123498 0.469321 0.085803
H53   H     H_    0.802704 0.384696 0.461413 0.084678
H54   H     H_    0.190309 0.622704 0.532121 0.085443
H55   H     H_    0.197509 0.384816 0.538869 0.084631
H56   H     H_    0.151657 0.683698 0.114037 0.155673
H57   H     H_    0.804598 0.616686 0.463720 0.085169
H58   H     H_    0.205214 0.344473 0.163743 0.154631
H59   H     H_    0.795094 0.655791 0.836792 0.154441
H60   H     H_    0.366959 0.999830 0.007798 0.128094
N1    N     N_R   0.433280 1.000000 0.657760 -0.172759
N2    N     N_R   0.566720 1.000000 0.342240 -0.173260
N3    N     N_R   0.933280 0.500000 0.657760 -0.172760
N4    N     N_R   0.066720 0.500000 0.342240 -0.173189
O1    O     O_R   0.600040 0.935040 0.546740 -0.603870
O2    O     O_R   0.444990 0.064930 0.346780 -0.572999
O3    O     O_R   0.444990 0.935070 0.346780 -0.574161
O4    O     O_R   0.555010 0.064930 0.653220 -0.572789
O5    O     O_R   0.055010 0.435070 0.653220 -0.573694
O6    O     O_R   0.944990 0.564930 0.346780 -0.574102
O7    O     O_R   0.944990 0.435070 0.346780 -0.573932
O8    O     O_R   0.055010 0.564930 0.653220 -0.572794
O9    O     O_2   0.304098 0.792888 0.487887 -0.509747
O10   O     O_2   0.674300 0.213781 0.489952 -0.511481
O11   O     O_2   0.674985 0.786233 0.490696 -0.512312
O12   O     O_R   0.399960 0.064960 0.453260 -0.604880
O13   O     O_2   0.326307 0.214093 0.510417 -0.511571
O14   O     O_2   0.803425 0.292947 0.486971 -0.509891
O15   O     O_2   0.175703 0.713315 0.491266 -0.511099
O16   O     O_2   0.196725 0.293098 0.512991 -0.510229
O17   O     O_2   0.806359 0.708514 0.489439 -0.510585
O18   O     O_R   0.399960 0.935040 0.453260 -0.603034
O19   O     O_R   0.600040 0.064960 0.546740 -0.604117
O20   O     O_R   0.100040 0.435040 0.546740 -0.602801
O21   O     O_R   0.899960 0.564960 0.453260 -0.604177
O22   O     O_R   0.899960 0.435040 0.453260 -0.603235
O23   O     O_R   0.100040 0.564960 0.546740 -0.604495
O24   O     O_R   0.555010 0.935070 0.653220 -0.572482

loop_
_geom_bond_atom_site_label_1
_geom_bond_atom_site_label_2
_ccdc_geom_bond_type
C3    C104  A    
C58   C62   A    
C81   H16   S    
C96   C105  A    
C68   C85   A    
C23   C91   S    
C65   C92   A    
Cu2   O18   S    
C81   C116  A    
C70   C96   A    
C103  C120  A    
C12   H27   S    
C97   H9    S    
C74   C83   A    
C22   H54   S    
C3    C6    A    
C74   C109  A    
C79   C87   A    
C15   C28   A    
C106  C115  A    
Cu3   Cu4   S    
C37   H43   S    
C72   C98   A    
C70   C99   S    
C71   C97   A    
C34   C51   A    
C1    O1    A    
C22   O15   D    
C101  C118  A    
C30   C48   A    
C20   O13   D    
C44   O3    A    
Cu1   O1    S    
C93   H5    S    
C43   C52   A    
C65   C83   A    
C40   N2    A    
Cu4   O21   S    
C70   C87   A    
C101  C109  A    
C11   C24   A    
C80   C89   A    
C66   O20   A    
C41   N3    A    
Cu3   N4    S    
C28   H58   S    
C78   H21   S    
Cu1   N2    S    
C26   H45   S    
C25   H57   S    
Cu3   O23   S    
Cu4   O5    S    
C18   O10   D    
C41   C46   A    
C4    C119  A    
C17   O9    D    
C102  C119  A    
C14   C27   A    
C39   H37   S    
C43   C48   A    
C110  C114  A    
C23   H55   S    
C100  H11   S    
C76   C112  A    
C78   C86   A    
C21   H53   S    
C74   H18   S    
C6    C107  A    
C27   C111  A    
C67   C84   A    
C88   O22   A    
C1    C69   S    
C1    O24   A    
C95   H7    S    
C9    C118  A    
C88   O7    A    
Cu3   O7    S    
C102  C111  A    
C31   C49   A    
C82   H17   S    
C25   O17   D    
C11   C120  A    
C61   H31   S    
C55   C65   S    
C17   H49   S    
C50   C63   A    
C5    C106  A    
C39   C43   A    
C40   C45   A    
C21   O14   D    
C54   C56   A    
C100  C108  A    
C98   H13   S    
C105  C114  A    
C60   H4    S    
C27   H56   S    
C73   C91   A    
C5    C12   A    
C20   H52   S    
C73   C100  A    
Cu1   O2    S    
C53   C57   A    
C99   O23   A    
Cu2   N1    S    
C47   C51   A    
C33   O12   A    
C16   C29   A    
C22   C87   S    
C66   C73   S    
C6    C16   A    
C99   O8    A    
C2    H12   S    
C98   C107  A    
C104  C113  A    
C12   C26   A    
C103  C112  A    
C75   C84   A    
C92   H6    S    
C77   O6    A    
C72   C77   S    
C8    C110  A    
C72   C90   A    
C2    C115  A    
C11   H26   S    
C71   C89   A    
C80   C115  A    
C45   C49   A    
C35   N1    A    
Cu2   O24   S    
C20   C85   S    
C46   C54   A    
C44   O18   A    
C18   C83   S    
C24   C117  A    
Cu1   O19   S    
Cu3   O6    S    
C32   C37   A    
C54   C60   A    
Cu2   O4    S    
C26   C109  A    
C32   C50   A    
Cu1   Cu2   S    
C52   C58   A    
C92   C101  A    
C7    C108  A    
C81   C90   A    
C18   H50   S    
C32   H47   S    
C94   C103  A    
C58   H2    S    
C19   C86   S    
C41   H39   S    
C16   H30   S    
C19   H51   S    
C59   C63   A    
C78   C113  A    
C13   H23   S    
C76   H20   S    
C66   O5    A    
C34   H48   S    
C95   C104  A    
C36   N2    A    
C36   H40   S    
C42   N4    A    
C8    H22   S    
C38   H42   S    
C29   C113  A    
C49   C62   A    
C29   H59   S    
C34   C38   A    
C5    C118  A    
C19   O11   D    
C7    C120  A    
C40   H36   S    
C25   C90   S    
C51   C64   A    
C21   C89   S    
C69   C95   A    
C10   C13   A    
C93   C102  A    
Cu1   O3    S    
Cu4   N3    S    
C96   H10   S    
C42   H38   S    
C75   H19   S    
C57   C61   A    
C31   H46   S    
C77   O21   A    
C80   H15   S    
C68   C94   A    
C4    C105  A    
C46   C50   A    
C9    H24   S    
C75   C111  A    
C56   C59   A    
C23   O16   D    
C60   C64   A    
C17   C84   S    
C55   O4    A    
C30   C35   A    
C30   H44   S    
C55   O19   A    
C10   H25   S    
C3    C10   A    
C48   C61   A    
C37   N3    A    
Cu4   O22   S    
C38   N4    A    
C108  C117  A    
C64   H35   S    
C7    C15   A    
C35   H41   S    
C62   H32   S    
Cu3   O20   S    
C24   H34   S    
C42   C47   A    
C4    C14   A    
Cu4   O8    S    
C94   H8    S    
C107  C116  A    
C15   H29   S    
C13   C116  A    
C82   C91   A    
C110  H1    S    
C45   C53   A    
C71   C88   S    
C39   N1    A    
C79   H14   S    
C33   C68   S    
C79   C114  A    
C14   H28   S    
C67   C93   A    
C63   H33   S    
C31   C36   A    
C33   O2    A    
C44   C67   S    
C82   C117  A    
Cu2   O12   S    
C2    C9    A    
C59   H3    S    
C76   C85   A    
C28   C112  A    
C57   H60   S    
C69   C86   A    
C8    C119  A    
C52   C53   A    
C47   C56   A    
C97   C106  A    
