data_mof_unit_18453.cif
_audit_creation_date              2012-12-10T17:16:41-0500
_audit_creation_method            fapswitch 2.2
_symmetry_space_group_name_H-M    P1
_symmetry_Int_Tables_number       1
_space_group_crystal_system       triclinic
_cell_length_a                    10.129839
_cell_length_b                    10.65214
_cell_length_c                    11.066664
_cell_angle_alpha                 90.085757
_cell_angle_beta                  94.61581
_cell_angle_gamma                 79.164068
_cell_volume                      1168.93309779

loop_
_atom_site_label
_atom_site_type_symbol
_atom_type_description
_atom_site_fract_x
_atom_site_fract_y
_atom_site_fract_z
_atom_type_partial_charge
C1    C     C_R   0.444680 0.515168 0.268029 0.776459
C2    C     C_R   0.491959 0.740907 0.484511 0.874915
C3    C     C_R   0.744644 0.057816 0.430516 0.408963
C4    C     C_R   0.243843 0.936923 0.538594 0.395810
C5    C     C_R   0.815707 0.988239 0.337847 0.029982
C6    C     C_R   0.171624 0.999742 0.631771 0.102321
C7    C     C_R   0.761836 0.889487 0.278170 0.402232
C8    C     C_R   0.218943 0.101646 0.691934 0.407712
C9    C     C_R   0.648664 0.853803 0.319934 -0.167082
C10   C     C_R   0.335286 0.138398 0.656396 -0.192033
C11   C     C_R   0.578470 0.922526 0.410638 -0.070796
C12   C     C_R   0.555032 0.493394 0.731020 0.796811
C13   C     C_R   0.409552 0.073798 0.565387 -0.055518
C14   C     C_R   0.613871 0.036086 0.452959 0.006176
C15   C     C_R   0.374325 0.962055 0.519273 -0.064021
C16   C     C_R   0.473298 0.877831 0.460272 -0.166220
C17   C     C_R   0.518689 0.118762 0.519922 -0.104090
C18   C     C_3   0.934814 0.123548 0.231850 -0.839080
C19   C     C_3   0.074800 0.877718 0.772388 -0.750993
C20   C     C_3   0.279182 0.430188 0.865042 -0.513333
C21   C     C_3   0.765152 0.423396 0.103032 -0.646548
C22   C     C_2   0.415878 0.526966 0.136608 0.186586
C23   C     C_2   0.580828 0.518753 0.857367 0.204409
C24   C     C_2   0.520173 0.514004 0.064624 0.213601
C25   C     C_2   0.501330 0.480298 0.937203 0.164975
C26   C     C_2   0.074490 0.492336 0.487927 0.368995
C27   C     C_2   0.923502 0.513729 0.506951 0.369177
C28   C     C_R   0.506307 0.257499 0.509664 0.888062
H1    H     H_    0.611558 0.774138 0.278193 0.147289
H2    H     H_    0.894883 0.103460 0.138805 0.242585
H3    H     H_    0.036664 0.147029 0.228084 0.265020
H4    H     H_    0.867451 0.206712 0.267639 0.249717
H5    H     H_    0.998943 0.922446 0.595717 0.295230
H6    H     H_    0.977489 0.853409 0.794465 0.249256
H7    H     H_    0.115798 0.926879 0.851406 0.257223
H8    H     H_    0.146487 0.787868 0.756172 0.237274
H9    H     H_    0.468231 0.308033 0.861222 0.185430
H10   H     H_    0.256968 0.397769 0.771821 0.217031
H11   H     H_    0.251181 0.536280 0.863478 0.243577
H12   H     H_    0.370130 0.216506 0.702225 0.160916
H13   H     H_    0.214780 0.389722 0.925201 0.269313
H14   H     H_    0.666870 0.607741 0.159422 0.262029
H15   H     H_    0.823202 0.409180 0.192394 0.203646
H16   H     H_    0.833414 0.446716 0.036437 0.268159
H17   H     H_    0.730347 0.333618 0.076276 0.209900
H18   H     H_    0.707169 0.627934 0.818662 0.358549
H19   H     H_    0.221516 0.553903 0.150633 0.362925
H20   H     H_    0.930242 0.598437 0.660935 0.296926
H21   H     H_    0.059064 0.414742 0.330589 0.298426
H22   H     H_    0.884409 0.371346 0.400170 0.114081
H23   H     H_    0.120134 0.618949 0.612086 0.131054
H24   H     H_    0.062521 0.148324 0.785997 0.363988
H25   H     H_    0.874937 0.873627 0.142886 0.341269
H26   H     H_    0.899484 0.134797 0.488316 0.356298
H27   H     H_    0.225014 0.849175 0.386394 0.331596
H28   H     H_    0.010502 0.935577 0.284004 0.267686
N1    N     N_2   0.157300 0.551390 0.551120 -0.181229
N2    N     N_2   0.842700 0.448610 0.448880 -0.183927
N3    N     N_2   0.943102 0.013692 0.310157 -0.303598
N4    N     N_2   0.053046 0.959387 0.665459 -0.295415
N5    N     N_2   0.420344 0.386032 0.906344 -0.321781
N6    N     N_2   0.652873 0.528698 0.110200 -0.261172
O1    O     O_R   0.568940 0.489660 0.307530 -0.636173
O2    O     O_3   0.819219 0.821846 0.182975 -0.758194
O3    O     O_3   0.807925 0.131270 0.511306 -0.744847
O4    O     O_3   0.180524 0.858923 0.463402 -0.767457
O5    O     O_3   0.665576 0.603268 0.890969 -0.751978
O6    O     O_3   0.284391 0.546563 0.085870 -0.788926
O7    O     O_3   0.867716 0.603846 0.587027 -0.720310
O8    O     O_3   0.127804 0.410677 0.399885 -0.719663
O9    O     O_R   0.431060 0.510340 0.692470 -0.637526
O10   O     O_R   0.348880 0.522640 0.340350 -0.560013
O11   O     O_R   0.651120 0.477360 0.659650 -0.568048
O12   O     O_R   0.610030 0.300280 0.483580 -0.556665
O13   O     O_R   0.389970 0.699720 0.516420 -0.585713
O14   O     O_R   0.389970 0.333270 0.516400 -0.566900
O15   O     O_R   0.610030 0.666730 0.483600 -0.546496
O16   O     O_3   0.152109 0.171480 0.781367 -0.785859
Zn1   Zn    Zn3+2 0.646940 0.477980 0.478080 1.019119
Zn2   Zn    Zn3+2 0.353060 0.522020 0.521920 1.008903

loop_
_geom_bond_atom_site_label_1
_geom_bond_atom_site_label_2
_ccdc_geom_bond_type
N1    Zn2   S    
H20   O7    S    
C28   O12   A    
C20   H13   S    
H26   O3    S    
O1    Zn1   S    
C12   C23   S    
C26   C27   S    
C19   H8    S    
C11   C14   A    
C15   C16   A    
C10   H12   S    
C23   O5    S    
C20   N5    S    
C21   H15   S    
C10   C13   A    
H23   N1    S    
C2    C16   S    
O13   Zn2   S    
H14   N6    S    
C27   O7    S    
C9    H1    S    
C1    C22   S    
C12   O11   A    
C8    O16   S    
C14   C17   A    
C3    O3    S    
H24   O16   S    
C1    O1    A    
O9    Zn2   S    
C21   H17   S    
O15   Zn1   S    
C1    O10   A    
C5    N3    S    
H22   N2    S    
C6    N4    S    
C24   C25   S    
C4    C6    A    
C5    C7    A    
C20   H11   S    
C6    C8    A    
C19   H6    S    
C21   H16   S    
C20   H10   S    
C11   C16   A    
O11   Zn1   S    
C25   N5    S    
C9    C11   A    
C22   O6    S    
C21   N6    S    
C3    C14   A    
N2    Zn1   S    
C18   H2    S    
C12   O9    A    
H5    N4    S    
O12   Zn1   S    
C13   C15   A    
C26   O8    S    
C22   C24   D    
C18   H4    S    
C28   O14   A    
H19   O6    S    
H27   O4    S    
C7    C9    A    
C24   N6    S    
C17   C28   S    
O14   Zn2   S    
C3    C5    A    
C27   N2    D    
H9    N5    S    
C19   N4    S    
H28   N3    S    
C13   C17   A    
H21   O8    S    
C4    C15   A    
H18   O5    S    
O10   Zn2   S    
C2    O15   A    
C19   H7    S    
C4    O4    S    
H25   O2    S    
C23   C25   D    
C26   N1    D    
C7    O2    S    
C18   N3    S    
C8    C10   A    
C18   H3    S    
C2    O13   A    
