data_mof_unit_15010.cif
_audit_creation_date              2012-12-10T20:35:55-0500
_audit_creation_method            fapswitch 2.2
_symmetry_space_group_name_H-M    P1
_symmetry_Int_Tables_number       1
_space_group_crystal_system       triclinic
_cell_length_a                    15.796393
_cell_length_b                    10.632645
_cell_length_c                    9.987518
_cell_angle_alpha                 89.108036
_cell_angle_beta                  87.496309
_cell_angle_gamma                 90.87218
_cell_volume                      1675.46123521

loop_
_atom_site_label
_atom_site_type_symbol
_atom_type_description
_atom_site_fract_x
_atom_site_fract_y
_atom_site_fract_z
_atom_type_partial_charge
C1    C     C_R   0.500319 0.260756 0.500673 0.935932
C2    C     C_R   0.499161 0.128709 0.499259 -0.202019
C3    C     C_R   0.437207 0.067487 0.427231 -0.107205
C4    C     C_R   0.338803 0.500585 0.502656 0.872198
C5    C     C_R   0.434245 0.937314 0.424792 0.448793
C6    C     C_R   0.495741 0.870888 0.495369 -0.248950
C7    C     C_R   0.562902 0.933999 0.550867 0.077338
C8    C     C_3   0.596963 0.921635 0.687548 0.172355
C9    C     C_3   0.602408 0.064813 0.686698 0.229066
C10   C     C_R   0.431955 0.454003 0.076690 0.003905
C11   C     C_R   0.563399 0.559065 0.062617 0.436743
C12   C     C_3   0.945426 0.460665 0.649152 0.492321
C13   C     C_R   0.562124 0.558197 0.920337 -0.146349
C14   C     C_R   0.431600 0.453871 0.934993 -0.035817
C15   C     C_3   0.392205 0.323152 0.936238 0.606405
C16   C     C_R   0.497276 0.738916 0.499125 0.889691
C17   C     C_3   0.392320 0.325468 0.090596 0.640302
C18   C     C_R   0.661565 0.500504 0.497476 0.909064
C19   C     C_3   0.044659 0.446701 0.641452 0.059032
C20   C     C_3   0.054335 0.428960 0.386329 0.182113
C21   C     C_3   0.956365 0.409852 0.397207 -0.038426
C22   C     C_1   0.750684 0.502595 0.493052 0.006343
C23   C     C_3   0.917616 0.505366 0.502179 -0.322176
C24   C     C_3   0.084224 0.507504 0.508273 -0.247145
C25   C     C_3   0.957335 0.639192 0.458579 0.178950
C26   C     C_3   0.051968 0.646033 0.493249 0.015753
C27   C     C_1   0.826006 0.504282 0.495265 0.205979
C28   C     C_1   0.175421 0.505061 0.510784 0.253757
C29   C     C_1   0.250370 0.502796 0.508596 0.031122
C30   C     C_R   0.565799 0.062637 0.550617 -0.072226
H1    H     H_    0.960154 0.643360 0.348657 0.191042
H2    H     H_    0.985338 0.256253 0.856548 0.394617
H3    H     H_    0.095610 0.578288 0.751659 0.381465
H4    H     H_    0.928828 0.759822 0.843738 0.428344
H5    H     H_    0.363467 0.790957 0.386510 0.353835
H6    H     H_    0.693357 0.859244 0.777276 0.401245
H7    H     H_    0.716831 0.087116 0.602200 0.400474
H8    H     H_    0.698811 0.735260 0.287827 0.381346
H9    H     H_    0.319392 0.188339 0.705650 0.373372
H10   H     H_    0.504869 0.253635 0.897613 0.313738
H11   H     H_    0.293330 0.243199 0.176245 0.396517
H12   H     H_    0.388366 0.120483 0.379627 0.214649
H13   H     H_    0.504005 0.252696 0.124034 0.330582
H14   H     H_    0.076881 0.255109 0.444483 0.362979
H15   H     H_    0.849348 0.588639 0.228095 0.377771
H16   H     H_    0.161218 0.875602 0.520484 0.381086
H17   H     H_    0.827330 0.910371 0.376110 0.401633
H18   H     H_    0.550607 0.879802 0.763595 0.112276
H19   H     H_    0.560629 0.107006 0.764425 0.163492
H20   H     H_    0.059264 0.345262 0.637271 0.192525
H21   H     H_    0.613222 0.600583 0.858946 0.225804
H22   H     H_    0.070126 0.483792 0.293212 0.260900
H23   H     H_    0.942234 0.313701 0.432124 0.223443
H24   H     H_    0.057145 0.694304 0.589224 0.195269
N1    N     N_R   0.499430 0.499140 0.142800 -0.177983
N2    N     N_R   0.499430 0.499180 0.857150 -0.147601
O1    O     O_R   0.500010 0.316790 0.614690 -0.585448
O2    O     O_2   0.926877 0.198642 0.621515 -0.324200
O3    O     O_3   0.923983 0.274362 0.862733 -0.365282
O4    O     O_3   0.083671 0.486856 0.758237 -0.617846
O5    O     O_2   0.816367 0.577156 0.787536 -0.200885
O6    O     O_2   0.937347 0.515080 0.913765 -0.095036
O7    O     O_3   0.954602 0.712714 0.767913 -0.531629
O8    O     O_3   0.368317 0.880901 0.360383 -0.660576
O9    O     O_3   0.675857 0.863546 0.683154 -0.649659
O10   O     O_3   0.685712 0.114067 0.685241 -0.618673
O11   O     O_2   0.711335 0.513614 0.161934 -0.246506
O12   O     O_R   0.500000 0.316760 0.385350 -0.587703
O13   O     O_2   0.705886 0.697789 0.015404 -0.266054
O14   O     O_3   0.641738 0.718201 0.254243 -0.520951
O15   O     O_2   0.233114 0.221444 0.939550 -0.218432
O16   O     O_2   0.248794 0.443948 0.875053 -0.202861
O17   O     O_3   0.298892 0.275919 0.704091 -0.541978
O18   O     O_3   0.445272 0.231302 0.879563 -0.772010
O19   O     O_3   0.312008 0.331222 0.155985 -0.656501
O20   O     O_3   0.443573 0.233367 0.148380 -0.741040
O21   O     O_3   0.097089 0.314019 0.371853 -0.660506
O22   O     O_2   0.971183 0.341057 0.138792 -0.119921
O23   O     O_R   0.377150 0.500020 0.614720 -0.565748
O24   O     O_2   0.828979 0.335808 0.242959 -0.219947
O25   O     O_3   0.895090 0.552969 0.170368 -0.433438
O26   O     O_2   0.156590 0.670428 0.265062 -0.225850
O27   O     O_2   0.061840 0.844436 0.313026 -0.157334
O28   O     O_3   0.191502 0.816821 0.459894 -0.519653
O29   O     O_2   0.823692 0.755605 0.591159 -0.214848
O30   O     O_2   0.954075 0.880120 0.552013 -0.183126
O31   O     O_3   0.861138 0.836053 0.350662 -0.520092
O32   O     O_R   0.377140 0.499990 0.385380 -0.584770
O33   O     O_R   0.500000 0.683240 0.614650 -0.623297
O34   O     O_R   0.499990 0.683210 0.385310 -0.558528
O35   O     O_R   0.622860 0.500010 0.614620 -0.588963
O36   O     O_R   0.622850 0.499980 0.385280 -0.553710
O37   O     O_2   0.803185 0.313574 0.703786 -0.199235
S1    S     S_3+6 0.898046 0.307789 0.704745 0.103613
S2    S     S_3+6 0.911313 0.567875 0.782076 0.168271
S3    S     S_3+6 0.658038 0.622803 0.123765 0.082550
S4    S     S_3+6 0.289296 0.317224 0.865773 0.146051
S5    S     S_3+6 0.911512 0.408283 0.233496 0.139054
S6    S     S_3+6 0.115156 0.745348 0.375385 0.090082
S7    S     S_3+6 0.897886 0.780632 0.495321 0.110347
Zn1   Zn    Zn3+2 0.500010 0.500020 0.653130 1.045633
Zn2   Zn    Zn3+2 0.499990 0.499980 0.346870 1.086966

loop_
_geom_bond_atom_site_label_1
_geom_bond_atom_site_label_2
_ccdc_geom_bond_type
C11   S3    S    
C25   H1    S    
C14   N2    A    
H8    O14   S    
C3    H12   S    
C16   O34   A    
O37   S1    D    
O26   S6    D    
O13   S3    D    
C7    C8    S    
O17   S4    S    
O15   S4    D    
C12   C23   S    
C20   O21   S    
C18   O35   A    
H14   O21   S    
O12   Zn2   S    
N2    Zn1   S    
C5    C6    A    
O25   S5    S    
C10   C17   S    
O7    S2    S    
C1    O12   A    
C1    C2    S    
C9    O10   S    
O34   Zn2   S    
C13   H21   S    
C20   C24   S    
C8    C9    S    
O22   S5    D    
C17   O20   S    
C12   S2    S    
H5    O8    S    
O3    S1    S    
C23   C27   S    
O30   S7    D    
C4    C29   S    
O36   Zn2   S    
C26   S6    S    
C13   N2    A    
O24   S5    D    
H9    O17   S    
C16   O33   A    
C7    C30   A    
O27   S6    D    
O6    S2    D    
C12   S1    S    
O35   Zn1   S    
C26   H24   S    
C15   S4    S    
O16   S4    D    
C9    H19   S    
C4    O23   A    
C10   C14   A    
H6    O9    S    
C25   C26   S    
C5    O8    S    
H17   O31   S    
O14   S3    S    
C8    H18   S    
C1    O1    A    
H11   O19   S    
C25   S7    S    
N1    Zn2   S    
H7    O10   S    
C10   N1    A    
C9    C30   S    
H16   O28   S    
H3    O4    S    
C22   C27   T    
C21   C23   S    
O11   S3    D    
C11   N1    A    
O31   S7    S    
H13   O20   S    
C15   C17   S    
C28   C29   T    
O33   Zn1   S    
C18   C22   S    
O28   S6    S    
H15   O25   S    
C24   C28   S    
C24   C26   S    
C3    C5    A    
O32   Zn2   S    
O5    S2    D    
C6    C7    A    
C4    O32   A    
C19   O4    S    
O1    Zn1   S    
C2    C30   A    
C18   O36   A    
C2    C3    A    
O2    S1    D    
C20   H22   S    
O29   S7    D    
C21   H23   S    
C21   S5    S    
C11   C13   A    
C19   H20   S    
C12   C19   S    
H4    O7    S    
H10   O18   S    
C19   C24   S    
C23   C25   S    
C6    C16   S    
C8    O9    S    
C15   O18   S    
C20   C21   S    
C17   O19   S    
C14   C15   S    
O23   Zn1   S    
H2    O3    S    
