data_mof_unit_61016.cif
_audit_creation_date              2012-12-10T18:16:08-0500
_audit_creation_method            fapswitch 2.2
_symmetry_space_group_name_H-M    P1
_symmetry_Int_Tables_number       1
_space_group_crystal_system       triclinic
_cell_length_a                    42.313546
_cell_length_b                    29.206728
_cell_length_c                    29.202885
_cell_angle_alpha                 89.999698
_cell_angle_beta                  133.760583
_cell_angle_gamma                 89.997487
_cell_volume                      26065.5774612

loop_
_atom_site_label
_atom_site_type_symbol
_atom_type_description
_atom_site_fract_x
_atom_site_fract_y
_atom_site_fract_z
_atom_type_partial_charge
C1    C     C_R   0.499968 0.586677 0.499988 0.910138
C2    C     C_1   0.834645 0.999844 0.339162 0.153605
C3    C     C_3   0.759669 0.963034 0.246979 -0.066964
C4    C     C_1   0.372582 0.499986 0.374161 -0.076953
C5    C     C_1   0.872579 0.999928 0.374159 -0.076993
C6    C     C_1   0.120914 0.499984 0.126192 -0.125363
C7    C     C_1   0.620912 0.999975 0.126246 -0.125518
C8    C     C_3   0.263138 0.499019 0.316465 -0.153376
C9    C     C_3   0.763159 0.998433 0.316529 -0.153399
C10   C     C_3   0.289183 0.499924 0.297612 -0.005075
C11   C     C_3   0.789179 0.999798 0.297646 -0.005056
C12   C     C_2   0.273757 0.580412 0.238278 0.955633
C13   C     C_1   0.158649 0.499947 0.169125 0.117951
C14   C     C_2   0.273634 0.421348 0.234865 0.955505
C15   C     C_2   0.773797 0.080777 0.239243 0.955648
C16   C     C_2   0.773528 0.921759 0.233952 0.955572
C17   C     C_2   0.218416 0.578489 0.278398 0.978535
C18   C     C_2   0.218315 0.419408 0.275001 0.978445
C19   C     C_2   0.718507 0.077866 0.279429 0.978587
C20   C     C_2   0.718265 0.918843 0.274170 0.978433
C21   C     C_2   0.281514 0.498018 0.382512 0.985545
C22   C     C_2   0.781561 0.996892 0.382577 0.985455
C23   C     C_1   0.658644 0.999908 0.169210 0.118032
C24   C     C_1   0.499947 0.637259 0.499940 -0.202921
C25   C     C_1   0.499945 0.362741 0.499940 -0.202937
C26   C     C_1   0.999947 0.137259 0.499940 -0.202936
C27   C     C_1   0.999945 0.862741 0.499940 -0.202926
C28   C     C_1   0.499935 0.679397 0.499922 0.017918
C29   C     C_1   0.499932 0.320603 0.499919 0.018037
C30   C     C_1   0.999935 0.179397 0.499921 0.017870
C31   C     C_R   0.499968 0.413323 0.499989 0.910202
C32   C     C_1   0.999932 0.820603 0.499920 0.018087
C33   C     C_1   0.499932 0.729133 0.499920 0.019321
C34   C     C_1   0.499926 0.270867 0.499916 0.019416
C35   C     C_1   0.999931 0.229133 0.499920 0.019277
C36   C     C_1   0.999927 0.770867 0.499916 0.019460
C37   C     C_1   0.499935 0.771270 0.499931 0.017918
C38   C     C_1   0.499929 0.228730 0.499924 0.017958
C39   C     C_1   0.999935 0.271270 0.499931 0.017886
C40   C     C_1   0.999929 0.728730 0.499925 0.017990
C41   C     C_1   0.499944 0.821006 0.499950 0.014432
C42   C     C_R   0.999968 0.086677 0.499988 0.910120
C43   C     C_1   0.499936 0.178994 0.499943 0.014442
C44   C     C_1   0.999944 0.321006 0.499950 0.014408
C45   C     C_1   0.999936 0.678994 0.499943 0.014466
C46   C     C_1   0.499952 0.863144 0.499968 -0.203776
C47   C     C_1   0.499945 0.136855 0.499961 -0.203783
C48   C     C_1   0.999952 0.363144 0.499968 -0.203794
C49   C     C_1   0.999945 0.636855 0.499961 -0.203765
C50   C     C_R   0.417115 0.500023 0.417435 0.942997
C51   C     C_R   0.917114 0.000033 0.417434 0.942970
C52   C     C_1   0.635840 0.500001 0.635332 -0.212303
C53   C     C_R   0.999968 0.913323 0.499989 0.910215
C54   C     C_1   0.135840 0.000001 0.635332 -0.212303
C55   C     C_1   0.677113 0.500002 0.676571 0.022966
C56   C     C_1   0.177113 0.000002 0.676571 0.022967
C57   C     C_1   0.726259 0.500003 0.725803 0.010479
C58   C     C_1   0.226259 0.000002 0.725803 0.010479
C59   C     C_1   0.767533 0.500003 0.767190 0.010509
C60   C     C_1   0.267533 0.000003 0.767190 0.010509
C61   C     C_1   0.816679 0.500004 0.816489 0.023107
C62   C     C_1   0.316679 0.000004 0.816489 0.023107
C63   C     C_1   0.857952 0.500003 0.857891 -0.212642
C64   C     C_3   0.204169 0.499902 0.217239 0.062298
C65   C     C_1   0.357952 0.000003 0.857891 -0.212643
C66   C     C_R   0.994884 0.500000 0.081702 0.916853
C67   C     C_R   0.494884 1.000000 0.081702 0.916856
C68   C     C_R   0.076746 0.499997 0.075576 0.932264
C69   C     C_R   0.576748 0.999997 0.075587 0.932207
C70   C     C_R   0.992976 0.500000 0.906347 0.900093
C71   C     C_R   0.492976 0.000000 0.906347 0.900117
C72   C     C_R   0.907987 0.500001 0.908065 0.885156
C73   C     C_R   0.407987 0.000001 0.908065 0.885154
C74   C     C_R   0.585807 0.500000 0.585634 0.884196
C75   C     C_3   0.704165 0.999814 0.217331 0.062360
C76   C     C_R   0.085807 1.000000 0.585634 0.884196
C77   C     C_R   0.499129 0.000000 0.412936 0.895741
C78   C     C_R   0.999129 0.500000 0.412936 0.895741
C79   C     C_R   0.499958 0.913728 0.499984 0.895589
C80   C     C_R   0.499955 0.086272 0.499982 0.895571
C81   C     C_R   0.999958 0.413728 0.499984 0.895582
C82   C     C_R   0.999955 0.586272 0.499982 0.895578
C83   C     C_R   0.500718 1.000000 0.587006 0.895400
C84   C     C_R   0.000718 0.500000 0.587006 0.895401
C85   C     C_1   0.995687 0.500000 0.133074 -0.202457
C86   C     C_3   0.230040 0.500815 0.197909 -0.280840
C87   C     C_1   0.495687 1.000000 0.133074 -0.202441
C88   C     C_1   0.996369 0.500000 0.175887 0.020151
C89   C     C_1   0.496369 1.000000 0.175888 0.020158
C90   C     C_1   0.997160 0.500000 0.226402 0.020967
C91   C     C_1   0.497160 1.000000 0.226402 0.020969
C92   C     C_1   0.497792 0.000000 0.269164 0.018915
C93   C     C_1   0.997792 0.500000 0.269164 0.018912
C94   C     C_1   0.498455 1.000000 0.319553 0.015001
C95   C     C_1   0.998455 0.500000 0.319553 0.015000
C96   C     C_1   0.498886 0.000000 0.362118 -0.203471
C97   C     C_3   0.730014 0.001191 0.197974 -0.280973
C98   C     C_1   0.998886 0.500000 0.362118 -0.203473
C99   C     C_1   0.993993 0.500000 0.856767 -0.208247
C100  C     C_1   0.493993 0.000000 0.856767 -0.208258
C101  C     C_3   0.233301 0.537068 0.267248 -0.118671
C102  C     C_3   0.233248 0.461855 0.265637 -0.118767
C103  C     C_3   0.733344 0.036721 0.267770 -0.118590
C104  C     C_3   0.733222 0.961529 0.265270 -0.118798
C105  C     C_1   0.995184 0.500000 0.815822 0.014703
C106  C     C_1   0.495184 0.000000 0.815822 0.014704
C107  C     C_1   0.996769 0.500000 0.767676 0.017126
C108  C     C_1   0.334648 0.499952 0.339153 0.153588
C109  C     C_1   0.496769 0.000000 0.767676 0.017125
C110  C     C_1   0.498111 0.000000 0.726889 0.016428
C111  C     C_1   0.998111 0.500000 0.726889 0.016429
C112  C     C_1   0.499541 0.000000 0.678582 0.013697
C113  C     C_1   0.999541 0.500000 0.678583 0.013698
C114  C     C_1   0.500419 0.000000 0.637315 -0.204573
C115  C     C_1   0.000419 0.500000 0.637316 -0.204573
C116  C     C_3   0.259776 0.537827 0.248981 -0.066917
C117  C     C_3   0.259719 0.462901 0.247373 -0.066985
C118  C     C_3   0.759795 0.037940 0.249474 -0.066912
H1    H     H_    0.215541 0.501551 0.148503 0.177162
H2    H     H_    0.667819 0.881199 0.247253 0.353170
H3    H     H_    0.334998 0.497137 0.476486 0.352992
H4    H     H_    0.835068 0.995512 0.476527 0.352990
H5    H     H_    0.715498 0.002323 0.148569 0.177151
H6    H     H_    0.323263 0.619260 0.264002 0.351475
H7    H     H_    0.323080 0.383421 0.258950 0.351550
H8    H     H_    0.823319 0.119832 0.265361 0.351453
H9    H     H_    0.822922 0.884074 0.257520 0.351570
H10   H     H_    0.168027 0.614997 0.253390 0.353142
H11   H     H_    0.167883 0.381914 0.248368 0.353164
H12   H     H_    0.668161 0.114129 0.254902 0.353134
O1    O     O_R   0.500400 0.563130 0.536080 -0.594091
O2    O     O_R   0.963990 0.500000 0.400890 -0.592230
O3    O     O_R   0.534410 0.000000 0.471310 -0.590894
O4    O     O_R   0.034410 0.500000 0.471310 -0.590895
O5    O     O_R   0.464750 0.936830 0.464780 -0.591195
O6    O     O_R   0.464750 0.063170 0.464780 -0.591162
O7    O     O_R   0.964750 0.436830 0.464780 -0.591204
O8    O     O_R   0.964750 0.563170 0.464780 -0.591152
O9    O     O_R   0.535170 0.936820 0.535200 -0.592253
O10   O     O_R   0.535170 0.063180 0.535200 -0.592288
O11   O     O_R   0.035170 0.436820 0.535200 -0.592255
O12   O     O_R   0.500400 0.436870 0.536080 -0.594083
O13   O     O_R   0.035170 0.563180 0.535200 -0.592286
O14   O     O_R   0.465520 0.000000 0.528690 -0.591660
O15   O     O_R   0.965520 0.500000 0.528690 -0.591660
O16   O     O_R   0.535930 0.000000 0.599110 -0.591940
O17   O     O_R   0.035930 0.500000 0.599110 -0.591940
O18   O     O_R   0.499540 0.563080 0.463930 -0.595560
O19   O     O_R   0.499540 0.436920 0.463930 -0.595459
O20   O     O_R   0.999540 0.063080 0.463930 -0.595587
O21   O     O_R   0.999540 0.936920 0.463930 -0.595434
O22   O     O_R   0.438030 0.500000 0.473700 -0.598946
O23   O     O_R   0.000400 0.063130 0.536080 -0.594095
O24   O     O_R   0.938030 0.000000 0.473700 -0.598921
O25   O     O_R   0.437170 0.500000 0.401550 -0.606724
O26   O     O_R   0.937170 1.000000 0.401550 -0.606723
O27   O     O_R   0.562760 0.500000 0.598450 -0.592515
O28   O     O_R   0.062760 0.000000 0.598450 -0.592515
O29   O     O_R   0.561900 0.500000 0.526300 -0.592691
O30   O     O_R   0.061900 0.000000 0.526300 -0.592690
O31   O     O_R   0.994600 0.535610 0.057840 -0.592632
O32   O     O_R   0.994600 0.464390 0.057840 -0.592656
O33   O     O_R   0.494600 0.035610 0.057840 -0.592637
O34   O     O_R   0.000400 0.936870 0.536080 -0.594073
O35   O     O_R   0.494600 0.964390 0.057840 -0.592653
O36   O     O_R   0.056200 0.535620 0.056290 -0.600596
O37   O     O_R   0.056200 0.464380 0.056290 -0.599942
O38   O     O_R   0.556200 0.035620 0.056290 -0.600766
O39   O     O_R   0.556200 0.964380 0.056290 -0.599766
O40   O     O_R   0.993060 0.535640 0.930020 -0.596498
O41   O     O_R   0.993060 0.464360 0.930020 -0.596386
O42   O     O_R   0.493060 0.035640 0.930020 -0.596521
O43   O     O_R   0.493060 0.964360 0.930020 -0.596350
O44   O     O_2   0.246015 0.607081 0.196450 -0.605776
O45   O     O_R   0.931470 0.535630 0.931560 -0.592141
O46   O     O_R   0.318151 0.589497 0.275917 -0.806308
O47   O     O_2   0.245850 0.395336 0.191900 -0.605895
O48   O     O_R   0.318013 0.412466 0.272126 -0.805959
O49   O     O_2   0.746068 0.107624 0.197742 -0.605746
O50   O     O_R   0.818193 0.089891 0.276944 -0.806438
O51   O     O_2   0.745711 0.895937 0.190697 -0.605951
O52   O     O_R   0.817894 0.912921 0.271058 -0.805805
O53   O     O_2   0.245523 0.605544 0.320189 -0.599536
O54   O     O_R   0.173841 0.585945 0.241222 -0.787336
O55   O     O_2   0.245395 0.391750 0.315657 -0.599609
O56   O     O_R   0.931470 0.464370 0.931560 -0.592164
O57   O     O_R   0.173730 0.411684 0.237461 -0.787195
O58   O     O_2   0.745644 0.104738 0.321524 -0.599540
O59   O     O_R   0.673943 0.085273 0.242378 -0.787332
O60   O     O_2   0.745324 0.890983 0.314432 -0.599618
O61   O     O_R   0.673682 0.911133 0.236663 -0.787130
O62   O     O_2   0.256636 0.497362 0.390330 -0.597669
O63   O     O_R   0.326760 0.497839 0.434612 -0.789514
O64   O     O_2   0.756701 0.995905 0.390421 -0.597642
O65   O     O_R   0.826810 0.996590 0.434648 -0.789532
O66   O     O_R   0.431470 0.035630 0.931560 -0.592140
O67   O     O_R   0.431470 0.964370 0.931560 -0.592166
O68   O     O_R   0.463990 1.000000 0.400890 -0.592230
Zn1   Zn    Zn3+2 0.500540 0.500000 0.548170 1.007532
Zn2   Zn    Zn3+2 0.952950 0.500000 0.452980 0.988548
Zn3   Zn    Zn3+2 0.546980 0.000000 0.547020 0.987317
Zn4   Zn    Zn3+2 0.046980 0.500000 0.547020 0.987315
Zn5   Zn    Zn3+2 0.000540 0.000000 0.548170 1.007542
Zn6   Zn    Zn3+2 0.499390 0.500000 0.451830 0.999011
Zn7   Zn    Zn3+2 0.999390 1.000000 0.451830 0.999008
Zn8   Zn    Zn3+2 0.993830 0.547580 0.993940 1.002078
Zn9   Zn    Zn3+2 0.993830 0.452420 0.993940 1.002412
Zn10  Zn    Zn3+2 0.493830 0.047580 0.993940 1.001973
Zn11  Zn    Zn3+2 0.493830 0.952420 0.993940 1.002511
Zn12  Zn    Zn3+2 0.452950 0.000000 0.452980 0.988548

loop_
_geom_bond_atom_site_label_1
_geom_bond_atom_site_label_2
_ccdc_geom_bond_type
C3    C104  S    
C25   C31   S    
C79   O9    A    
C51   O24   A    
C15   O49   D    
O32   Zn9   S    
O12   Zn1   S    
O33   Zn10  S    
C10   C108  S    
H10   O54   S    
C75   C97   S    
H4    O65   S    
C20   O61   S    
C112  C114  T    
O24   Zn5   S    
C95   C98   T    
C15   C118  S    
C84   O15   A    
C64   C102  S    
C4    C108  T    
C26   C42   S    
C74   O29   A    
C32   C36   S    
C60   C62   S    
O40   Zn8   S    
O16   Zn3   S    
C52   C74   S    
C22   O64   D    
C20   O60   D    
C83   O14   A    
C31   O19   A    
C16   O52   S    
C9    C22   S    
C57   C59   T    
C58   C60   T    
C18   O57   S    
O2    Zn2   S    
C65   C73   S    
C48   C81   S    
C66   O32   A    
C86   C116  S    
C18   C102  S    
C72   O45   A    
H3    O63   S    
C97   C118  S    
C61   C63   T    
C17   C101  S    
C78   O2    A    
O30   Zn7   S    
C19   C103  S    
C73   O67   A    
C78   C98   S    
C41   C46   T    
O38   Zn10  S    
H8    O50   S    
C86   H1    S    
C45   C49   T    
C89   C91   S    
C77   O68   A    
C62   C65   T    
C52   C55   T    
C12   O46   S    
C67   O35   A    
C6    C68   S    
C93   C95   S    
C15   O50   S    
C75   C103  S    
O28   Zn5   S    
C83   C114  S    
C64   C101  S    
C77   O3    A    
C47   C80   S    
C66   C85   S    
O68   Zn12  S    
C2    C11   S    
C64   C86   S    
O4    Zn4   S    
C25   C29   T    
C40   C45   S    
C99   C105  T    
C54   C56   T    
C51   O26   A    
C59   C61   S    
C103  C118  S    
O31   Zn8   S    
C36   C40   T    
C42   O23   A    
C3    C11   S    
O11   Zn4   S    
O15   Zn2   S    
O9    Zn3   S    
H2    O61   S    
C91   C92   T    
C16   O51   D    
C21   O62   D    
C80   O10   A    
C29   C34   S    
C33   C37   T    
C71   O43   A    
C66   O31   A    
C4    C50   S    
C67   C87   S    
O27   Zn1   S    
O37   Zn9   S    
C49   C82   S    
O66   Zn10  S    
O1    Zn1   S    
C70   O41   A    
O23   Zn5   S    
O34   Zn5   S    
C50   O22   A    
C19   O58   D    
C83   O16   A    
C105  C107  S    
C3    C97   S    
O7    Zn2   S    
O42   Zn10  S    
C50   O25   A    
C9    C103  S    
C14   C117  S    
O39   Zn11  S    
O13   Zn4   S    
C92   C94   S    
C8    C21   S    
C111  C113  S    
H11   O57   S    
C69   O39   A    
O21   Zn7   S    
C94   C96   T    
O26   Zn7   S    
C9    C11   S    
O19   Zn6   S    
C72   O56   A    
C14   O48   S    
C102  C117  S    
C19   O59   S    
O6    Zn12  S    
O56   Zn9   S    
C8    C10   S    
C88   C90   S    
C28   C33   S    
C26   C30   T    
C84   C115  S    
H12   O59   S    
C55   C57   S    
C75   C104  S    
C54   C76   S    
C22   O65   S    
C2    C5    T    
O41   Zn9   S    
O25   Zn6   S    
C10   C116  S    
C70   C99   S    
O18   Zn6   S    
C90   C93   T    
C12   O44   D    
C8    C101  S    
C85   C88   T    
H9    O52   S    
C76   O30   A    
C68   O36   A    
C18   O55   D    
C74   O27   A    
C27   C32   T    
C34   C38   T    
C107  C111  T    
O17   Zn4   S    
O43   Zn11  S    
C24   C28   T    
O20   Zn7   S    
C23   C75   S    
C82   O13   A    
C1    O1    A    
C7    C69   S    
C27   C53   S    
C53   O34   A    
C39   C44   S    
H6    O46   S    
C84   O17   A    
C30   C35   S    
C71   C100  S    
C77   C96   S    
C100  C106  T    
C80   O6    A    
C17   O53   D    
C21   O63   S    
C31   O12   A    
C87   C89   T    
C70   O40   A    
C69   O38   A    
C79   O5    A    
C97   H5    S    
C10   C117  S    
O10   Zn3   S    
C6    C13   T    
C17   O54   S    
O35   Zn11  S    
O29   Zn6   S    
C46   C79   S    
C13   C64   S    
C8    C102  S    
C9    C104  S    
C7    C23   T    
C35   C39   T    
C76   O28   A    
C81   O11   A    
C56   C58   S    
C86   C117  S    
C37   C41   S    
O14   Zn12  S    
C42   O20   A    
C110  C112  S    
C14   O47   D    
O67   Zn11  S    
C20   C104  S    
C78   O4    A    
C68   O37   A    
C67   O33   A    
C38   C43   S    
O5    Zn12  S    
C63   C72   S    
O22   Zn1   S    
C1    C24   S    
C82   O8    A    
C73   O66   A    
H7    O48   S    
C81   O7    A    
C101  C116  S    
C71   O42   A    
C5    C51   S    
C1    O18   A    
O36   Zn8   S    
O45   Zn8   S    
C113  C115  T    
O3    Zn3   S    
C109  C110  T    
C11   C118  S    
C43   C47   T    
C3    C16   S    
C44   C48   T    
C53   O21   A    
C12   C116  S    
C106  C109  S    
O8    Zn2   S    
