data_mof_unit_9949.cif
_audit_creation_date              2012-12-10T17:35:33-0500
_audit_creation_method            fapswitch 2.2
_symmetry_space_group_name_H-M    P1
_symmetry_Int_Tables_number       1
_space_group_crystal_system       triclinic
_cell_length_a                    10.714893
_cell_length_b                    12.384581
_cell_length_c                    13.283473
_cell_angle_alpha                 117.14265
_cell_angle_beta                  76.440654
_cell_angle_gamma                 101.367894
_cell_volume                      1516.56580579

loop_
_atom_site_label
_atom_site_type_symbol
_atom_type_description
_atom_site_fract_x
_atom_site_fract_y
_atom_site_fract_z
_atom_type_partial_charge
C1    C     C_R   0.512841 0.854892 0.286814 0.769501
C2    C     C_3   0.122106 0.001361 0.500769 0.091394
C3    C     C_3   0.040883 0.022417 0.621329 -0.125362
C4    C     C_3   0.070432 0.876558 0.410755 -0.400546
C5    C     C_R   0.327868 0.279025 0.022371 -0.174116
C6    C     C_R   0.457878 0.227781 0.834940 -0.065047
C7    C     C_R   0.609955 0.812716 0.086797 -0.195334
C8    C     C_R   0.643223 0.731907 0.973085 -0.153307
C9    C     C_R   0.597264 0.609153 0.935497 -0.136777
C10   C     C_R   0.511014 0.565112 0.010638 0.085239
C11   C     C_R   0.467073 0.650511 0.123729 0.077888
C12   C     C_R   0.739897 0.999505 0.499074 0.752270
C13   C     C_R   0.466078 0.439482 0.977220 0.083895
C14   C     C_R   0.372366 0.402682 0.054007 0.153439
C15   C     C_R   0.321030 0.489795 0.160067 -0.233602
C16   C     C_R   0.365513 0.612051 0.193469 -0.197407
C17   C     C_R   0.510605 0.348950 0.869327 -0.214755
C18   C     C_R   0.370121 0.191819 0.912960 -0.117055
C19   C     C_R   0.525376 0.772627 0.163830 -0.104532
C20   C     C_R   0.699349 0.339945 0.319891 -0.299319
C21   C     C_R   0.315186 0.755565 0.636064 0.069051
C22   C     C_R   0.260425 0.650436 0.648935 -0.257385
C23   C     C_R   0.482017 0.144981 0.713225 0.820348
C24   C     C_R   0.323653 0.545350 0.589521 -0.120718
C25   C     C_R   0.447539 0.546182 0.522714 0.014514
C26   C     C_R   0.492154 0.651660 0.502211 0.281925
C27   C     C_R   0.524122 0.444053 0.469029 -0.045439
C28   C     C_R   0.629014 0.441627 0.380687 0.159889
C29   C     C_R   0.664635 0.541756 0.354889 -0.281050
C30   C     C_R   0.600247 0.645818 0.416727 -0.191994
C31   C     C_R   0.505165 0.346072 0.501458 0.123971
C32   C     C_R   0.668521 0.241730 0.348377 0.049470
C33   C     C_R   0.260370 0.000129 0.499871 0.767203
C34   C     C_3   0.960860 0.102663 0.468955 -0.370177
C35   C     C_3   0.103841 0.101781 0.467290 -0.391506
C36   C     C_3   0.896835 0.023736 0.620257 -0.428402
C37   C     C_3   0.926359 0.875852 0.410351 -0.392294
C38   C     C_3   0.878085 0.000240 0.499472 0.150450
Cu1   Cu    Cu3+1 0.529690 0.098270 0.475420 0.925485
Cu2   Cu    Cu3+1 0.470310 0.901730 0.524580 0.925034
H1    H     H_    0.929868 0.193459 0.533024 0.170216
H2    H     H_    0.082092 0.801189 0.430443 0.169413
H3    H     H_    0.837929 0.951868 0.644548 0.175009
H4    H     H_    0.048133 0.944051 0.638713 0.161703
H5    H     H_    0.329051 0.097756 0.887503 0.166064
H6    H     H_    0.245311 0.463449 0.217301 0.141349
H7    H     H_    0.256807 0.250419 0.080786 0.131479
H8    H     H_    0.584144 0.369976 0.808331 0.159004
H9    H     H_    0.654277 0.906058 0.115327 0.150997
H10   H     H_    0.630009 0.552120 0.846667 0.159686
H11   H     H_    0.708890 0.763791 0.914410 0.143549
H12   H     H_    0.947546 0.089576 0.383281 0.167472
H13   H     H_    0.317008 0.675988 0.273837 0.167001
H14   H     H_    0.721334 0.162414 0.300177 0.123561
H15   H     H_    0.745541 0.541041 0.287986 0.150616
H16   H     H_    0.777929 0.336446 0.250488 0.141177
H17   H     H_    0.264263 0.836237 0.679815 0.139805
H18   H     H_    0.270674 0.463368 0.593240 0.117782
H19   H     H_    0.167032 0.649189 0.702037 0.142230
H20   H     H_    0.636039 0.718522 0.392230 0.201798
H21   H     H_    0.158124 0.084239 0.379723 0.180185
H22   H     H_    0.142696 0.193522 0.526624 0.141061
H23   H     H_    0.860472 0.112246 0.684698 0.144371
H24   H     H_    0.869595 0.800748 0.430744 0.172915
H25   H     H_    0.912682 0.857258 0.323158 0.152609
H26   H     H_    0.126684 0.858660 0.323782 0.160340
N1    N     N_R   0.574690 0.246280 0.438200 -0.211622
N2    N     N_R   0.426100 0.754320 0.561190 -0.209385
O1    O     O_R   0.537340 0.972510 0.318130 -0.580577
O2    O     O_R   0.487200 0.806530 0.359650 -0.599064
O3    O     O_R   0.707380 0.082980 0.479220 -0.589467
O4    O     O_R   0.657240 0.917000 0.520740 -0.602005
O5    O     O_R   0.512800 0.193470 0.640350 -0.583498
O6    O     O_R   0.462660 0.027490 0.681870 -0.579413
O7    O     O_R   0.342760 0.083000 0.479260 -0.613487
O8    O     O_R   0.292620 0.917020 0.520780 -0.592580
C39   C     C_2   0.425431 0.358835 0.612113 0.383796
H27   H     H_    0.345614 0.291790 0.616766 0.086308
O9    O     O_2   0.448089 0.446907 0.700653 -0.572232
C40   C     C_2   0.089445 0.137835 0.716858 0.316977
H28   H     H_    0.087871 0.226250 0.719161 0.077931
O10   O     O_2   0.129433 0.132709 0.793175 -0.567919

loop_
_geom_bond_atom_site_label_1
_geom_bond_atom_site_label_2
_ccdc_geom_bond_type
C2    C35   S    
C17   H8    S    
C20   H16   S    
C7    C8    A    
C39   H27   S    
C31   N1    A    
C5    H7    S    
C11   C19   A    
C29   C30   A    
Cu2   O2    S    
C28   C29   A    
C15   C16   A    
C34   C35   S    
C16   H13   S    
C33   O7    A    
C8    C9    A    
C30   H20   S    
Cu1   O7    S    
C36   H23   S    
C9    C10   A    
C12   O4    A    
C21   C22   A    
C34   H1    S    
C23   O5    A    
C3    C40   S    
C32   H14   S    
C31   C39   S    
C39   O9    D    
C6    C18   A    
C3    H4    S    
C1    C19   S    
C27   C31   A    
C24   C25   A    
C7    H9    S    
C40   O10   D    
Cu1   Cu2   S    
C5    C18   A    
C29   H15   S    
C25   C26   A    
C1    O1    A    
Cu2   O8    S    
C37   H25   S    
C2    C4    S    
C21   H17   S    
C37   C38   S    
C11   C16   A    
C33   O8    A    
Cu1   O1    S    
C35   H21   S    
C8    H11   S    
C5    C14   A    
C32   N1    A    
C2    C33   S    
C12   O3    A    
C26   C30   A    
C7    C19   A    
C21   N2    A    
C22   C24   A    
C23   O6    A    
C18   H5    S    
C22   H19   S    
C37   H24   S    
C20   C32   A    
C6    C17   A    
Cu2   O4    S    
C34   C38   S    
Cu1   N1    S    
C9    H10   S    
C40   H28   S    
C10   C13   A    
C25   C27   A    
C20   C28   A    
C34   H12   S    
C1    O2    A    
C13   C17   A    
C26   N2    A    
C36   C38   S    
C2    C3    S    
C4    H26   S    
C4    H2    S    
C3    C36   S    
C6    C23   S    
Cu2   O6    S    
C35   H22   S    
Cu1   O5    S    
C12   C38   S    
C10   C11   A    
C4    C37   S    
C24   H18   S    
Cu2   N2    S    
C27   C28   A    
Cu1   O3    S    
C14   C15   A    
C36   H3    S    
C15   H6    S    
C13   C14   A    
