data_mof_unit_21411.cif
_audit_creation_date              2012-12-11T15:58:43-0500
_audit_creation_method            fapswitch 2.2
_symmetry_space_group_name_H-M    P1
_symmetry_Int_Tables_number       1
_space_group_crystal_system       triclinic
_cell_length_a                    8.259367
_cell_length_b                    18.847269
_cell_length_c                    18.98166
_cell_angle_alpha                 98.26301
_cell_angle_beta                  94.833611
_cell_angle_gamma                 91.267822
_cell_volume                      2911.97828962

loop_
_atom_site_label
_atom_site_type_symbol
_atom_type_description
_atom_site_fract_x
_atom_site_fract_y
_atom_site_fract_z
_atom_type_partial_charge
Ba1   Ba    Ba6+2 0.152460 0.535140 0.468980 1.639606
Ba2   Ba    Ba6+2 0.657710 0.464850 0.530960 1.632146
C1    C     C_3   0.369863 0.720363 0.214222 -0.105425
C2    C     C_R   0.095428 0.899305 0.564646 0.047575
C3    C     C_R   0.256736 0.918531 0.590666 0.138842
C4    C     C_3   0.914878 0.732352 0.311460 0.315047
C5    C     C_R   0.318420 0.987086 0.587127 -0.111289
C6    C     C_R   0.218845 0.039971 0.562953 0.000977
C7    C     C_R   0.060746 0.019933 0.532319 -0.010243
C8    C     C_R   0.273604 0.112627 0.572419 0.152034
C9    C     C_R   0.178910 0.165128 0.541708 -0.034118
C10   C     C_R   0.023664 0.142773 0.504637 -0.006648
C11   C     C_R   0.964300 0.070507 0.502115 0.001592
C12   C     C_3   0.385382 0.695473 0.287673 0.344517
C13   C     C_R   0.232330 0.238677 0.545270 0.004878
C14   C     C_R   0.130749 0.286549 0.513271 -0.262031
C15   C     C_R   0.980042 0.265707 0.475546 0.062715
C16   C     C_3   0.948250 0.802531 0.282378 -0.122721
C17   C     C_R   0.926077 0.192247 0.470454 -0.007084
C18   C     C_R   0.841245 0.927651 0.501801 0.000529
C19   C     C_R   0.782408 0.855770 0.500370 -0.008461
C20   C     C_R   0.881045 0.805946 0.532300 -0.063270
C21   C     C_R   0.031246 0.830668 0.568451 -0.034422
C22   C     C_R   0.776972 0.166478 0.432466 -0.035921
C23   C     C_3   0.531204 0.683732 0.649353 0.318177
C24   C     C_R   0.715613 0.096492 0.433790 0.012688
C25   C     C_R   0.808214 0.048308 0.468985 0.014949
C26   C     C_R   0.745757 0.977306 0.469522 -0.006298
C27   C     C_R   0.561510 0.074127 0.400243 -0.111366
C28   C     C_3   0.792146 0.382244 0.311879 0.339563
C29   C     C_R   0.495871 0.005250 0.402962 0.130644
C30   C     C_R   0.588692 0.955776 0.436898 0.046881
C31   C     C_R   0.625884 0.833846 0.466848 -0.067596
C32   C     C_R   0.529413 0.884859 0.437053 -0.111879
C33   C     C_R   0.572486 0.761128 0.463304 0.004978
C34   C     C_3   0.608591 0.755094 0.685503 -0.384549
C35   C     C_R   0.676163 0.711812 0.490574 -0.288844
C36   C     C_R   0.828391 0.732661 0.525887 0.048791
C37   C     C_R   0.602392 0.534717 0.302728 -0.292901
C38   C     C_R   0.457867 0.496378 0.277478 0.088333
C39   C     C_R   0.403093 0.489923 0.204902 -0.110973
C40   C     C_3   0.766770 0.365924 0.230469 -0.127738
C41   C     C_R   0.494928 0.520306 0.156771 -0.026718
C42   C     C_R   0.644710 0.555884 0.182661 -0.146902
C43   C     C_R   0.698861 0.561918 0.255228 0.006383
C44   C     C_R   0.461018 0.568260 0.039723 -0.081556
C45   C     C_3   0.946189 0.268416 0.718032 0.433983
C46   C     C_R   0.409416 0.560282 0.966901 -0.075956
C47   C     C_R   0.335499 0.495427 0.931626 0.065584
C48   C     C_R   0.312693 0.439016 0.971223 -0.082711
C49   C     C_R   0.363890 0.447076 0.044176 -0.075769
C50   C     C_R   0.438860 0.511815 0.079331 0.061829
C51   C     C_R   0.138945 0.449250 0.825157 -0.178824
C52   C     C_3   0.010915 0.623321 0.692291 0.293413
C53   C     C_R   0.093929 0.440748 0.751563 0.042471
C54   C     C_R   0.337940 0.507767 0.733747 0.015939
C55   C     C_R   0.384107 0.515716 0.807068 -0.145726
C56   C     C_3   0.957652 0.221003 0.777643 -0.076470
C57   C     C_R   0.285845 0.486220 0.853586 -0.005991
C58   C     C_R   0.195040 0.468413 0.706026 -0.110277
C59   C     C_3   0.001155 0.640050 0.772575 -0.378365
C60   C     C_3   0.285389 0.314192 0.357115 0.337939
C61   C     C_3   0.265375 0.236157 0.321220 -0.152128
C62   C     C_3   0.398012 0.131010 0.694096 -0.178330
C63   C     C_3   0.444325 0.323303 0.717548 0.413716
C64   C     C_3   0.467750 0.307309 0.794073 -0.387073
C65   C     C_R   0.999167 0.948906 0.532567 -0.014745
H1    H     H_    0.318156 0.643019 0.283087 0.063288
H2    H     H_    0.370141 0.318013 0.406312 0.036503
H3    H     H_    0.421603 0.679561 0.175082 0.065317
H4    H     H_    0.178538 0.233182 0.272709 0.120107
H5    H     H_    0.384586 0.216799 0.304345 0.097430
H6    H     H_    0.515984 0.688209 0.303140 -0.073890
H7    H     H_    0.627732 0.651822 0.623970 0.024970
H8    H     H_    0.435719 0.693495 0.607350 0.050268
H9    H     H_    0.710155 0.745821 0.724888 0.135990
H10   H     H_    0.656658 0.785261 0.645315 0.056608
H11   H     H_    0.517358 0.787445 0.714197 0.130056
H12   H     H_    0.751315 0.416853 0.208223 0.059654
H13   H     H_    0.239520 0.724802 0.196129 0.127707
H14   H     H_    0.069173 0.291898 0.715690 -0.037786
H15   H     H_    0.836671 0.195366 0.781362 0.102469
H16   H     H_    0.043456 0.177469 0.764650 0.070656
H17   H     H_    0.313524 0.330365 0.703883 -0.106945
H18   H     H_    0.511812 0.374102 0.714741 0.096728
H19   H     H_    0.434185 0.354252 0.831458 0.074181
H20   H     H_    0.596313 0.295543 0.808321 0.154196
H21   H     H_    0.983850 0.733849 0.364536 0.091264
H22   H     H_    0.389654 0.260623 0.800729 0.087783
H23   H     H_    0.875900 0.340120 0.209008 0.092508
H24   H     H_    0.444741 0.998615 0.606038 0.071938
H25   H     H_    0.174069 0.341009 0.513930 0.051244
H26   H     H_    0.102812 0.796101 0.598164 0.137365
H27   H     H_    0.704566 0.200787 0.402488 0.092704
H28   H     H_    0.491345 0.110239 0.371531 0.058526
H29   H     H_    0.408903 0.869247 0.412333 0.139847
H30   H     H_    0.782749 0.726885 0.317275 -0.070022
H31   H     H_    0.635139 0.656356 0.486574 0.072456
H32   H     H_    0.495877 0.545446 0.827642 0.080555
H33   H     H_    0.426238 0.605274 0.938329 0.065039
H34   H     H_    0.138069 0.612248 0.682416 0.007614
H35   H     H_    0.517063 0.618988 0.065126 0.066911
H36   H     H_    0.290202 0.460320 0.186066 0.085556
H37   H     H_    0.258492 0.388023 0.945461 0.065524
H38   H     H_    0.347928 0.401969 0.072681 0.064740
H39   H     H_    0.057496 0.429235 0.860128 0.069887
H40   H     H_    0.722389 0.576001 0.146248 0.081817
H41   H     H_    0.078405 0.807267 0.272706 0.152598
H42   H     H_    0.646540 0.538146 0.358469 0.070975
H43   H     H_    0.875390 0.802109 0.230358 0.107815
H44   H     H_    0.678013 0.401010 0.333458 0.015730
H45   H     H_    0.928550 0.576225 0.671879 0.071731
H46   H     H_    0.888118 0.425171 0.326288 0.042466
H47   H     H_    0.602305 0.314675 0.152626 0.170536
H48   H     H_    0.647802 0.268088 0.220148 0.202490
H49   H     H_    0.182129 0.138949 0.340418 0.182686
H50   H     H_    0.296030 0.186277 0.409196 0.164850
H51   H     H_    0.576305 0.785394 0.234829 0.176171
H52   H     H_    0.402780 0.828474 0.250079 0.212978
H53   H     H_    0.786493 0.859978 0.341531 0.178471
H54   H     H_    0.980244 0.865617 0.379858 0.196505
H55   H     H_    0.881989 0.257953 0.611072 0.194594
H56   H     H_    0.081775 0.687222 0.795141 0.124929
H57   H     H_    0.784336 0.199189 0.652180 0.208362
H58   H     H_    0.928341 0.300818 0.861121 0.195155
H59   H     H_    0.123270 0.289210 0.842681 0.161742
H60   H     H_    0.399948 0.891202 0.672942 0.161326
H61   H     H_    0.461286 0.862216 0.591448 0.173423
H62   H     H_    0.521328 0.110983 0.601363 0.189794
H63   H     H_    0.512509 0.150906 0.726448 0.122160
H64   H     H_    0.371537 0.075970 0.705021 0.076012
H65   H     H_    0.297461 0.165534 0.711424 0.105828
H66   H     H_    0.254567 0.021350 0.394524 0.177757
H67   H     H_    0.040232 0.593443 0.798547 0.070751
H68   H     H_    0.332209 0.991929 0.316366 0.177051
H69   H     H_    0.114043 0.505619 0.613085 0.189478
H70   H     H_    0.232645 0.431676 0.602738 0.205296
H71   H     H_    0.874099 0.651678 0.784226 0.119098
H72   H     H_    0.165165 0.334307 0.370401 0.007523
N1    N     N_3   0.622412 0.319403 0.208258 -0.478291
N2    N     N_3   0.145708 0.457961 0.631346 -0.479556
N3    N     N_3   0.203642 0.190413 0.369095 -0.541697
N4    N     N_3   0.455286 0.789321 0.215160 -0.493036
N5    N     N_3   0.908460 0.865047 0.331698 -0.507079
N6    N     N_3   0.897884 0.223925 0.649695 -0.521351
N7    N     N_3   0.013469 0.262221 0.847022 -0.504561
N8    N     N_3   0.359717 0.868456 0.620719 -0.512770
N9    N     N_2   0.416119 0.133011 0.618915 -0.397153
N10   N     N_3   0.335308 0.985582 0.370276 -0.506945
O1    O     O_2   0.118870 0.674530 0.547560 -0.461916
O2    O     O_2   0.765465 0.454400 0.745765 -0.493158
O3    O     O_3   0.828820 0.320304 0.732912 -0.594761
O4    O     O_3   0.870460 0.585330 0.542110 -0.496036
O5    O     O_3   0.436130 0.464210 0.414140 -0.486529
O6    O     O_2   0.629420 0.533310 0.672080 -0.454488
O7    O     O_3   0.460215 0.650278 0.701240 -0.639906
O8    O     O_2   0.574265 0.243932 0.538023 -0.484622
O9    O     O_3   0.504240 0.267147 0.670981 -0.568807
O10   O     O_3   0.354280 0.631750 0.418430 -0.479693
O11   O     O_2   0.233677 0.756633 0.467521 -0.484937
O12   O     O_3   0.349759 0.352677 0.307836 -0.635895
O13   O     O_3   0.965569 0.683348 0.661097 -0.644759
O14   O     O_3   0.317745 0.746032 0.337637 -0.618339
O15   O     O_2   0.180880 0.466650 0.327890 -0.469820
O16   O     O_3   0.939000 0.596010 0.380670 -0.482799
O17   O     O_2   0.025089 0.540733 0.252437 -0.485454
O18   O     O_3   0.966099 0.675653 0.263067 -0.609444
O19   O     O_2   0.691430 0.325420 0.452420 -0.469473
O20   O     O_3   0.939830 0.414660 0.457830 -0.494169
O21   O     O_3   0.456020 0.368240 0.581510 -0.495383
O22   O     O_3   0.838975 0.319851 0.338922 -0.647057
O23   O     O_3   0.374170 0.535780 0.585810 -0.484888
O24   O     O_3   0.871300 0.403980 0.619270 -0.441389
P1    P     P_3+3 0.947550 0.663200 0.567530 0.965624
P2    P     P_3+3 0.354660 0.445020 0.336980 0.993557
P3    P     P_3+3 0.906287 0.593911 0.287985 0.942759
P4    P     P_3+3 0.862750 0.336790 0.432410 0.978403
P5    P     P_3+3 0.892061 0.403842 0.712727 0.968377
P6    P     P_3+3 0.369938 0.724897 0.423126 0.942994
P7    P     P_3+3 0.449383 0.557315 0.675303 0.940281
P8    P     P_3+3 0.439287 0.276943 0.582757 0.971720

loop_
_geom_bond_atom_site_label_1
_geom_bond_atom_site_label_2
_ccdc_geom_bond_type
C45   N6    S    
C48   H37   S    
Ba2   O6    S    
C3    N8    S    
Ba2   O20   S    
H52   N4    S    
C18   C65   A    
H53   N5    S    
C51   C57   A    
C5    C6    A    
C42   C43   A    
O16   P3    S    
C44   H35   S    
C24   C25   A    
C35   C36   A    
O5    P2    S    
C33   C35   A    
C32   H29   S    
C23   H7    S    
C34   H10   S    
C56   H15   S    
Ba2   O24   S    
C29   N10   S    
C59   H71   S    
C36   P1    S    
C60   O12   S    
C19   C31   A    
O19   P4    D    
C55   H32   S    
C44   C50   A    
C4    H21   S    
C54   C55   A    
O15   P2    D    
Ba1   Ba2   S    
H55   N6    S    
C12   O14   S    
C7    C11   A    
H62   N9    S    
C52   H34   S    
C15   C17   A    
C45   O3    S    
C9    C13   A    
C51   H39   S    
C62   H65   S    
Ba1   O15   S    
C14   C15   A    
H58   N7    S    
Ba2   P4    S    
H47   N1    S    
C60   H72   S    
C34   H9    S    
C37   C43   A    
O23   P7    S    
C40   H12   S    
Ba2   O5    S    
C53   C58   A    
C62   N9    S    
C23   O7    S    
C33   P6    S    
C52   H45   S    
C39   C41   A    
H54   N5    S    
O8    P8    D    
C46   H33   S    
C1    H13   S    
O20   P4    S    
C35   H31   S    
C59   H67   S    
C48   C49   A    
C64   H22   S    
C51   C53   A    
H59   N7    S    
C4    C16   S    
C44   C46   A    
Ba1   P1    S    
C40   N1    S    
C49   C50   A    
C37   H42   S    
C4    H30   S    
C26   C30   A    
C1    H3    S    
C1    N4    S    
H51   N4    S    
C43   P3    S    
O10   P6    S    
C37   C38   A    
C3    C5    A    
C2    C21   A    
C6    C7    A    
C63   H17   S    
C18   C26   A    
H60   N8    S    
H68   N10   S    
O4    P1    S    
C21   H26   S    
C60   H2    S    
C40   H23   S    
C30   C32   A    
C41   C42   A    
C7    C65   A    
O11   P6    D    
H69   N2    S    
C22   H27   S    
C58   N2    S    
C38   P2    S    
C12   H6    S    
C29   C30   A    
C62   H64   S    
Ba1   O10   S    
C49   H38   S    
C5    H24   S    
C18   C19   A    
C60   C61   S    
C31   C32   A    
H66   N10   S    
Ba1   O1    S    
C52   O13   S    
O22   P4    S    
Ba1   O4    S    
C1    C12   S    
Ba2   O21   S    
H49   N3    S    
C46   C47   A    
O1    P1    D    
C61   H4    S    
C14   H25   S    
Ba2   O4    S    
O21   P8    S    
O14   P6    S    
C53   P5    S    
C63   C64   S    
Ba2   O19   S    
C64   H20   S    
O6    P7    D    
C27   H28   S    
C54   P7    S    
C42   H40   S    
C15   P4    S    
H70   N2    S    
C4    O18   S    
Ba1   P2    S    
Ba1   O16   S    
C28   C40   S    
C16   H43   S    
C62   H63   S    
C63   O9    S    
O2    P5    D    
C64   H19   S    
C2    C65   A    
C9    C10   A    
C56   N7    S    
H61   N8    S    
C63   H18   S    
O13   P1    S    
C52   C59   S    
H57   N6    S    
Ba1   O23   S    
O17   P3    D    
C47   C57   S    
C28   H44   S    
C59   H56   S    
C16   N5    S    
C17   C22   A    
C27   C29   A    
C34   H11   S    
C56   H16   S    
C45   C56   S    
O7    P7    S    
C22   C24   A    
O24   P5    S    
O12   P2    S    
C13   P8    S    
C10   C17   A    
Ba1   O20   S    
C61   H5    S    
C31   C33   A    
C61   N3    S    
H50   N3    S    
C45   H14   S    
O3    P5    S    
Ba1   O5    S    
C41   C50   S    
O9    P8    S    
C16   H41   S    
C28   O22   S    
C55   C57   A    
C8    C9    A    
C23   C34   S    
C39   H36   S    
C2    C3    A    
C54   C58   A    
C10   C11   A    
C24   C27   A    
C6    C8    A    
C47   C48   A    
C8    N9    S    
C25   C26   A    
C12   H1    S    
C20   C21   A    
C11   C25   A    
C38   C39   A    
C23   H8    S    
C19   C20   A    
H48   N1    S    
C13   C14   A    
Ba2   O23   S    
O18   P3    S    
C28   H46   S    
C20   C36   A    
