data_mof_unit_54786.cif
_audit_creation_date              2013-03-05T16:00:29-0500
_audit_creation_method            fapswitch 2.2
_symmetry_space_group_name_H-M    P1
_symmetry_Int_Tables_number       1
_space_group_crystal_system       triclinic
_cell_length_a                    12.679003
_cell_length_b                    13.071046
_cell_length_c                    27.109754
_cell_angle_alpha                 93.848564
_cell_angle_beta                  103.188663
_cell_angle_gamma                 82.60044
_cell_volume                      4334.59469328

loop_
_atom_site_label
_atom_site_type_symbol
_atom_site_description
_atom_site_fract_x
_atom_site_fract_y
_atom_site_fract_z
_atom_type_partial_charge
O1    O     O_R   0.366730 0.627160 0.487740 -0.556540
O2    O     O_R   0.544830 0.662520 0.504140 -0.636882
C1    C     C_R   0.439026 0.691599 0.493472 0.974592
O3    O     O_R   0.410970 0.482310 0.563040 -0.528800
O4    O     O_R   0.589070 0.517670 0.579450 -0.645456
C2    C     C_R   0.503502 0.495590 0.594634 0.990456
Zn1   Zn    Zn3+2 0.381080 0.476390 0.489050 1.020770
Zn2   Zn    Zn3+2 0.618920 0.523610 0.510950 0.956087
O5    O     O_R   0.455170 0.337480 0.495860 -0.616669
O6    O     O_R   0.633270 0.372840 0.512260 -0.651006
O7    O     O_R   0.410930 0.482330 0.420550 -0.658735
O8    O     O_R   0.589030 0.517690 0.436960 -0.597355
C3    C     C_R   0.560544 0.308658 0.508061 0.954945
C4    C     C_R   0.498323 0.500278 0.405431 1.028708
C5    C     C_R   0.477429 0.318624 0.807379 0.497198
O9    O     O_2   0.382680 0.321955 0.772302 -0.590761
N1    N     N_R   0.568164 0.344096 0.794135 -0.325614
C6    C     C_R   0.664841 0.347263 0.828786 0.591828
C7    C     C_R   0.521161 0.318198 0.701442 -0.138156
C8    C     C_R   0.497932 0.357251 0.652335 0.434238
C9    C     C_R   0.555898 0.522663 0.689889 0.459830
C10   C     C_R   0.575569 0.481575 0.738242 -0.217558
C11   C     C_R   0.557450 0.380525 0.744072 0.193869
C12   C     C_R   0.574874 0.315629 0.895394 -0.072877
C13   C     C_R   0.480176 0.297756 0.857954 -0.087211
C14   C     C_R   0.388819 0.267978 0.872979 -0.003498
C15   C     C_R   0.671144 0.333531 0.880805 -0.125557
C16   C     C_R   0.518773 0.459421 0.646691 -0.232868
H1    H     H_    0.604804 0.527980 0.771941 0.159075
C17   C     C_R   0.502093 0.485983 0.351353 -0.219832
C18   C     C_R   0.461575 0.338480 0.011363 0.039768
C19   C     C_R   0.659957 0.335142 0.037236 -0.138902
C20   C     C_R   0.556390 0.349088 0.049573 0.009549
C21   C     C_R   0.358946 0.359444 0.023954 -0.316161
C22   C     C_R   0.349102 0.386607 0.073524 0.546129
C23   C     C_R   0.443721 0.396865 0.111940 -0.108286
C24   C     C_R   0.547695 0.375132 0.100135 -0.189619
C25   C     C_R   0.643049 0.381510 0.138614 -0.213662
C26   C     C_R   0.631969 0.416975 0.187592 0.644303
N2    N     N_R   0.530983 0.436637 0.198342 -0.305092
C27   C     C_R   0.437940 0.427211 0.162146 0.663210
C28   C     C_R   0.523855 0.556215 0.273151 -0.139071
C29   C     C_R   0.508968 0.571315 0.323452 0.359600
C30   C     C_R   0.509936 0.385596 0.328888 -0.169003
C31   C     C_R   0.516183 0.371298 0.277935 0.470539
C32   C     C_R   0.522382 0.456018 0.250089 0.115061
O10   O     O_2   0.340561 0.446917 0.175184 -0.482174
C33   C     C_R   0.471718 0.311684 0.961104 0.063514
C34   C     C_R   0.571437 0.319395 0.947380 0.016570
C35   C     C_R   0.665165 0.337028 0.985314 -0.045075
C36   C     C_R   0.384742 0.278278 0.924104 -0.201591
H2    H     H_    0.284140 0.360742 0.995243 0.171402
H3    H     H_    0.314254 0.256002 0.934951 0.181124
O11   O     O_2   0.752080 0.369939 0.812877 -0.494309
C37   C     C_R   0.765938 0.348425 0.919015 -0.168327
H4    H     H_    0.511141 0.239483 0.707522 0.166694
C38   C     C_R   0.753632 0.318993 0.077533 0.486727
C39   C     C_R   0.745935 0.347241 0.127548 0.438098
O12   O     O_2   0.720799 0.431797 0.224417 -0.524843
C40   C     C_R   0.758574 0.361508 0.970027 0.459069
C41   C     C_R   0.667599 0.088190 0.595895 0.574767
C42   C     C_R   0.595638 0.202870 0.525498 -0.250903
C43   C     C_R   0.315128 0.831901 0.445362 0.344744
C44   C     C_R   0.287010 0.937508 0.434968 -0.194029
C45   C     C_R   0.343160 0.011015 0.467647 0.501583
C46   C     C_R   0.437856 0.977797 0.504633 -0.023192
C47   C     C_R   0.450486 0.877228 0.521186 -0.133976
C48   C     C_R   0.519866 0.042007 0.526077 -0.022641
C49   C     C_R   0.590186 0.019607 0.573659 -0.144614
C50   C     C_R   0.581112 0.929232 0.597468 0.468475
C51   C     C_R   0.513332 0.856886 0.570541 -0.128332
C52   C     C_R   0.537770 0.124193 0.499450 -0.018565
C53   C     C_R   0.663739 0.184308 0.574103 -0.134322
C54   C     C_R   0.398245 0.801714 0.488047 -0.113769
C55   C     C_R   0.075454 0.377842 0.414299 -0.191625
H5    H     H_    0.048584 0.334907 0.379167 0.248337
N3    N     N_R   0.222180 0.444690 0.474320 -0.197335
C56   C     C_R   0.807553 0.610487 0.569333 -0.090537
C57   C     C_R   0.912950 0.638770 0.584300 -0.183058
C58   C     C_R   0.981677 0.618637 0.549867 0.030959
C59   C     C_R   0.959338 0.538879 0.511734 -0.004025
C60   C     C_R   0.851702 0.511157 0.499131 0.191424
C61   C     C_R   0.038409 0.483841 0.486723 -0.119039
C62   C     C_R   0.002278 0.418185 0.443789 0.010637
C63   C     C_R   0.894314 0.392597 0.431877 -0.033082
C64   C     C_R   0.822634 0.436561 0.461053 -0.254576
C65   C     C_R   0.153175 0.485167 0.504355 0.624895
C66   C     C_R   0.184776 0.392072 0.429556 -0.044433
N4    N     N_R   0.776980 0.554780 0.525420 -0.119708
H6    H     H_    0.749639 0.631433 0.593082 0.139290
H7    H     H_    0.745269 0.407631 0.455016 0.230713
O13   O     O_3   0.577268 0.621853 0.683655 -0.638132
C67   C     C_3   0.538350 0.693980 0.718582 -0.266153
H8    H     H_    0.599132 0.695402 0.755219 0.164423
H9    H     H_    0.457321 0.679438 0.724283 0.181270
H10   H     H_    0.527981 0.772298 0.703542 0.222900
C68   C     C_2   0.875160 0.350858 0.908175 0.592298
H11   H     H_    0.925894 0.409601 0.926336 0.070542
O14   O     O_2   0.912329 0.282936 0.881587 -0.482936
O15   O     O_3   0.853467 0.272457 0.069791 -0.535063
C69   C     C_3   0.844707 0.168414 0.053300 -0.287435
H12   H     H_    0.802255 0.162403 0.012780 0.174837
H13   H     H_    0.802776 0.127993 0.076850 0.122765
H14   H     H_    0.928117 0.127371 0.056792 0.196956
C70   C     C_2   0.523361 0.293567 0.358986 0.355986
H15   H     H_    0.480976 0.227565 0.343475 0.150066
O16   O     O_2   0.588952 0.287855 0.399612 -0.658369
O17   O     O_3   0.840703 0.343743 0.165123 -0.524343
C71   C     C_3   0.860864 0.246163 0.187009 -0.145761
H16   H     H_    0.787196 0.222440 0.196866 0.104563
H17   H     H_    0.923939 0.250323 0.222717 0.213701
H18   H     H_    0.893525 0.186441 0.161585 0.155078
O18   O     O_3   0.515378 0.273944 0.254213 -0.605846
C72   C     C_3   0.622038 0.220863 0.264182 -0.305824
H19   H     H_    0.635227 0.173460 0.297976 0.202155
H20   H     H_    0.687792 0.272165 0.269725 0.175144
H21   H     H_    0.630291 0.167332 0.231408 0.187366
O19   O     O_3   0.842708 0.402455 0.004335 -0.574530
C73   C     C_3   0.814099 0.509801 0.010024 -0.271139
H22   H     H_    0.740759 0.527308 0.026522 0.167848
H23   H     H_    0.800538 0.548264 0.973309 0.135932
H24   H     H_    0.882575 0.542872 0.036641 0.218280
C74   C     C_2   0.729457 0.264139 0.603206 0.447113
H25   H     H_    0.764363 0.316936 0.584155 0.083869
O20   O     O_2   0.746892 0.270762 0.649441 -0.501404
O21   O     O_3   0.626951 0.918557 0.648718 -0.570651
C75   C     C_3   0.720109 0.844615 0.655692 -0.272285
H26   H     H_    0.702276 0.773600 0.670711 0.177632
H27   H     H_    0.785737 0.875353 0.685080 0.224047
H28   H     H_    0.752547 0.824635 0.620885 0.102315
O22   O     O_3   0.744253 0.063343 0.639914 -0.525334
C76   C     C_3   0.845517 0.030052 0.627096 -0.241134
H29   H     H_    0.839018 0.965979 0.597718 0.120321
H30   H     H_    0.904307 0.000535 0.661472 0.202875
H31   H     H_    0.879816 0.094716 0.614016 0.156473
C77   C     C_2   0.508841 0.121052 0.443472 0.555455
H32   H     H_    0.460785 0.185552 0.423810 0.076110
O23   O     O_2   0.536196 0.043999 0.419245 -0.568428
O24   O     O_3   0.272692 0.757344 0.410328 -0.661876
C78   C     C_3   0.166807 0.742878 0.414696 -0.199811
H33   H     H_    0.114686 0.735912 0.376028 0.161476
H34   H     H_    0.126083 0.806804 0.435600 0.173348
H35   H     H_    0.170394 0.668720 0.432896 0.242441
O25   O     O_3   0.306017 0.115334 0.464443 -0.606599
C79   C     C_3   0.215892 0.136389 0.487541 -0.264535
H36   H     H_    0.202277 0.220747 0.495584 0.175400
H37   H     H_    0.229426 0.097935 0.524309 0.122627
H38   H     H_    0.140682 0.113284 0.461664 0.216670
C80   C     C_2   0.207038 0.969327 0.387567 0.460176
H39   H     H_    0.159814 0.913719 0.363905 0.082421
O26   O     O_2   0.195113 0.057524 0.373234 -0.495005
C81   C     C_2   0.498442 0.766938 0.596718 0.444105
H40   H     H_    0.568313 0.712348 0.610498 0.117589
O27   O     O_2   0.407914 0.751835 0.600977 -0.551169
C82   C     C_2   0.258740 0.343244 0.397725 0.560135
H41   H     H_    0.343202 0.322489 0.413934 0.091518
O28   O     O_2   0.225166 0.323633 0.352589 -0.559642
C83   C     C_2   0.853200 0.315033 0.391838 0.419726
H42   H     H_    0.769860 0.327648 0.369984 0.103134
O29   O     O_2   0.908781 0.234114 0.385032 -0.565084
O30   O     O_3   0.197683 0.521659 0.552546 -0.570632
C84   C     C_3   0.198564 0.445196 0.587051 -0.238253
H43   H     H_    0.246751 0.468306 0.624762 0.215732
H44   H     H_    0.237664 0.369004 0.575504 0.156910
H45   H     H_    0.114780 0.437773 0.591300 0.147112
C85   C     C_2   0.299242 0.221013 0.836974 0.501746
H46   H     H_    0.313447 0.181157 0.802283 0.100444
O31   O     O_2   0.208994 0.224109 0.846249 -0.528457
C86   C     C_2   0.055727 0.696580 0.547008 0.540810
H47   H     H_    0.080796 0.750210 0.578406 0.123319
O32   O     O_2   0.084292 0.706529 0.507836 -0.629005
C87   C     C_2   0.949702 0.682417 0.636482 0.357242
H48   H     H_    0.892449 0.699330 0.660843 0.073478
O33   O     O_2   0.045375 0.692649 0.654408 -0.560872
O34   O     O_3   0.506642 0.668882 0.346689 -0.614741
C88   C     C_3   0.402243 0.722842 0.329300 -0.211867
H49   H     H_    0.336510 0.678348 0.334356 0.204461
H50   H     H_    0.387956 0.742073 0.288871 0.141597
H51   H     H_    0.397014 0.797111 0.351382 0.224818
C89   C     C_2   0.543907 0.645235 0.246398 0.493625
H52   H     H_    0.567037 0.715145 0.267778 0.107903
O35   O     O_2   0.534022 0.642762 0.200498 -0.563448
O36   O     O_3   0.246022 0.412123 0.083091 -0.563916
C90   C     C_3   0.197176 0.320838 0.082538 -0.153632
H53   H     H_    0.248972 0.265054 0.109928 0.155304
H54   H     H_    0.178854 0.284117 0.043806 0.137648
H55   H     H_    0.118519 0.341027 0.094273 0.236068
O37   O     O_3   0.463745 0.297076 0.608446 -0.606183
C91   C     C_3   0.406466 0.215930 0.616020 -0.321453
H56   H     H_    0.343419 0.242298 0.638185 0.162046
H57   H     H_    0.463663 0.150444 0.634034 0.195346
H58   H     H_    0.364080 0.186833 0.578472 0.200719

loop_
_geom_bond_atom_site_label_1
_geom_bond_atom_site_label_2
_geom_bond_distance
_ccdc_geom_bond_type
C7    H4    1.080694 S    
C46   C48   1.416692 A    
C67   H8    1.110245 S    
C10   H1    1.081178 S    
C82   O28   1.221664 D    
C86   H47   1.082033 S    
C61   C65   1.426232 A    
C7    C8    1.411808 A    
C78   H35   1.108022 S    
O36   C90   1.411091 S    
O30   C84   1.411360 S    
C80   H39   1.082855 S    
C74   H25   1.081523 S    
C30   C70   1.468808 S    
C56   H6    1.081183 S    
Zn1   O7    1.986311 S    
C70   O16   1.219550 D    
C69   H12   1.109981 S    
C60   N4    1.358317 A    
O21   C75   1.411937 S    
C61   C62   1.423020 A    
C58   C86   1.488502 S    
C23   C24   1.415943 A    
C87   H48   1.081567 S    
C78   H34   1.115693 S    
O18   C72   1.414203 S    
C64   H7    1.070479 S    
C71   H17   1.109264 S    
C79   H36   1.108625 S    
O4    C2    1.315362 A    
O7    C4    1.318314 A    
C15   C37   1.421459 A    
C55   C62   1.390635 A    
C52   C77   1.476721 S    
C22   O36   1.384698 S    
C5    O9    1.349119 S    
C68   H11   1.085214 S    
O17   C71   1.411603 S    
C5    N1    1.366180 A    
C21   C22   1.395933 A    
C28   C32   1.413339 A    
C91   H57   1.109829 S    
C1    C54   1.470592 S    
O5    C3    1.312158 A    
O19   C73   1.410489 S    
O15   C69   1.412905 S    
C79   H37   1.114715 S    
C25   C39   1.415057 A    
C29   O34   1.383857 S    
C62   C63   1.411277 A    
C83   O29   1.220876 D    
C88   H51   1.108467 S    
C2    C16   1.481181 S    
C3    C42   1.471996 S    
C22   C23   1.412223 A    
N3    C66   1.371116 A    
C89   O35   1.220501 D    
C76   H29   1.113909 S    
C53   C74   1.489660 S    
C18   C20   1.411685 A    
C42   C53   1.417902 A    
C40   O19   1.384542 S    
C50   C51   1.412807 A    
C39   O17   1.384579 S    
C48   C52   1.402965 A    
Zn1   N3    2.053250 S    
C50   O21   1.387174 S    
C88   H50   1.109917 S    
C46   C47   1.395419 A    
C67   H9    1.114550 S    
C37   C40   1.404808 A    
C85   O31   1.221559 D    
C86   O32   1.217359 D    
C80   O26   1.221182 D    
C17   C30   1.410441 A    
C23   C27   1.407404 A    
C49   C50   1.412996 A    
C19   C38   1.422300 A    
C4    C17   1.476262 S    
O3    Zn1   1.952662 S    
C68   O14   1.221129 D    
C87   O33   1.220490 D    
C59   C60   1.417213 A    
C84   H44   1.112389 S    
C73   H23   1.113475 S    
C56   N4    1.357734 A    
O24   C78   1.411754 S    
C33   C36   1.404771 A    
C66   C82   1.473984 S    
C78   H33   1.109273 S    
C77   O23   1.221167 D    
C71   H18   1.109352 S    
C28   C89   1.489365 S    
C26   N2    1.365973 A    
C45   O25   1.385813 S    
C6    O11   1.347824 S    
C56   C57   1.395267 A    
C48   C49   1.415356 A    
C8    C16   1.418972 A    
C41   C53   1.414384 A    
C13   C14   1.418383 A    
C31   C32   1.401448 A    
C38   O15   1.386392 S    
C20   C24   1.415467 A    
C57   C58   1.406796 A    
O37   C91   1.410770 S    
O1    C1    1.300055 A    
C57   C87   1.484313 S    
C91   H58   1.104837 S    
N2    C32   1.434951 S    
C55   H5    1.080533 S    
C75   H27   1.108673 S    
C24   C25   1.412647 A    
C8    O37   1.396091 S    
C84   H45   1.111316 S    
O34   C88   1.411116 S    
Zn2   O8    1.952662 S    
C12   C15   1.416804 A    
C26   O12   1.349016 S    
C37   C68   1.484393 S    
N1    C6    1.367140 A    
C27   O10   1.349323 S    
C18   C21   1.408208 A    
C42   C52   1.398217 A    
C47   C54   1.413473 A    
N1    C11   1.439839 S    
C12   C13   1.418002 A    
C19   C35   1.426111 A    
C63   C64   1.383579 A    
C76   H30   1.109116 S    
O3    C2    1.309257 A    
N2    C27   1.364800 A    
C65   O30   1.379146 S    
C9    C16   1.412482 A    
C81   O27   1.221326 D    
C34   C35   1.415624 A    
C67   H10   1.108328 S    
C18   C33   1.414194 A    
C83   H42   1.085036 S    
C17   C29   1.411440 A    
C28   C29   1.416282 A    
C75   H26   1.106951 S    
C79   H38   1.110482 S    
C30   C31   1.400239 A    
C7    C11   1.392315 A    
C84   H43   1.109382 S    
C69   H13   1.114415 S    
C73   H24   1.109171 S    
C41   C49   1.419332 A    
C12   C34   1.417298 A    
Zn1   O5    1.933861 S    
C14   C85   1.487543 S    
O1    Zn1   1.957600 S    
C43   O24   1.385244 S    
O2    Zn2   1.933863 S    
C6    C15   1.416384 A    
O8    C4    1.302994 A    
C58   C59   1.426029 A    
O6    C3    1.305959 A    
C59   C61   1.428733 A    
O4    Zn2   1.986304 S    
C72   H20   1.113835 S    
C73   H22   1.112791 S    
C72   H19   1.109414 S    
C43   C54   1.415291 A    
C69   H14   1.109133 S    
C70   H15   1.085127 S    
C21   H2    1.080026 S    
C90   H55   1.109576 S    
C44   C80   1.490272 S    
O25   C79   1.412795 S    
C35   C40   1.419918 A    
C44   C45   1.410309 A    
C88   H49   1.113247 S    
O2    C1    1.316844 A    
C75   H28   1.115385 S    
C60   C64   1.391393 A    
C14   C36   1.395570 A    
C19   C20   1.414196 A    
C38   C39   1.402913 A    
C25   C26   1.408312 A    
C85   H46   1.084291 S    
C76   H31   1.111113 S    
C33   C34   1.414091 A    
O13   C67   1.415066 S    
C90   H54   1.112047 S    
C47   C51   1.415118 A    
C91   H56   1.113238 S    
C72   H21   1.109091 S    
C74   O20   1.221197 D    
C41   O22   1.384065 S    
C43   C44   1.411244 A    
C31   O18   1.386901 S    
C55   C66   1.386159 A    
C81   H40   1.074924 S    
N3    C65   1.362495 A    
C5    C13   1.407621 A    
Zn2   O6    1.957600 S    
C45   C46   1.417848 A    
C63   C83   1.485946 S    
C71   H16   1.113370 S    
C82   H41   1.067679 S    
C51   C81   1.466932 S    
C10   C11   1.394671 A    
C77   H32   1.070487 S    
C90   H53   1.114053 S    
Zn2   N4    2.041126 S    
C36   H3    1.080927 S    
C9    C10   1.407027 A    
C89   H52   1.085038 S    
O22   C76   1.413494 S    
C9    O13   1.386984 S    
