data_mof_unit_67330.cif
_audit_creation_date              2012-12-11T18:51:53-0500
_audit_creation_method            fapswitch 2.2
_symmetry_space_group_name_H-M    P1
_symmetry_Int_Tables_number       1
_space_group_crystal_system       triclinic
_cell_length_a                    8.412587
_cell_length_b                    15.281339
_cell_length_c                    15.177227
_cell_angle_alpha                 100.410905
_cell_angle_beta                  98.459728
_cell_angle_gamma                 99.502121
_cell_volume                      1860.91246155

loop_
_atom_site_label
_atom_site_type_symbol
_atom_type_description
_atom_site_fract_x
_atom_site_fract_y
_atom_site_fract_z
_atom_type_partial_charge
Ba1   Ba    Ba6+2 0.844890 0.542420 0.457460 1.751122
Ba2   Ba    Ba6+2 0.344950 0.457650 0.542550 1.746104
C1    C     C_3   0.675218 0.856961 0.289438 -0.284463
C2    C     C_R   0.916288 0.432337 0.910535 -0.123329
C3    C     C_R   0.037888 0.454027 0.101850 -0.096052
C4    C     C_3   0.063625 0.726368 0.220267 0.426960
C5    C     C_R   0.877960 0.403599 0.059242 0.406330
C6    C     C_R   0.833877 0.384091 0.963978 -0.120083
C7    C     C_R   0.104109 0.467446 0.198633 0.034871
C8    C     C_R   0.268023 0.513763 0.229042 -0.270467
C9    C     C_R   0.088015 0.530038 0.799779 -0.040995
C10   C     C_R   0.164921 0.529629 0.890825 -0.058231
C11   C     C_R   0.073776 0.484553 0.948118 0.041093
C12   C     C_3   0.566774 0.774967 0.220981 0.813153
C13   C     C_R   0.324477 0.577025 0.928831 0.016416
C14   C     C_R   0.392325 0.580137 0.019452 -0.033722
C15   C     C_R   0.300927 0.540325 0.078147 0.005268
C16   C     C_3   0.005889 0.740726 0.123987 0.605044
C17   C     C_R   0.138322 0.492126 0.042932 0.010911
C18   C     C_R   0.367155 0.549067 0.171181 -0.037426
C19   C     C_R   0.917559 0.498831 0.778632 0.144326
C20   C     C_R   0.326568 0.821190 0.448855 0.016783
C21   C     C_R   0.585346 0.789836 0.519434 -0.019383
C22   C     C_R   0.765708 0.227995 0.523428 0.145504
C23   C     C_3   0.424431 0.261173 0.237077 0.758669
C24   C     C_R   0.863365 0.172429 0.559268 0.025539
C25   C     C_R   0.797941 0.080944 0.554213 -0.164339
C26   C     C_R   0.634251 0.041696 0.510223 -0.015427
C27   C     C_R   0.535285 0.099387 0.472422 -0.098004
C28   C     C_3   0.304405 0.733217 0.668957 0.315023
C29   C     C_R   0.566623 0.946129 0.499796 0.015309
C30   C     C_R   0.397606 0.913951 0.463183 -0.132634
C31   C     C_R   0.303107 0.973645 0.435161 -0.121989
C32   C     C_R   0.374098 0.058753 0.425526 0.454688
C33   C     C_R   0.659517 0.881277 0.524223 -0.203616
C34   C     C_3   0.477822 0.206853 0.152982 0.238866
C35   C     C_R   0.421766 0.759488 0.474592 0.123265
C36   C     C_R   0.602581 0.194041 0.481264 0.018899
C37   C     C_3   0.283911 0.830748 0.674169 -0.389884
C38   C     C_3   0.916568 0.265060 0.339841 0.396023
C39   C     C_3   0.921334 0.164048 0.321552 0.284903
C40   C     C_3   0.822838 0.837442 0.738330 1.065383
C41   C     C_3   0.697786 0.899991 0.752404 -0.418005
C42   C     C_3   0.835937 0.064251 0.181142 0.207607
C43   C     C_3   0.845149 0.833013 0.895812 0.072162
C44   C     C_3   0.414846 0.865426 0.147242 0.150161
C45   C     C_3   0.105805 0.248473 0.782853 0.834476
C46   C     C_3   0.181640 0.264151 0.138306 0.047250
C47   C     C_3   0.142546 0.073133 0.915917 0.220167
C48   C     C_3   0.576404 0.074413 0.903250 0.144632
C49   C     C_3   0.602749 0.381528 0.071806 0.312933
C50   C     C_3   0.783052 0.612787 0.796460 0.272324
C51   C     C_3   0.833135 0.375041 0.597203 0.334349
C52   C     C_3   0.261794 0.045855 0.276741 0.143687
C53   C     C_3   0.056945 0.185122 0.846915 0.745728
C54   C     C_3   0.550334 0.212692 0.737710 0.678854
C55   C     C_3   0.500472 0.122206 0.768253 0.770986
C56   C     C_R   0.836789 0.437137 0.823701 -0.001940
H1    H     H_    0.462571 0.749036 0.252657 -0.165578
H2    H     H_    0.762219 0.966407 0.795696 0.063663
H3    H     H_    0.599271 0.869879 0.785320 0.064425
H4    H     H_    0.641413 0.914365 0.688210 0.075319
H5    H     H_    0.602968 0.908321 0.312681 0.029817
H6    H     H_    0.488207 0.333465 0.253676 -0.052079
H7    H     H_    0.430937 0.133006 0.145879 0.025271
H8    H     H_    0.429610 0.223104 0.087633 -0.025073
H9    H     H_    0.775131 0.888808 0.258507 0.116430
H10   H     H_    0.999964 0.277821 0.759124 -0.231211
H11   H     H_    0.958248 0.128524 0.805376 -0.085935
H12   H     H_    0.297876 0.866790 0.746101 0.137441
H13   H     H_    0.481273 0.208755 0.668327 0.038952
H14   H     H_    0.584338 0.076634 0.744959 -0.098734
H15   H     H_    0.990212 0.660949 0.226005 0.017643
H16   H     H_    0.724549 0.335217 0.932702 0.119415
H17   H     H_    0.516728 0.617047 0.043439 0.089431
H18   H     H_    0.397818 0.614303 0.889942 0.081594
H19   H     H_    0.321855 0.519814 0.299482 0.064437
H20   H     H_    0.173383 0.952582 0.409257 0.112786
H21   H     H_    0.788971 0.900910 0.547807 0.159982
H22   H     H_    0.193975 0.720346 0.228528 -0.046825
H23   H     H_    0.374295 0.867221 0.640997 0.037747
H24   H     H_    0.878349 0.042027 0.584423 0.084657
H25   H     H_    0.872497 0.710674 0.102003 0.018102
H26   H     H_    0.435765 0.730536 0.678515 -0.001905
H27   H     H_    0.241674 0.694688 0.600280 0.102758
H28   H     H_    0.912181 0.110234 0.147772 0.043030
H29   H     H_    0.726478 0.027888 0.129758 0.041145
H30   H     H_    0.904106 0.013070 0.202477 0.003077
H31   H     H_    0.981590 0.932822 0.711333 0.272070
H32   H     H_    0.924186 0.809356 0.947656 0.112761
H33   H     H_    0.726966 0.783308 0.875662 0.010757
H34   H     H_    0.162333 0.831300 0.635959 0.191423
H35   H     H_    0.824931 0.900439 0.928418 0.038553
H36   H     H_    0.496114 0.933215 0.162201 0.019865
H37   H     H_    0.339767 0.860672 0.201245 0.055233
H38   H     H_    0.331474 0.858954 0.081645 0.145519
H39   H     H_    0.166543 0.199415 0.088424 0.054625
H40   H     H_    0.252876 0.321906 0.116666 -0.033622
H41   H     H_    0.055970 0.275762 0.135563 0.143289
H42   H     H_    0.676041 0.193423 0.106850 0.313596
H43   H     H_    0.031879 0.691133 0.001237 0.285332
H44   H     H_    0.235171 0.367328 0.794188 0.302318
H45   H     H_    0.795027 0.274818 0.353455 0.043873
H46   H     H_    0.043353 0.079866 0.956359 0.010418
H47   H     H_    0.248063 0.060090 0.961217 0.047776
H48   H     H_    0.101402 0.013795 0.858353 0.052149
H49   H     H_    0.086191 0.277770 0.957067 0.305853
H50   H     H_    0.770873 0.233702 0.798028 0.291094
H51   H     H_    0.512505 0.004372 0.868462 0.003573
H52   H     H_    0.559377 0.083197 0.975049 0.045343
H53   H     H_    0.710134 0.084040 0.903123 0.049498
H54   H     H_    0.315761 0.021959 0.745068 0.288484
H55   H     H_    0.540870 0.320916 0.018684 0.065569
H56   H     H_    0.014088 0.297367 0.399802 0.033064
H57   H     H_    0.600642 0.442269 0.040935 0.006213
H58   H     H_    0.529725 0.388665 0.126484 0.018130
H59   H     H_    0.767215 0.593937 0.862803 -0.066320
H60   H     H_    0.662752 0.626696 0.769608 0.117093
H61   H     H_    0.882680 0.673196 0.812023 0.075803
H62   H     H_    0.419550 0.635610 0.425302 0.308457
H63   H     H_    0.817624 0.343282 0.656094 -0.040351
H64   H     H_    0.756370 0.424011 0.584472 0.139275
H65   H     H_    0.946829 0.421769 0.618596 0.078900
H66   H     H_    0.172782 0.981162 0.267308 0.058139
H67   H     H_    0.917741 0.138838 0.385296 -0.022571
H68   H     H_    0.380491 0.032648 0.259029 0.044970
H69   H     H_    0.210697 0.083232 0.227034 0.078271
H70   H     H_    0.935062 0.856281 0.135591 0.285342
H71   H     H_    0.041703 0.157288 0.302929 0.092145
H72   H     H_    0.730550 0.834109 0.349959 0.114972
O1    O     O_2   0.826410 0.445300 0.275350 -0.405312
O2    O     O_2   0.188637 0.178951 0.540672 -0.466461
O3    O     O_3   0.161345 0.197972 0.710465 -0.581148
O4    O     O_3   0.098900 0.448430 0.388910 -0.493841
O5    O     O_3   0.590780 0.611410 0.551120 -0.460989
O6    O     O_2   0.326530 0.274990 0.446290 -0.426607
O7    O     O_3   0.475340 0.217122 0.306136 -0.612439
O8    O     O_2   0.513443 0.459792 0.823100 -0.488087
O9    O     O_3   0.519298 0.286614 0.799679 -0.550429
O10   O     O_3   0.628630 0.613330 0.338230 -0.499809
O11   O     O_2   0.706286 0.548587 0.185658 -0.486196
O12   O     O_3   0.741751 0.745036 0.701030 -0.661741
O13   O     O_3   0.943159 0.299565 0.262894 -0.584496
O14   O     O_3   0.666256 0.711217 0.202273 -0.613593
O15   O     O_2   0.863180 0.725040 0.553770 -0.411574
O16   O     O_3   0.060890 0.661420 0.386090 -0.431986
O17   O     O_2   0.993952 0.818423 0.455231 -0.484270
O18   O     O_3   0.784468 0.113597 0.256024 -0.616079
O19   O     O_3   0.923384 0.870268 0.680988 -0.752024
O20   O     O_3   0.928450 0.840856 0.822148 -0.656218
O21   O     O_3   0.509633 0.797569 0.136909 -0.653748
O22   O     O_3   0.251333 0.254843 0.226270 -0.697268
O23   O     O_3   0.043449 0.798610 0.287315 -0.640132
O24   O     O_3   0.648149 0.222824 0.164812 -0.661425
O25   O     O_3   0.092180 0.695957 0.063759 -0.752404
O26   O     O_3   0.231497 0.320075 0.831168 -0.705481
O27   O     O_3   0.194338 0.151968 0.883161 -0.584302
O28   O     O_3   0.994050 0.231337 0.918314 -0.814957
O29   O     O_3   0.716223 0.223593 0.733815 -0.870788
O30   O     O_3   0.509727 0.140346 0.864228 -0.595977
O31   O     O_3   0.340784 0.079832 0.724625 -0.714636
O32   O     O_3   0.763706 0.372908 0.109358 -0.600450
O33   O     O_3   0.823676 0.546045 0.730777 -0.673304
O34   O     O_2   0.363300 0.554730 0.724710 -0.489768
O35   O     O_3   0.349868 0.669552 0.459121 -0.738942
O36   O     O_3   0.838081 0.313970 0.517619 -0.720327
O37   O     O_3   0.284010 0.098754 0.366369 -0.620261
O38   O     O_3   0.034542 0.833469 0.122138 -0.765037
O39   O     O_3   0.090820 0.551650 0.611100 -0.483097
O40   O     O_3   0.561090 0.386750 0.661790 -0.488556
O41   O     O_3   0.238602 0.700240 0.738816 -0.613388
O42   O     O_3   0.598940 0.388670 0.448890 -0.498186
O43   O     O_3   0.128820 0.338650 0.613920 -0.494091
P1    P     P_3+3 0.996530 0.418490 0.288400 1.084758
P2    P     P_3+3 0.693090 0.712100 0.580610 1.056912
P3    P     P_3+3 0.107571 0.776999 0.395405 0.976244
P4    P     P_3+3 0.193180 0.581580 0.711620 1.012227
P5    P     P_3+3 0.083248 0.220997 0.605456 1.000391
P6    P     P_3+3 0.585337 0.604923 0.221908 0.928695
P7    P     P_3+3 0.500770 0.272347 0.420701 1.064012
P8    P     P_3+3 0.610394 0.391818 0.778759 1.014140

loop_
_geom_bond_atom_site_label_1
_geom_bond_atom_site_label_2
_ccdc_geom_bond_type
C47   H48   S    
C19   O33   S    
Ba2   O39   S    
C1    H72   S    
C37   H34   S    
Ba1   O15   S    
C52   O37   S    
C2    C6    A    
C43   H35   S    
C15   C18   A    
C47   H46   S    
C34   O24   S    
C5    C6    A    
H50   O29   S    
H54   O31   S    
C52   H68   S    
O23   P3    S    
C24   C25   A    
Ba2   O4    S    
C20   C30   A    
C23   O22   S    
C26   C27   A    
C22   C24   A    
O3    P5    S    
Ba1   Ba2   S    
C54   O29   S    
C51   H64   S    
O1    P1    D    
Ba2   O43   S    
C34   H8    S    
C31   H20   S    
C21   P2    S    
C45   O26   S    
H43   O25   S    
C13   C14   A    
C14   H17   S    
C48   H52   S    
O10   P6    S    
C54   C55   S    
C49   O32   S    
C43   O20   S    
C33   H21   S    
C2    C11   A    
O8    P8    D    
C40   O19   S    
C42   O18   S    
C53   O28   S    
C38   H56   S    
C44   H37   S    
O15   P2    D    
C8    C18   A    
C14   C15   A    
O16   P3    S    
C12   O21   S    
C40   O12   S    
C22   C36   A    
C10   C13   A    
C9    P4    S    
Ba2   P4    S    
C42   H29   S    
C7    C8    A    
O9    P8    S    
C50   H59   S    
O42   P7    S    
H31   O19   S    
C44   O21   S    
C45   O3    S    
C28   O41   S    
C47   O27   S    
Ba1   O16   S    
C42   H28   S    
O39   P4    S    
C8    H19   S    
H62   O35   S    
C16   H25   S    
C18   P6    S    
C24   P5    S    
C4    C16   S    
C5    O32   S    
C12   O14   S    
Ba1   P1    S    
C36   P7    S    
C11   C17   A    
C39   H67   S    
C37   H23   S    
C51   H65   S    
Ba2   O34   S    
C3    C5    A    
C54   O9    S    
C16   O38   S    
O17   P3    D    
C35   O35   S    
C23   C34   S    
C48   O30   S    
C21   C35   A    
C20   C35   A    
C27   C32   A    
C9    C19   A    
C48   H51   S    
C49   H57   S    
C23   H6    S    
O5    P2    S    
C27   C36   A    
C23   O7    S    
C26   C29   A    
C3    C7    A    
C12   H1    S    
C50   H60   S    
C40   O20   S    
C4    H22   S    
C29   C30   A    
C44   H36   S    
O14   P6    S    
C54   H13   S    
C6    H16   S    
C31   C32   A    
C55   O31   S    
C7    P1    S    
C49   H55   S    
C28   H27   S    
C43   H32   S    
Ba1   O10   S    
C53   H11   S    
C1    C12   S    
C41   H2    S    
Ba2   O40   S    
C38   C39   S    
C55   O30   S    
C21   C33   A    
C46   O22   S    
O40   P8    S    
C29   C33   A    
C40   C41   S    
C32   O37   S    
H44   O26   S    
C45   H10   S    
H49   O28   S    
C41   H3    S    
C4    H15   S    
C45   C53   S    
H42   O24   S    
C46   H41   S    
C52   H66   S    
Ba1   P2    S    
O4    P1    S    
O11   P6    D    
C25   H24   S    
C1    H9    S    
C49   H58   S    
Ba1   O1    S    
C47   H47   S    
C9    C10   A    
O12   P2    S    
C3    C17   A    
C1    H5    S    
C46   H40   S    
C52   H69   S    
O6    P7    D    
Ba1   O42   S    
Ba2   O5    S    
C30   C31   A    
C34   H7    S    
C19   C56   A    
C51   H63   S    
C38   H45   S    
C39   H71   S    
O7    P7    S    
O43   P5    S    
C46   H39   S    
Ba1   O39   S    
C48   H53   S    
C15   C17   A    
C37   H12   S    
C28   C37   S    
C13   H18   S    
C42   H30   S    
C55   H14   S    
C28   H26   S    
C22   O36   S    
C43   H33   S    
Ba2   O6    S    
C20   P3    S    
C4    O23   S    
O34   P4    D    
C50   O33   S    
C50   H61   S    
C51   O36   S    
C53   O27   S    
C44   H38   S    
C10   C11   A    
C38   O13   S    
C2    C56   A    
C25   C26   A    
H70   O38   S    
O2    P5    D    
O41   P4    S    
O13   P1    S    
Ba1   O5    S    
C56   P8    S    
C16   O25   S    
Ba1   O4    S    
C41   H4    S    
Ba2   O42   S    
C39   O18   S    
