data_mof_unit_55658.cif
_audit_creation_date              2013-03-05T16:32:51-0500
_audit_creation_method            fapswitch 2.2
_symmetry_space_group_name_H-M    P1
_symmetry_Int_Tables_number       1
_space_group_crystal_system       triclinic
_cell_length_a                    19.363226
_cell_length_b                    10.854248
_cell_length_c                    9.545803
_cell_angle_alpha                 90.665306
_cell_angle_beta                  89.953816
_cell_angle_gamma                 90.408569
_cell_volume                      2006.08572321

loop_
_atom_site_label
_atom_site_type_symbol
_atom_site_description
_atom_site_fract_x
_atom_site_fract_y
_atom_site_fract_z
_atom_type_partial_charge
O1    O     O_R   0.500000 0.319640 0.618810 -0.568528
O2    O     O_R   0.500010 0.319680 0.381230 -0.584738
C1    C     C_R   0.498655 0.262630 0.499293 0.832391
O3    O     O_R   0.400140 0.499970 0.618830 -0.598741
O4    O     O_R   0.400150 0.500010 0.381250 -0.596870
C2    C     C_R   0.367446 0.499700 0.500082 0.768005
Cu1   Cu    Cu3+1 0.500000 0.499980 0.640670 0.983042
Cu2   Cu    Cu3+1 0.500000 0.500020 0.359330 0.960821
O5    O     O_R   0.499990 0.680320 0.618770 -0.581594
O6    O     O_R   0.500000 0.680360 0.381190 -0.591085
O7    O     O_R   0.599850 0.499990 0.618750 -0.561766
O8    O     O_R   0.599860 0.500030 0.381170 -0.585389
C3    C     C_R   0.499868 0.737713 0.500495 0.845032
C4    C     C_R   0.632552 0.498696 0.499929 0.857394
C5    C     C_R   0.254819 0.497101 0.627089 -0.188068
H1    H     H_    0.281649 0.497363 0.726589 0.142508
C6    C     C_R   0.182859 0.495183 0.627125 -0.151694
H2    H     H_    0.156086 0.494108 0.726735 0.155092
C7    C     C_R   0.146173 0.494661 0.500212 0.057222
C8    C     C_R   0.182917 0.496199 0.373280 -0.151864
H3    H     H_    0.156195 0.495901 0.273680 0.155097
C9    C     C_R   0.254870 0.498094 0.373261 -0.188398
H4    H     H_    0.281737 0.499150 0.273732 0.142790
C10   C     C_R   0.291470 0.498493 0.500157 -0.024880
N1    N     N_R   0.034378 0.493156 0.377876 -0.232573
N2    N     N_R   0.965700 0.492123 0.377840 -0.228767
C11   C     C_R   0.929920 0.490640 0.500124 0.427280
N3    N     N_R   0.965580 0.490105 0.622455 -0.226782
N4    N     N_R   0.034263 0.491147 0.622491 -0.232020
C12   C     C_R   0.070041 0.492809 0.500200 0.412802
C13   C     C_R   0.816970 0.489492 0.626881 -0.125497
H5    H     H_    0.843613 0.487138 0.726486 0.160341
C14   C     C_R   0.745035 0.491390 0.626755 -0.097241
H6    H     H_    0.718158 0.489412 0.726084 0.157804
C15   C     C_R   0.708514 0.495243 0.499936 -0.020171
C16   C     C_R   0.745252 0.494692 0.373135 -0.157793
H7    H     H_    0.718553 0.495437 0.273679 0.148362
C17   C     C_R   0.817182 0.492788 0.373147 -0.127860
H8    H     H_    0.843987 0.493078 0.273559 0.160965
C18   C     C_R   0.853793 0.490800 0.500061 0.044337
C19   C     C_R   0.500882 0.066089 0.623432 -0.069250
C20   C     C_R   0.493341 0.129911 0.498862 -0.021926
C21   C     C_R   0.478914 0.062778 0.375383 -0.181445
H9    H     H_    0.469283 0.109246 0.277591 0.154874
C22   C     C_R   0.479852 0.933929 0.376443 -0.190357
H10   H     H_    0.470294 0.884199 0.279276 0.152184
C23   C     C_R   0.495934 0.871056 0.500602 -0.007435
C24   C     C_R   0.503590 0.939897 0.624158 -0.040109
C25   C     C_3   0.553287 0.939907 0.745703 0.098748
C26   C     C_3   0.549535 0.081017 0.744314 0.132797
H11   H     H_    0.529905 0.900546 0.841684 0.045552
H12   H     H_    0.524186 0.120797 0.839067 0.079524
C27   C     C_R   0.559223 0.524509 0.074052 0.257434
N5    N     N_R   0.500440 0.500930 0.147930 -0.187132
C28   C     C_R   0.443413 0.463108 0.073871 -0.084100
H13   H     H_    0.397258 0.434380 0.128488 0.137082
C29   C     C_R   0.443362 0.463340 0.925239 -0.083454
H14   H     H_    0.397154 0.434902 0.870018 0.136784
N6    N     N_R   0.500440 0.500890 0.852020 -0.188337
C30   C     C_R   0.559447 0.523137 0.926581 0.273522
C31   C     C_3   0.601651 0.637939 0.922008 -0.433337
C32   C     C_3   0.600760 0.640438 0.080763 -0.480592
H15   H     H_    0.653869 0.622507 0.877397 0.214519
H16   H     H_    0.572508 0.713795 0.874918 0.220967
H17   H     H_    0.652598 0.626540 0.127231 0.204256
H18   H     H_    0.571410 0.719268 0.125656 0.219770
N7    N     N_R   0.622489 0.891950 0.714925 0.176265
O9    O     O_R   0.637123 0.838934 0.595693 -0.345342
O10   O     O_R   0.670101 0.900188 0.810704 -0.313760
N8    N     N_R   0.614212 0.144319 0.707347 0.185385
O11   O     O_R   0.645165 0.122733 0.588454 -0.297250
O12   O     O_R   0.638971 0.228979 0.791163 -0.354801

loop_
_geom_bond_atom_site_label_1
_geom_bond_atom_site_label_2
_geom_bond_distance
_ccdc_geom_bond_type
C31   H16   1.101845 S    
C26   H12   1.112964 S    
C21   H9    1.083118 S    
C13   C14   1.393191 A    
C1    C20   1.443456 S    
C5    C6    1.393379 A    
N4    C12   1.357205 A    
O4    Cu2   1.944539 S    
C19   C20   1.391435 A    
C7    C8    1.404823 A    
C13   H5    1.082764 S    
C23   C24   1.396288 A    
C11   C18   1.474080 S    
Cu2   O8    1.944983 S    
C2    C10   1.471105 S    
C28   H13   1.080194 S    
C16   C17   1.393092 A    
O2    C1    1.292372 A    
N2    C11   1.357135 A    
N6    C30   1.365180 A    
O1    Cu1   1.966135 S    
C27   N5    1.362766 A    
C13   C18   1.404627 A    
Cu1   O7    1.944540 S    
C21   C22   1.398958 A    
N3    N4    1.329906 A    
C29   H14   1.080164 S    
C17   H8    1.082770 S    
O3    Cu1   1.944985 S    
C24   C25   1.507968 S    
O4    C2    1.298718 A    
N1    C12   1.357127 A    
Cu1   N6    2.017440 S    
C5    C10   1.403889 A    
C17   C18   1.404618 A    
C19   C24   1.371190 A    
C8    C9    1.393255 A    
O6    C3    1.291552 A    
C6    H2    1.082768 S    
C27   C30   1.407639 A    
C28   C29   1.418847 A    
C26   N8    1.468909 S    
C31   C32   1.515451 S    
O7    C4    1.298568 A    
C9    C10   1.403837 A    
C29   N6    1.369326 A    
O3    C2    1.298754 A    
C20   C21   1.405716 A    
C32   H18   1.112101 S    
N7    O10   1.300824 A    
C6    C7    1.404816 A    
N7    O9    1.301333 A    
Cu1   O5    1.970999 S    
C19   C26   1.496837 S    
Cu1   Cu2   2.685621 S    
N8    O11   1.302657 A    
C14   H6    1.081612 S    
C8    H3    1.082767 S    
Cu2   O6    1.966136 S    
C25   C26   1.534091 S    
C27   C32   1.489348 S    
C22   C23   1.410598 A    
Cu2   N5    2.018132 S    
C11   N3    1.357184 A    
C31   H15   1.109870 S    
C25   H11   1.110237 S    
O5    C3    1.295821 A    
N5    C28   1.369557 A    
C16   H7    1.081522 S    
N8    O12   1.300635 A    
C25   N7    1.469200 S    
C32   H17   1.109701 S    
C14   C15   1.403685 A    
N1    N2    1.329793 A    
C22   H10   1.083127 S    
C7    C12   1.474161 S    
C3    C23   1.449875 S    
C4    C15   1.471612 S    
C9    H4    1.082957 S    
O2    Cu2   1.970999 S    
C5    H1    1.082946 S    
O8    C4    1.299142 A    
C30   C31   1.486322 S    
O1    C1    1.291755 A    
C15   C16   1.403460 A    
