data_mof_unit_33211.cif
_audit_creation_date              2012-12-10T19:04:59-0500
_audit_creation_method            fapswitch 2.2
_symmetry_space_group_name_H-M    P1
_symmetry_Int_Tables_number       1
_space_group_crystal_system       triclinic
_cell_length_a                    13.04018
_cell_length_b                    13.59724
_cell_length_c                    15.758517
_cell_angle_alpha                 89.763744
_cell_angle_beta                  92.274061
_cell_angle_gamma                 85.347355
_cell_volume                      2782.67361285

loop_
_atom_site_label
_atom_site_type_symbol
_atom_type_description
_atom_site_fract_x
_atom_site_fract_y
_atom_site_fract_z
_atom_type_partial_charge
C1    C     C_R   0.480877 0.685201 0.498993 0.897525
C2    C     C_3   0.392945 0.523458 0.049677 -0.216937
C3    C     C_3   0.509614 0.514693 0.083621 0.164169
C4    C     C_3   0.560014 0.413541 0.048622 -0.197737
C5    C     C_3   0.555243 0.415027 0.949368 -0.222126
C6    C     C_1   0.507139 0.509751 0.175019 -0.090211
C7    C     C_1   0.496489 0.511782 0.824805 -0.082864
C8    C     C_1   0.496271 0.505939 0.749917 -0.186554
C9    C     C_1   0.535703 0.211379 0.505969 -0.193884
C10   C     C_2   0.552227 0.019389 0.510281 0.026899
C11   C     C_2   0.465254 0.979171 0.486600 -0.226683
C12   C     C_R   0.498917 0.500363 0.661782 0.909462
C13   C     C_1   0.460062 0.875823 0.490509 -0.000038
C14   C     C_1   0.547235 0.123825 0.509092 -0.055617
C15   C     C_1   0.465768 0.788377 0.494683 -0.183770
C16   C     C_2   0.033365 0.473513 0.475778 -0.249797
C17   C     C_2   0.966384 0.528152 0.523282 -0.248113
C18   C     C_1   0.854587 0.520159 0.517036 0.114581
C19   C     C_1   0.145296 0.480658 0.482536 0.124249
C20   C     C_R   0.519209 0.314705 0.501776 0.899039
C21   C     C_R   0.501077 0.500285 0.338168 0.910907
C22   C     C_3   0.386491 0.525816 0.949863 -0.175907
C23   C     C_3   0.568588 0.599886 0.951529 -0.191055
C24   C     C_3   0.563456 0.607637 0.051158 -0.178885
C25   C     C_1   0.503553 0.504860 0.249869 -0.196712
C26   C     C_3   0.499255 0.516308 0.916300 0.157682
H1    H     H_    0.356077 0.455284 0.930438 0.138206
H2    H     H_    0.995395 0.580268 0.568503 0.160825
H3    H     H_    0.004264 0.421460 0.430545 0.159162
H4    H     H_    0.634959 0.415107 0.927866 0.129127
N1    N     N_1   0.234540 0.484780 0.486630 -0.094054
N2    N     N_1   0.765460 0.515220 0.513370 -0.094846
O1    O     O_R   0.402510 0.634760 0.495110 -0.608031
O2    O     O_R   0.572960 0.644530 0.503690 -0.606795
O3    O     O_R   0.414740 0.495110 0.618560 -0.602126
O4    O     O_R   0.585180 0.504880 0.627150 -0.618948
O5    O     O_R   0.427040 0.355470 0.496310 -0.605660
O6    O     O_R   0.597490 0.365240 0.504890 -0.608447
O7    O     O_R   0.414820 0.495120 0.372850 -0.611201
O8    O     O_R   0.585260 0.504890 0.381440 -0.613251
Zn1   Zn    Zn3+2 0.386190 0.493480 0.494270 0.972077
Zn2   Zn    Zn3+2 0.613810 0.506520 0.505730 0.962157
C27   C     C_R   0.320338 0.597928 0.097232 0.152469
C28   C     C_R   0.262948 0.563442 0.163883 -0.158215
C29   C     C_R   0.196666 0.628120 0.208852 -0.119794
C30   C     C_R   0.185838 0.728267 0.187970 -0.121976
C31   C     C_R   0.241127 0.763713 0.121982 -0.144022
C32   C     C_R   0.307725 0.699215 0.077119 -0.126580
H5    H     H_    0.270041 0.486143 0.181807 0.119995
H6    H     H_    0.153621 0.600449 0.259926 0.128881
H7    H     H_    0.134157 0.778274 0.222558 0.119814
H8    H     H_    0.231668 0.841201 0.104926 0.126168
H9    H     H_    0.345388 0.728063 0.024476 0.127243
H10   H     H_    0.363382 0.451334 0.065797 0.104244
C33   C     C_R   0.665479 0.375206 0.087963 0.134912
C34   C     C_R   0.669171 0.308166 0.156890 -0.165057
C35   C     C_R   0.763224 0.271040 0.194645 -0.129366
C36   C     C_R   0.855371 0.299520 0.164156 -0.127398
C37   C     C_R   0.853658 0.365305 0.095898 -0.141934
C38   C     C_R   0.759856 0.402907 0.057883 -0.136477
H11   H     H_    0.598893 0.285091 0.182272 0.118550
H12   H     H_    0.764572 0.220172 0.247768 0.132431
H13   H     H_    0.928136 0.270910 0.193655 0.121884
H14   H     H_    0.925214 0.388143 0.072866 0.127155
H15   H     H_    0.762554 0.456175 0.007328 0.114700
H16   H     H_    0.396171 0.024663 0.466094 0.156885
C39   C     C_R   0.649282 0.961867 0.539884 0.153700
C40   C     C_R   0.697545 0.984178 0.617961 -0.169637
C41   C     C_R   0.787333 0.929076 0.647141 -0.150539
C42   C     C_R   0.830225 0.851834 0.598349 -0.129891
C43   C     C_R   0.783932 0.830159 0.519912 -0.127545
C44   C     C_R   0.694291 0.885247 0.490415 -0.134477
H17   H     H_    0.664792 0.043132 0.656847 0.118962
H18   H     H_    0.823357 0.945959 0.707823 0.133651
H19   H     H_    0.899496 0.809003 0.621178 0.122838
H20   H     H_    0.817561 0.770711 0.481894 0.135283
H21   H     H_    0.660051 0.868135 0.429063 0.136180
C45   C     C_R   0.300715 0.596786 0.908219 0.127002
C46   C     C_R   0.316600 0.669492 0.847047 -0.126220
C47   C     C_R   0.234063 0.730354 0.811882 -0.150058
C48   C     C_R   0.133836 0.718551 0.835406 -0.121765
C49   C     C_R   0.115726 0.644772 0.893270 -0.126301
C50   C     C_R   0.197988 0.583754 0.928464 -0.139287
H22   H     H_    0.390984 0.679369 0.823758 0.163973
H23   H     H_    0.247905 0.786220 0.765497 0.134848
H24   H     H_    0.070105 0.765669 0.807907 0.120450
H25   H     H_    0.037825 0.634488 0.910697 0.127705
H26   H     H_    0.181633 0.526282 0.972563 0.118861
H27   H     H_    0.649615 0.571587 0.942074 0.130361
C51   C     C_R   0.561204 0.696675 0.899221 0.106982
C52   C     C_R   0.509951 0.786626 0.925110 -0.175742
C53   C     C_R   0.504672 0.870591 0.873071 -0.146687
C54   C     C_R   0.551504 0.867466 0.795024 -0.116807
C55   C     C_R   0.605726 0.780830 0.769535 -0.132339
C56   C     C_R   0.611818 0.696887 0.821482 -0.171931
H28   H     H_    0.476818 0.795356 0.985968 0.112111
H29   H     H_    0.464823 0.938606 0.893894 0.132591
H30   H     H_    0.547054 0.932566 0.754884 0.126794
H31   H     H_    0.643386 0.778616 0.709501 0.156943
H32   H     H_    0.655880 0.631184 0.800447 0.134640
H33   H     H_    0.510305 0.671173 0.066947 0.143887
C57   C     C_R   0.667433 0.634343 0.094299 0.100820
C58   C     C_R   0.719081 0.582576 0.164032 -0.096009
C59   C     C_R   0.811499 0.611668 0.199994 -0.145283
C60   C     C_R   0.854452 0.694222 0.168956 -0.118479
C61   C     C_R   0.804263 0.748616 0.102509 -0.138299
C62   C     C_R   0.711837 0.719840 0.066403 -0.171330
H34   H     H_    0.692338 0.517947 0.191709 0.160532
H35   H     H_    0.849991 0.569651 0.252229 0.134648
H36   H     H_    0.926098 0.716483 0.196842 0.123791
H37   H     H_    0.836669 0.813826 0.079040 0.130607
H38   H     H_    0.675899 0.766338 0.016812 0.152542
C63   C     C_R   0.516892 0.320950 0.908323 0.156083
C64   C     C_R   0.430172 0.275160 0.935558 -0.160383
C65   C     C_R   0.397451 0.191767 0.894192 -0.137952
C66   C     C_R   0.450046 0.152510 0.825132 -0.117691
C67   C     C_R   0.536247 0.195902 0.797743 -0.131148
C68   C     C_R   0.569812 0.278842 0.839072 -0.144427
H39   H     H_    0.386234 0.303175 0.988121 0.096906
H40   H     H_    0.330636 0.157842 0.915492 0.122489
H41   H     H_    0.423820 0.088620 0.792691 0.117516
H42   H     H_    0.576834 0.165726 0.744001 0.119841
H43   H     H_    0.636430 0.311384 0.815663 0.116753
H44   H     H_    0.508668 0.357556 0.068727 0.129608

loop_
_geom_bond_atom_site_label_1
_geom_bond_atom_site_label_2
_ccdc_geom_bond_type
C28   H5    S    
C60   H36   S    
C54   C55   A    
C62   H38   S    
O4    Zn2   S    
O2    Zn2   S    
C67   H42   S    
C33   C34   A    
C3    C6    S    
C19   N1    T    
C64   C65   A    
C35   C36   A    
C1    O1    A    
C7    C8    T    
O7    Zn1   S    
C10   C39   S    
C34   C35   A    
C37   H14   S    
C44   H21   S    
C7    C26   S    
C55   H31   S    
O6    Zn2   S    
C41   C42   A    
C46   H22   S    
C6    C25   T    
C61   C62   A    
C65   C66   A    
C66   C67   A    
C4    H44   S    
C24   H33   S    
C23   C26   S    
C52   H28   S    
C45   C50   A    
C40   C41   A    
C2    C22   S    
C23   C24   S    
C23   H27   S    
C42   C43   A    
C1    C15   S    
C12   O4    A    
C27   C32   A    
C64   H39   S    
C11   H16   S    
O8    Zn2   S    
C50   H26   S    
C37   C38   A    
C33   C38   A    
C3    C24   S    
C57   C58   A    
C59   C60   A    
C53   H29   S    
C48   C49   A    
C61   H37   S    
C32   H9    S    
C66   H41   S    
C39   C40   A    
C35   H12   S    
C46   C47   A    
C22   C45   S    
C10   C14   S    
C52   C53   A    
C45   C46   A    
C16   C17   D    
C40   H17   S    
C29   C30   A    
C30   H7    S    
C5    C26   S    
C9    C14   T    
C47   H23   S    
C20   O6    A    
C9    C20   S    
C31   C32   A    
C21   O7    A    
C2    C27   S    
C8    C12   S    
C1    O2    A    
C17   C18   S    
C23   C51   S    
C41   H18   S    
C12   O3    A    
C58   H34   S    
C38   H15   S    
C65   H40   S    
C22   H1    S    
C13   C15   T    
C4    C33   S    
C2    H10   S    
C36   C37   A    
C18   N2    T    
C3    C4    S    
C57   C62   A    
C43   H20   S    
C42   H19   S    
C39   C44   A    
C28   C29   A    
C63   C64   A    
C36   H13   S    
C21   C25   S    
C30   C31   A    
N1    Zn1   S    
C5    C63   S    
C56   H32   S    
C17   H2    S    
C48   H24   S    
C47   C48   A    
C51   C56   A    
C31   H8    S    
C60   C61   A    
O1    Zn1   S    
C2    C3    S    
C16   H3    S    
C43   C44   A    
C67   C68   A    
C20   O5    A    
C11   C13   S    
C51   C52   A    
C59   H35   S    
C21   O8    A    
C29   H6    S    
C27   C28   A    
C16   C19   S    
C53   C54   A    
C24   C57   S    
C68   H43   S    
O5    Zn1   S    
C55   C56   A    
O3    Zn1   S    
C10   C11   D    
C22   C26   S    
C63   C68   A    
C4    C5    S    
C49   C50   A    
C5    H4    S    
C58   C59   A    
N2    Zn2   S    
C34   H11   S    
C54   H30   S    
C49   H25   S    
