data_mof_unit_60614.cif
_audit_creation_date              2012-12-10T19:30:31-0500
_audit_creation_method            fapswitch 2.2
_symmetry_space_group_name_H-M    P1
_symmetry_Int_Tables_number       1
_space_group_crystal_system       triclinic
_cell_length_a                    25.564037
_cell_length_b                    43.157579
_cell_length_c                    25.085173
_cell_angle_alpha                 90.0
_cell_angle_beta                  120.771932
_cell_angle_gamma                 89.99996
_cell_volume                      23779.5293656

loop_
_atom_site_label
_atom_site_type_symbol
_atom_type_description
_atom_site_fract_x
_atom_site_fract_y
_atom_site_fract_z
_atom_type_partial_charge
C1    C     C_R   0.641705 0.249994 0.000025 0.787011
C2    C     C_R   0.500000 0.967457 0.000000 0.096403
C3    C     C_R   0.381441 0.249564 0.763263 -0.087677
C4    C     C_R   0.809302 0.261754 0.532428 -0.122868
C5    C     C_R   0.190671 0.738120 0.467532 -0.132186
C6    C     C_R   0.190698 0.261754 0.467572 -0.122868
C7    C     C_R   0.809328 0.738119 0.532468 -0.132190
C8    C     C_R   0.309298 0.761758 0.532431 -0.122751
C9    C     C_R   0.690669 0.238125 0.467535 -0.132314
C10   C     C_R   0.690703 0.761758 0.467568 -0.122750
C11   C     C_R   0.309331 0.238125 0.532465 -0.132307
C12   C     C_R   0.777249 0.261325 0.467752 -0.074794
C13   C     C_R   0.000000 0.532543 0.000000 0.096075
C14   C     C_R   0.222706 0.738561 0.532208 -0.073409
C15   C     C_R   0.222751 0.261325 0.532248 -0.074794
C16   C     C_R   0.777293 0.738560 0.467792 -0.073420
C17   C     C_R   0.277248 0.761330 0.467756 -0.074953
C18   C     C_R   0.722706 0.238568 0.532211 -0.073305
C19   C     C_R   0.722753 0.761331 0.532244 -0.074951
C20   C     C_R   0.277294 0.238568 0.467789 -0.073298
C21   C     C_R   0.718008 0.249306 0.435136 0.136379
C22   C     C_R   0.281952 0.750588 0.564841 0.149581
C23   C     C_R   0.281992 0.249306 0.564864 0.136380
C24   C     C_R   1.000000 0.467457 0.000000 0.096422
C25   C     C_R   0.718048 0.750588 0.435159 0.149575
C26   C     C_R   0.218010 0.749308 0.435136 0.136368
C27   C     C_R   0.781955 0.250591 0.564841 0.149576
C28   C     C_R   0.781990 0.749308 0.564863 0.136367
C29   C     C_R   0.218045 0.250591 0.435159 0.149580
C30   C     C_R   0.509843 0.615204 0.957664 -0.255512
C31   C     C_R   0.517761 0.384794 0.963592 -0.256070
C32   C     C_R   0.490159 0.615204 0.042338 -0.255511
C33   C     C_R   0.482237 0.384793 0.036407 -0.256050
C34   C     C_R   0.989824 0.115202 0.042107 -0.255717
C35   C     C_3   0.246076 0.229170 0.958318 -0.120661
C36   C     C_R   0.981937 0.884792 0.036158 -0.255777
C37   C     C_R   0.010188 0.115204 0.957900 -0.255721
C38   C     C_R   0.018055 0.884792 0.963834 -0.255739
C39   C     C_R   0.510010 0.582789 0.957203 0.431664
C40   C     C_R   0.517903 0.417209 0.963109 0.432315
C41   C     C_R   0.489993 0.582789 0.042800 0.431699
C42   C     C_R   0.482094 0.417208 0.036889 0.432267
C43   C     C_R   0.989637 0.082787 0.042553 0.431377
C44   C     C_R   0.981767 0.917207 0.036616 0.432712
C45   C     C_R   0.010383 0.082789 0.957456 0.431449
C46   C     C_3   0.724836 0.778346 0.984645 -0.173042
C47   C     C_R   0.018223 0.917207 0.963372 0.432605
C48   C     C_R   0.500001 0.566408 0.000002 -0.206868
C49   C     C_R   0.499999 0.433591 1.000000 -0.206800
C50   C     C_R   0.000011 0.066406 0.000005 -0.206760
C51   C     C_R   0.999996 0.933589 0.999994 -0.206872
C52   C     C_R   0.500001 0.631591 0.000001 -0.159386
C53   C     C_R   0.499999 0.368407 1.000000 -0.159174
C54   C     C_R   0.000004 0.131590 0.000002 -0.159641
C55   C     C_R   0.999997 0.868406 0.999997 -0.159107
C56   C     C_R   0.553547 0.516146 0.039867 -0.035930
C57   C     C_3   0.753924 0.229170 0.041682 -0.120663
C58   C     C_R   0.446421 0.483853 0.960228 -0.035593
C59   C     C_R   0.446454 0.516147 0.960136 -0.035909
C60   C     C_R   0.553578 0.483852 0.039774 -0.035662
C61   C     C_R   0.946650 0.016146 0.959617 -0.036071
C62   C     C_R   0.053390 0.983848 0.040292 -0.035771
C63   C     C_R   0.053362 0.016143 0.040384 -0.036018
C64   C     C_R   0.946614 0.983852 0.959704 -0.035760
C65   C     C_R   0.499999 0.467641 0.000000 0.183424
C66   C     C_R   0.500001 0.532358 0.000002 0.182763
C67   C     C_R   1.000000 0.967639 0.999997 0.182843
C68   C     C_3   0.275164 0.778346 0.015355 -0.173042
C69   C     C_R   0.000008 0.032356 0.000001 0.183074
C70   C     C_R   0.500000 0.334214 1.000000 0.856388
C71   C     C_R   0.500000 0.665785 0.000000 0.858217
C72   C     C_R   1.000000 0.834214 1.000000 0.857979
C73   C     C_R   0.000000 0.165785 0.000000 0.856666
C74   C     C_R   0.500000 0.165883 0.000000 0.792901
C75   C     C_R   0.500000 0.834117 0.000000 0.791488
C76   C     C_R   0.000000 0.665883 0.000000 0.791402
C77   C     C_R   1.000000 0.334117 0.000000 0.792981
C78   C     C_R   0.446472 0.884614 0.960329 -0.167652
C79   C     C_3   0.775163 0.721657 0.015352 -0.173350
C80   C     C_R   0.553525 0.115386 0.039680 -0.167817
C81   C     C_R   0.553528 0.884614 0.039671 -0.167652
C82   C     C_R   0.446475 0.115386 0.960320 -0.167817
C83   C     C_R   0.946467 0.384614 0.960343 -0.167404
C84   C     C_R   0.053534 0.615386 0.039654 -0.168119
C85   C     C_R   0.053532 0.384614 0.039657 -0.167404
C86   C     C_R   0.946466 0.615386 0.960346 -0.168118
C87   C     C_R   0.446491 0.916898 0.960323 -0.158911
C88   C     C_R   0.553505 0.083102 0.039686 -0.159269
C89   C     C_R   0.553508 0.916898 0.039677 -0.158911
C90   C     C_3   0.253923 0.270832 0.041680 -0.119770
C91   C     C_R   0.446495 0.083102 0.960314 -0.159272
C92   C     C_R   0.946487 0.416898 0.960337 -0.158842
C93   C     C_R   0.053514 0.583102 0.039660 -0.159417
C94   C     C_R   0.053513 0.416898 0.039663 -0.158842
C95   C     C_R   0.946486 0.583102 0.960340 -0.159416
C96   C     C_R   0.500000 0.933300 0.000000 0.101706
C97   C     C_R   0.500000 0.066699 0.000000 0.102157
C98   C     C_R   1.000000 0.433300 0.000000 0.101733
C99   C     C_R   0.000000 0.566700 0.000000 0.102173
C100  C     C_R   0.500000 0.868194 1.000000 -0.019252
C101  C     C_3   0.224837 0.721657 0.984648 -0.173352
C102  C     C_R   0.500000 0.131806 0.000000 -0.018618
C103  C     C_R   1.000000 0.368194 1.000000 -0.019019
C104  C     C_R   0.000000 0.631806 0.000000 -0.018802
C105  C     C_R   0.530090 0.983859 0.056193 -0.159122
C106  C     C_R   0.469910 0.016140 0.943807 -0.159355
C107  C     C_R   0.469910 0.983859 0.943807 -0.159123
C108  C     C_R   0.530090 0.016140 0.056193 -0.159355
C109  C     C_R   0.030116 0.483860 0.056191 -0.159143
C110  C     C_R   0.969884 0.516140 0.943809 -0.159415
C111  C     C_R   0.969884 0.483860 0.943809 -0.159142
C112  C     C_R   0.358335 0.749967 0.000056 0.787087
C113  C     C_3   0.746077 0.270832 0.958320 -0.119770
C114  C     C_R   0.030116 0.516140 0.056191 -0.159416
C115  C     C_3   0.761056 0.742384 0.056783 -0.172587
C116  C     C_3   0.259765 0.278345 0.984669 -0.171884
C117  C     C_3   0.238944 0.742384 0.943217 -0.172585
C118  C     C_3   0.740235 0.278345 0.015330 -0.171883
C119  C     C_3   0.240235 0.221657 0.015328 -0.172234
C120  C     C_3   0.738943 0.757619 0.943214 -0.173232
C121  C     C_3   0.759765 0.221657 0.984672 -0.172233
C122  C     C_3   0.261057 0.757619 0.056786 -0.173234
C123  C     C_3   0.698884 0.749913 0.999827 0.039560
C124  C     C_R   0.358295 0.249994 0.999975 0.787010
C125  C     C_3   0.300925 0.249900 0.999793 0.039525
C126  C     C_3   0.301115 0.749913 0.000173 0.039562
C127  C     C_3   0.699075 0.249900 0.000207 0.039524
C128  C     C_3   0.199074 0.250102 0.000205 0.039524
C129  C     C_3   0.801115 0.750089 0.000171 0.039610
C130  C     C_3   0.800926 0.250102 0.999795 0.039525
C131  C     C_3   0.198885 0.750089 0.999829 0.039610
C132  C     C_3   0.712071 0.729164 0.958352 -0.120358
C133  C     C_3   0.295963 0.242368 0.056764 -0.173379
C134  C     C_3   0.287929 0.729164 0.041648 -0.120358
C135  C     C_R   0.641665 0.749967 0.999944 0.787087
C136  C     C_3   0.704037 0.242368 0.943235 -0.173378
C137  C     C_3   0.204036 0.257635 0.943233 -0.173801
C138  C     C_3   0.787928 0.770838 0.041645 -0.119380
C139  C     C_3   0.795964 0.257635 0.056766 -0.173800
C140  C     C_3   0.212072 0.770838 0.958355 -0.119380
C141  C     C_R   0.831390 0.270386 0.731067 -0.257767
C142  C     C_R   0.167922 0.729195 0.268903 -0.255528
C143  C     C_R   0.168610 0.270387 0.268933 -0.257768
C144  C     C_R   0.832077 0.729195 0.731097 -0.255528
C145  C     C_R   0.331379 0.770380 0.731067 -0.258259
C146  C     C_R   0.141665 0.750034 0.999946 0.787109
C147  C     C_R   0.667911 0.229188 0.268903 -0.255061
C148  C     C_R   0.668622 0.770379 0.268933 -0.258258
C149  C     C_R   0.332090 0.229188 0.731097 -0.255062
C150  C     C_R   0.798505 0.271284 0.666147 0.471657
C151  C     C_R   0.200775 0.728262 0.333824 0.475759
C152  C     C_R   0.201494 0.271285 0.333853 0.471658
C153  C     C_R   0.799224 0.728263 0.666176 0.475760
C154  C     C_R   0.298494 0.771277 0.666147 0.471603
C155  C     C_R   0.700763 0.228255 0.333823 0.475828
C156  C     C_R   0.701507 0.771277 0.333853 0.471601
C157  C     C_R   0.858295 0.250006 0.999976 0.787079
C158  C     C_R   0.299237 0.228255 0.666176 0.475829
C159  C     C_R   0.815577 0.251376 0.632919 -0.051897
C160  C     C_R   0.184386 0.748560 0.367068 -0.054105
C161  C     C_R   0.184423 0.251377 0.367081 -0.051899
C162  C     C_R   0.815614 0.748560 0.632932 -0.054106
C163  C     C_R   0.315571 0.751372 0.632919 -0.051876
C164  C     C_R   0.684381 0.248557 0.367068 -0.054159
C165  C     C_R   0.684429 0.751372 0.367081 -0.051874
C166  C     C_R   0.315619 0.248557 0.632932 -0.054160
C167  C     C_R   0.865805 0.231652 0.665105 -0.219094
C168  C     C_R   0.858335 0.750034 0.000054 0.787110
C169  C     C_R   0.134838 0.768688 0.334923 -0.217286
C170  C     C_R   0.134196 0.231652 0.334895 -0.219098
C171  C     C_R   0.865162 0.768688 0.665077 -0.217281
C172  C     C_R   0.365802 0.731650 0.665106 -0.219096
C173  C     C_R   0.634838 0.268688 0.334923 -0.217232
C174  C     C_R   0.634197 0.731651 0.334894 -0.219094
C175  C     C_R   0.365161 0.268688 0.665076 -0.217233
C176  C     C_R   0.898465 0.231130 0.729719 -0.163198
C177  C     C_R   0.102170 0.769223 0.270309 -0.163160
C178  C     C_R   0.101536 0.231130 0.270281 -0.163198
C179  C     C_R   0.141705 0.250006 0.000024 0.787077
C180  C     C_R   0.897830 0.769222 0.729691 -0.163152
C181  C     C_R   0.398463 0.731128 0.729720 -0.162735
C182  C     C_R   0.602171 0.269223 0.270309 -0.163529
C183  C     C_R   0.601537 0.731129 0.270280 -0.162734
C184  C     C_R   0.397829 0.269223 0.729690 -0.163533
C185  C     C_R   0.415764 0.249984 0.831636 0.823053
C186  C     C_R   0.584240 0.750012 0.168363 0.822803
C187  C     C_R   0.584236 0.249984 0.168364 0.823056
C188  C     C_R   0.415760 0.750012 0.831636 0.822802
C189  C     C_R   0.915763 0.749985 0.831636 0.823032
C190  C     C_R   0.500000 0.032543 0.000000 0.096109
C191  C     C_R   0.084239 0.250013 0.168363 0.822830
C192  C     C_R   0.084237 0.749985 0.168364 0.823033
C193  C     C_R   0.915761 0.250013 0.831636 0.822829
C194  C     C_R   0.881419 0.250411 0.763264 -0.086129
C195  C     C_R   0.118564 0.749567 0.236737 -0.087630
C196  C     C_R   0.118581 0.250411 0.236736 -0.086128
C197  C     C_R   0.881436 0.749567 0.763262 -0.087633
C198  C     C_R   0.381414 0.750408 0.763264 -0.086108
C199  C     C_R   0.618559 0.249564 0.236737 -0.087678
C200  C     C_R   0.618586 0.750408 0.236736 -0.086107
H1    H     H_    0.404505 0.872544 0.929374 0.173465
H2    H     H_    0.064222 0.785087 0.246692 0.182160
H3    H     H_    0.878229 0.784211 0.639921 0.179410
H4    H     H_    0.379401 0.716418 0.639984 0.181051
H5    H     H_    0.621777 0.284214 0.360079 0.179522
H6    H     H_    0.620597 0.716419 0.360016 0.181051
H7    H     H_    0.378222 0.284215 0.639921 0.179523
H8    H     H_    0.579060 0.524983 0.906595 0.401550
H9    H     H_    0.506064 0.475206 0.852085 0.402869
H10   H     H_    0.420896 0.525009 0.093408 0.401501
H11   H     H_    0.493902 0.475248 0.147814 0.402880
H12   H     H_    0.920233 0.024845 0.092504 0.401685
H13   H     H_    0.063058 0.215579 0.246642 0.182471
H14   H     H_    0.993122 0.975085 0.147571 0.402736
H15   H     H_    0.079878 0.024889 0.907514 0.401574
H16   H     H_    0.006974 0.975197 0.852674 0.402791
H17   H     H_    0.697767 0.324821 0.543804 0.394148
H18   H     H_    0.359152 0.704032 0.423344 0.394927
H19   H     H_    0.302224 0.324828 0.456187 0.394150
H20   H     H_    0.640847 0.704033 0.576655 0.394927
H21   H     H_    0.197757 0.824823 0.543821 0.394121
H22   H     H_    0.859131 0.204011 0.423343 0.394922
H23   H     H_    0.802255 0.824814 0.456189 0.394116
H24   H     H_    0.935779 0.785087 0.753308 0.182164
H25   H     H_    0.140870 0.204010 0.576657 0.394922
H26   H     H_    0.436945 0.715580 0.753359 0.181996
H27   H     H_    0.564227 0.285090 0.246692 0.182678
H28   H     H_    0.563054 0.715581 0.246641 0.181996
H29   H     H_    0.435772 0.285090 0.753308 0.182677
H30   H     H_    0.855069 0.271085 0.557247 0.149536
H31   H     H_    0.144899 0.728796 0.442696 0.153281
H32   H     H_    0.144930 0.271085 0.442753 0.149536
H33   H     H_    0.595489 0.127456 0.070643 0.172582
H34   H     H_    0.855100 0.728794 0.557304 0.153282
H35   H     H_    0.355063 0.771092 0.557254 0.149588
H36   H     H_    0.644893 0.228804 0.442703 0.153221
H37   H     H_    0.644938 0.771093 0.442746 0.149589
H38   H     H_    0.355107 0.228804 0.557297 0.153220
H39   H     H_    0.798433 0.270403 0.443082 0.171097
H40   H     H_    0.201487 0.729508 0.556864 0.164328
H41   H     H_    0.201567 0.270403 0.556918 0.171096
H42   H     H_    0.798512 0.729506 0.443136 0.164331
H43   H     H_    0.298431 0.770413 0.443089 0.171025
H44   H     H_    0.595495 0.872544 0.070626 0.173464
H45   H     H_    0.701486 0.229519 0.556870 0.164392
H46   H     H_    0.701570 0.770415 0.556911 0.171026
H47   H     H_    0.298514 0.229520 0.443130 0.164389
H48   H     H_    0.517270 0.627750 0.924748 0.216846
H49   H     H_    0.531721 0.372247 0.935568 0.216949
H50   H     H_    0.482731 0.627751 0.075253 0.216849
H51   H     H_    0.468278 0.372247 0.064432 0.216941
H52   H     H_    0.982129 0.127747 0.074841 0.217285
H53   H     H_    0.967749 0.872245 0.063991 0.216541
H54   H     H_    0.017882 0.127749 0.925165 0.217293
H55   H     H_    0.404511 0.127456 0.929357 0.172581
H56   H     H_    0.032246 0.872244 0.936004 0.216527
H57   H     H_    0.595110 0.528544 0.070753 0.162821
H58   H     H_    0.404868 0.471456 0.929311 0.162711
H59   H     H_    0.404891 0.528546 0.929250 0.162812
H60   H     H_    0.595131 0.471455 0.070689 0.162727
H61   H     H_    0.905233 0.028545 0.928335 0.162768
H62   H     H_    0.094796 0.971449 0.071605 0.162916
H63   H     H_    0.094782 0.028539 0.071667 0.162764
H64   H     H_    0.905205 0.971455 0.928390 0.162931
H65   H     H_    0.404477 0.929050 0.929844 0.148101
H66   H     H_    0.904497 0.372544 0.929399 0.172920
H67   H     H_    0.595518 0.070950 0.070172 0.147574
H68   H     H_    0.595523 0.929050 0.070156 0.148101
H69   H     H_    0.404482 0.070950 0.929828 0.147572
H70   H     H_    0.904469 0.429050 0.929870 0.147978
H71   H     H_    0.095533 0.570950 0.070125 0.147643
H72   H     H_    0.095531 0.429050 0.070130 0.147978
H73   H     H_    0.904467 0.570950 0.929875 0.147644
H74   H     H_    0.552850 0.971710 0.100151 0.145294
H75   H     H_    0.447151 0.028289 0.899849 0.145391
H76   H     H_    0.447150 0.971710 0.899849 0.145294
H77   H     H_    0.095505 0.627456 0.070595 0.173086
H78   H     H_    0.552849 0.028289 0.100151 0.145390
H79   H     H_    0.052897 0.471711 0.100149 0.145280
H80   H     H_    0.947103 0.528289 0.899851 0.145404
H81   H     H_    0.947103 0.471711 0.899851 0.145280
H82   H     H_    0.052897 0.528289 0.100149 0.145404
H83   H     H_    0.768984 0.736152 0.103288 0.150386
H84   H     H_    0.268891 0.301558 0.972114 0.150909
H85   H     H_    0.231016 0.736152 0.896712 0.150386
H86   H     H_    0.731109 0.301558 0.027886 0.150910
H87   H     H_    0.231109 0.198445 0.027884 0.150607
H88   H     H_    0.095503 0.372544 0.070601 0.172920
H89   H     H_    0.731015 0.763850 0.896709 0.150004
H90   H     H_    0.768891 0.198444 0.972116 0.150608
H91   H     H_    0.268985 0.763850 0.103291 0.150003
H92   H     H_    0.243759 0.212072 0.924107 0.163881
H93   H     H_    0.703109 0.801559 0.972085 0.149004
H94   H     H_    0.756241 0.212072 0.075893 0.163882
H95   H     H_    0.296891 0.801559 0.027915 0.149003
H96   H     H_    0.796890 0.698443 0.027912 0.148508
H97   H     H_    0.256240 0.287930 0.075891 0.164651
H98   H     H_    0.203110 0.698443 0.972087 0.148507
H99   H     H_    0.904495 0.627456 0.929404 0.173087
H100  H     H_    0.743760 0.287930 0.924109 0.164651
H101  H     H_    0.680036 0.712059 0.924164 0.164230
H102  H     H_    0.334733 0.236115 0.103252 0.148771
H103  H     H_    0.319964 0.712059 0.075835 0.164230
H104  H     H_    0.665267 0.236115 0.896747 0.148771
H105  H     H_    0.165266 0.263887 0.896745 0.148183
H106  H     H_    0.819963 0.787944 0.075832 0.165016
H107  H     H_    0.834734 0.263887 0.103254 0.148184
H108  H     H_    0.180037 0.787944 0.924168 0.165016
H109  H     H_    0.818014 0.285433 0.756580 0.207708
H110  H     H_    0.936943 0.215579 0.753359 0.182472
H111  H     H_    0.180747 0.713853 0.243346 0.208142
H112  H     H_    0.181985 0.285433 0.243420 0.207709
H113  H     H_    0.819252 0.713853 0.756654 0.208142
H114  H     H_    0.318000 0.785424 0.756579 0.208114
H115  H     H_    0.680730 0.213843 0.243346 0.207747
H116  H     H_    0.682002 0.785423 0.243421 0.208113
H117  H     H_    0.319270 0.213843 0.756654 0.207747
H118  H     H_    0.879400 0.216419 0.639983 0.181134
H119  H     H_    0.121772 0.784212 0.360079 0.179408
H120  H     H_    0.120601 0.216418 0.360017 0.181134
O1    O     O_3   0.500000 0.250030 0.000000 -0.485675
O2    O     O_R   0.864560 0.268140 0.963700 -0.644237
O3    O     O_3   0.172386 0.219712 0.601324 -0.570369
O4    O     O_R   0.864560 0.731860 0.963700 -0.637449
O5    O     O_R   0.135440 0.268140 0.036300 -0.644237
O6    O     O_R   0.461440 0.268210 0.861400 -0.641710
O7    O     O_R   0.538560 0.731790 0.138600 -0.642403
O8    O     O_R   0.538560 0.268210 0.138600 -0.641709
O9    O     O_R   0.461440 0.731790 0.861400 -0.642403
O10   O     O_R   0.961440 0.768210 0.861400 -0.641892
O11   O     O_R   0.038560 0.231790 0.138600 -0.642212
O12   O     O_R   0.038560 0.768210 0.138600 -0.641895
O13   O     O_3   0.500000 0.749970 0.000000 -0.485711
O14   O     O_R   0.961440 0.231790 0.861400 -0.642210
O15   O     O_R   0.512550 0.319330 0.963650 -0.640933
O16   O     O_R   0.487450 0.680670 0.036350 -0.641082
O17   O     O_R   0.487450 0.319330 0.036350 -0.640934
O18   O     O_R   0.512550 0.680670 0.963650 -0.641081
O19   O     O_R   0.012550 0.819330 0.963650 -0.641082
O20   O     O_R   0.987450 0.180670 0.036350 -0.640936
O21   O     O_R   0.987450 0.819330 0.036350 -0.641084
O22   O     O_R   0.012550 0.180670 0.963650 -0.640937
O23   O     O_R   0.548940 0.180730 0.036330 -0.642017
O24   O     O_3   1.000000 0.750030 0.000000 -0.485655
O25   O     O_R   0.451060 0.819270 0.963670 -0.641667
O26   O     O_R   0.451060 0.180730 0.963670 -0.642017
O27   O     O_R   0.548940 0.819270 0.036330 -0.641667
O28   O     O_R   0.048940 0.680730 0.036330 -0.641833
O29   O     O_R   0.951060 0.319270 0.963670 -0.641863
O30   O     O_R   0.951060 0.680730 0.963670 -0.641833
O31   O     O_R   0.048940 0.319270 0.036330 -0.641862
O32   O     O_R   0.399960 0.231880 0.861420 -0.641033
O33   O     O_R   0.600040 0.768120 0.138580 -0.640641
O34   O     O_R   0.600040 0.231880 0.138580 -0.641033
O35   O     O_3   0.000000 0.249970 0.000000 -0.485713
O36   O     O_R   0.399960 0.768120 0.861420 -0.640641
O37   O     O_R   0.899960 0.731880 0.861420 -0.640899
O38   O     O_R   0.100040 0.268120 0.138580 -0.640784
O39   O     O_R   0.100040 0.731880 0.138580 -0.640899
O40   O     O_R   0.899960 0.268120 0.861420 -0.640784
O41   O     O_R   0.599090 0.268200 0.963630 -0.637081
O42   O     O_R   0.400910 0.731800 0.036370 -0.644146
O43   O     O_R   0.400910 0.268200 0.036370 -0.637082
O44   O     O_R   0.599090 0.731800 0.963630 -0.644146
O45   O     O_R   0.099090 0.768200 0.963630 -0.644180
O46   O     O_R   0.635440 0.231860 0.036300 -0.644391
O47   O     O_R   0.900910 0.231800 0.036370 -0.637092
O48   O     O_R   0.900910 0.768200 0.036370 -0.644180
O49   O     O_R   0.099090 0.231800 0.963630 -0.637092
O50   O     O_2   0.465934 0.545845 0.857895 -0.290312
O51   O     O_2   0.537912 0.585955 0.866994 -0.270706
O52   O     O_3   0.580486 0.538111 0.939701 -0.537932
O53   O     O_2   0.599213 0.453804 0.957335 -0.298201
O54   O     O_2   0.550871 0.414058 0.876686 -0.270590
O55   O     O_3   0.486828 0.462211 0.869902 -0.532066
O56   O     O_2   0.534055 0.545837 0.142096 -0.290345
O57   O     O_R   0.364560 0.768140 0.963700 -0.637223
O58   O     O_2   0.462106 0.585957 0.133019 -0.270731
O59   O     O_3   0.419500 0.538121 0.060297 -0.537980
O60   O     O_2   0.400795 0.453811 0.042665 -0.298306
O61   O     O_2   0.449111 0.414058 0.123303 -0.270459
O62   O     O_3   0.513183 0.462203 0.130112 -0.531991
O63   O     O_2   0.033231 0.046028 0.142072 -0.290565
O64   O     O_2   0.960482 0.085943 0.131836 -0.270248
O65   O     O_3   0.919039 0.037938 0.059470 -0.537680
O66   O     O_2   0.900426 0.954056 0.041765 -0.298000
O67   O     O_2   0.947468 0.914047 0.122007 -0.271079
O68   O     O_R   0.364560 0.231860 0.963700 -0.644392
O69   O     O_3   0.012566 0.961971 0.130142 -0.532344
O70   O     O_2   0.966805 0.046021 0.857948 -0.290613
O71   O     O_2   0.039531 0.085950 0.868167 -0.270300
O72   O     O_3   0.081005 0.037949 0.940554 -0.537829
O73   O     O_2   0.099604 0.954026 0.958236 -0.298143
O74   O     O_2   0.052465 0.914046 0.877931 -0.270816
O75   O     O_3   0.987453 0.961996 0.869892 -0.532298
O76   O     O_2   0.678538 0.280937 0.606494 -0.306083
O77   O     O_2   0.743384 0.323179 0.672319 -0.271246
O78   O     O_3   0.737195 0.313790 0.566986 -0.551322
O79   O     O_R   0.635440 0.768140 0.036300 -0.637223
O80   O     O_2   0.259068 0.686387 0.424921 -0.288260
O81   O     O_2   0.255640 0.676366 0.327020 -0.275247
O82   O     O_3   0.327630 0.719731 0.398677 -0.570555
O83   O     O_2   0.321461 0.280938 0.393507 -0.306071
O84   O     O_2   0.256614 0.323180 0.327681 -0.271259
O85   O     O_3   0.262802 0.313791 0.433014 -0.551327
O86   O     O_2   0.740931 0.686388 0.575080 -0.288258
O87   O     O_2   0.744357 0.676368 0.672980 -0.275248
O88   O     O_3   0.672369 0.719733 0.601322 -0.570554
O89   O     O_2   0.178524 0.780921 0.606490 -0.306237
O90   O     O_R   0.135440 0.731860 0.036300 -0.637449
O91   O     O_2   0.243357 0.823165 0.672318 -0.270728
O92   O     O_3   0.237174 0.813782 0.566986 -0.551354
O93   O     O_2   0.759042 0.186379 0.424920 -0.288269
O94   O     O_2   0.755610 0.176352 0.327019 -0.275778
O95   O     O_3   0.827615 0.219713 0.398676 -0.570369
O96   O     O_2   0.821478 0.780918 0.393510 -0.306252
O97   O     O_2   0.756648 0.823163 0.327682 -0.270714
O98   O     O_3   0.762829 0.813781 0.433013 -0.551338
O99   O     O_2   0.240959 0.186379 0.575080 -0.288271
O100  O     O_2   0.244392 0.176352 0.672980 -0.275779
S1    S     S_3+6 0.522607 0.563291 0.902510 0.035091
S2    S     S_3+6 0.260947 0.701152 0.371643 0.022552
S3    S     S_3+6 0.262559 0.297890 0.371665 0.023603
S4    S     S_3+6 0.739052 0.701153 0.628357 0.022553
S5    S     S_3+6 0.237421 0.797878 0.628334 0.023690
S6    S     S_3+6 0.760925 0.201140 0.371642 0.022456
S7    S     S_3+6 0.762582 0.797877 0.371666 0.023694
S8    S     S_3+6 0.239075 0.201140 0.628358 0.022454
S9    S     S_3+6 0.540883 0.436698 0.916178 0.033868
S10   S     S_3+6 0.477392 0.563292 0.097491 0.035035
S11   S     S_3+6 0.459116 0.436698 0.083822 0.033913
S12   S     S_3+6 0.976542 0.063293 0.096908 0.035027
S13   S     S_3+6 0.958348 0.936703 0.083177 0.033911
S14   S     S_3+6 0.023486 0.063296 0.903105 0.034920
S15   S     S_3+6 0.041643 0.936700 0.916812 0.034015
S16   S     S_3+6 0.737439 0.297889 0.628335 0.023606
Zn1   Zn    Zn3+2 0.430120 0.224080 0.948100 0.983163
Zn2   Zn    Zn3+2 0.482040 0.724010 0.051930 0.984355
Zn3   Zn    Zn3+2 0.482040 0.275990 0.051930 0.986832
Zn4   Zn    Zn3+2 0.517960 0.724010 0.948070 0.984355
Zn5   Zn    Zn3+2 0.017960 0.775990 0.948070 0.984613
Zn6   Zn    Zn3+2 0.982040 0.224010 0.051930 0.986582
Zn7   Zn    Zn3+2 0.982040 0.775990 0.051930 0.984610
Zn8   Zn    Zn3+2 0.017960 0.224010 0.948070 0.986583
Zn9   Zn    Zn3+2 0.569880 0.775920 0.051900 0.985809
Zn10  Zn    Zn3+2 0.569880 0.224080 0.051900 0.983164
Zn11  Zn    Zn3+2 0.430120 0.775920 0.948100 0.985810
Zn12  Zn    Zn3+2 0.930120 0.724080 0.948100 0.985355
Zn13  Zn    Zn3+2 0.069880 0.275920 0.051900 0.983588
Zn14  Zn    Zn3+2 0.069880 0.724080 0.051900 0.985354
Zn15  Zn    Zn3+2 0.930120 0.275920 0.948100 0.983588
Zn16  Zn    Zn3+2 0.517960 0.275990 0.948070 0.986831

loop_
_geom_bond_atom_site_label_1
_geom_bond_atom_site_label_2
_ccdc_geom_bond_type
O21   Zn7   S    
C38   H56   S    
O22   Zn8   S    
C189  O10   A    
C133  H102  S    
H9    O55   S    
O20   Zn6   S    
O85   S3    S    
C175  H7    S    
C143  H112  S    
O1    Zn1   S    
C30   H48   S    
C170  C178  A    
C24   C98   S    
C105  H74   S    
O95   S6    S    
C59   C66   A    
C95   C99   A    
C182  H27   S    
C106  C107  A    
C181  C198  A    
O87   S4    D    
O72   S14   S    
C131  C146  S    
C43   S12   S    
C191  C196  S    
O42   Zn2   S    
C131  C140  S    
C193  O40   A    
C114  H82   S    
C38   C55   A    
C122  H91   S    
C192  O39   A    
C5    H31   S    
O65   S12   S    
C26   C160  S    
C46   H93   S    
C90   C116  S    
C4    C12   A    
C147  C155  A    
C117  C126  S    
H14   O69   S    
C88   C97   A    
C85   C103  A    
C119  C128  S    
C7    C28   A    
O82   S2    S    
C112  O57   A    
O7    Zn2   S    
C120  H89   S    
C77   O29   A    
C11   C20   A    
C3    C149  A    
C115  C123  S    
C150  C159  A    
C182  C199  A    
O13   Zn11  S    
C192  C195  S    
O24   Zn14  S    
C127  C136  S    
O9    Zn4   S    
C148  C200  A    
O15   Zn16  S    
O43   Zn3   S    
C142  C151  A    
C183  H28   S    
O93   S6    D    
C188  C198  S    
C64   H64   S    
O13   Zn2   S    
O25   Zn11  S    
C164  C173  A    
C163  C172  A    
O12   Zn7   S    
C191  O38   A    
C60   C65   A    
C34   C54   A    
C113  H100  S    
C42   S11   S    
C82   H55   S    
C36   C44   A    
O17   Zn3   S    
C37   C45   A    
O38   Zn13  S    
O1    Zn3   S    
C189  C197  S    
C16   C25   A    
C70   O17   A    
C177  C195  A    
C178  H13   S    
C147  H115  S    
C106  H75   S    
C189  O37   A    
O28   Zn14  S    
C8    C17   A    
C89   H68   S    
H25   O3    S    
C89   C96   A    
C2    C96   S    
C61   H61   S    
C80   C88   A    
C36   C55   A    
O55   S9    S    
O69   S13   S    
C45   C50   A    
C56   C66   A    
C143  C196  A    
C11   C23   A    
C159  C167  A    
C180  H24   S    
C84   C93   A    
C86   C95   A    
C169  H119  S    
H11   O62   S    
O90   Zn14  S    
C8    H35   S    
C170  H120  S    
H12   O65   S    
C17   H43   S    
C37   H54   S    
C123  C135  S    
C174  H6    S    
O19   Zn5   S    
C124  O43   A    
C77   O31   A    
C35   C137  S    
C86   H99   S    
C154  S5    S    
C16   H42   S    
C78   C87   A    
H20   O88   S    
C79   C115  S    
C123  C132  S    
C121  C130  S    
O34   Zn10  S    
O37   Zn12  S    
C86   C104  A    
O60   S11   D    
C83   C103  A    
C58   H58   S    
C130  C157  S    
C112  O42   A    
C33   C42   A    
C81   H44   S    
C184  H29   S    
O4    Zn12  S    
C27   C159  S    
C40   C49   A    
O35   Zn15  S    
O92   S5    S    
O13   Zn4   S    
C31   H49   S    
C150  S16   S    
H23   O98   S    
C35   C125  S    
C122  C134  S    
C179  O5    A    
C110  C111  A    
C172  C181  A    
C32   C52   A    
O98   S7    S    
C63   C69   A    
C93   H71   S    
C44   S13   S    
C8    C22   A    
C32   C41   A    
O51   S1    D    
C149  C158  A    
C156  S7    S    
C152  C161  A    
C146  O45   A    
C7    H34   S    
C94   H72   S    
O31   Zn13  S    
C87   C96   A    
C108  C190  A    
O29   Zn15  S    
C3    C185  S    
C169  C177  A    
C141  C150  A    
O81   S2    D    
C72   O19   A    
C113  C130  S    
O44   Zn4   S    
C120  C129  S    
C77   C103  S    
C188  O9    A    
C115  H83   S    
C165  C174  A    
O49   Zn8   S    
C178  C196  A    
H15   O72   S    
H21   O92   S    
O70   S14   D    
C5    C26   A    
C80   C102  A    
C13   C99   S    
C148  H116  S    
C92   H70   S    
C58   C65   A    
C149  H117  S    
O73   S15   D    
C145  H114  S    
C142  C195  A    
O86   S4    D    
C142  H111  S    
C82   C102  A    
C46   C120  S    
H16   O75   S    
C51   C67   S    
C19   C28   A    
C126  C134  S    
C109  C114  A    
C145  C154  A    
C10   C25   A    
C140  H108  S    
C193  C194  S    
C141  H109  S    
C116  C125  S    
C40   S9    S    
C84   C104  A    
O36   Zn11  S    
O14   Zn8   S    
C134  H103  S    
C106  C190  A    
C117  H85   S    
O61   S11   D    
C122  C131  S    
C4    C27   A    
C137  H105  S    
C44   C51   A    
C119  H87   S    
C116  C137  S    
C3    C184  A    
O84   S3    D    
C30   C52   A    
C47   S15   S    
C129  C168  S    
C76   O30   A    
C34   C43   A    
C57   C127  S    
C43   C50   A    
H22   O95   S    
O35   Zn13  S    
C73   O20   A    
C183  C200  A    
C101  C117  S    
O1    Zn16  S    
C145  C198  A    
C14   H40   S    
O6    Zn16  S    
C18   H45   S    
C71   O16   A    
O40   Zn15  S    
C30   C39   A    
O52   S1    S    
O30   Zn12  S    
C138  H106  S    
C9    C18   A    
C10   H37   S    
C118  C127  S    
C39   C48   A    
C48   C66   S    
C60   H60   S    
C19   H46   S    
C76   C104  S    
C15   H41   S    
C85   H88   S    
C1    O46   A    
C147  C199  A    
C56   H57   S    
C155  S6    S    
C78   H1    S    
O32   Zn1   S    
C186  C200  S    
O59   S10   S    
O67   S13   D    
C11   H38   S    
O27   Zn9   S    
C166  C175  A    
C121  H90   S    
C6    H32   S    
C94   C98   A    
C125  C133  S    
C79   C129  S    
C68   H95   S    
O18   Zn4   S    
C31   C40   A    
C57   C139  S    
C172  H4    S    
C187  O34   A    
C57   H94   S    
C70   O15   A    
C20   H47   S    
O78   S16   S    
C144  C197  A    
O54   S9    D    
C160  C169  A    
O16   Zn2   S    
C151  S2    S    
C93   C99   A    
C112  C126  S    
C13   C114  A    
C74   C102  S    
O10   Zn5   S    
C81   C89   A    
O33   Zn9   S    
C21   C164  S    
C111  H81   S    
C59   H59   S    
C53   C70   S    
C109  H79   S    
C110  H80   S    
C186  O7    A    
C73   O22   A    
O64   S12   D    
C92   C98   A    
O8    Zn3   S    
C68   C122  S    
C90   C133  S    
C47   C51   A    
O45   Zn5   S    
C58   C59   A    
O58   S10   D    
O46   Zn10  S    
C56   C60   A    
C187  C199  S    
C185  O32   A    
C61   C64   A    
C41   S10   S    
C62   C63   A    
O66   S13   D    
C185  O6    A    
C54   C73   S    
O91   S5    D    
O26   Zn1   S    
C187  O8    A    
O5    Zn13  S    
O79   Zn9   S    
H18   O82   S    
C128  C179  S    
C91   C97   A    
O99   S8    D    
C5    C14   A    
C191  O11   A    
C87   H65   S    
O23   Zn10  S    
C62   C67   A    
C143  C152  A    
C76   O28   A    
C78   C100  A    
C74   O23   A    
C46   C123  S    
C116  H84   S    
C117  C140  S    
C161  C170  A    
C118  C139  S    
C158  C166  A    
O50   S1    D    
O53   S9    D    
O63   S12   D    
C80   H33   S    
C83   H66   S    
C24   C109  A    
C135  O44   A    
C63   H63   S    
C174  C183  A    
O57   Zn11  S    
C136  H104  S    
C88   H67   S    
C81   C100  A    
C181  H26   S    
C95   H73   S    
C75   O27   A    
C153  C162  A    
C71   O18   A    
C25   C165  S    
C101  H98   S    
C52   C71   S    
C158  S8    S    
C14   C22   A    
C156  C165  A    
O76   S16   D    
C121  C136  S    
C171  H3    S    
C118  H86   S    
O75   S15   S    
C82   C91   A    
H17   O78   S    
O97   S7    D    
H10   O59   S    
C6    C29   A    
C1    O41   A    
C167  H118  S    
C173  H5    S    
C193  O14   A    
C148  C156  A    
C176  C194  A    
C175  C184  A    
C39   S1    S    
O41   Zn16  S    
O77   S16   D    
C35   C119  S    
C146  O90   A    
C62   H62   S    
O48   Zn7   S    
O2    Zn15  S    
C28   C162  S    
C101  C134  S    
C83   C92   A    
C119  C133  S    
C49   C65   S    
C45   S14   S    
C17   C26   A    
C50   C69   S    
C144  H113  S    
C153  S4    S    
C79   H96   S    
C139  H107  S    
C157  O2    A    
C32   H50   S    
C2    C107  A    
C152  S3    S    
H19   O85   S    
C168  O4    A    
C144  C153  A    
C33   H51   S    
C180  C197  A    
C6    C15   A    
C41   C48   A    
O24   Zn7   S    
C129  C138  S    
C113  C136  S    
O39   Zn14  S    
C10   C19   A    
C55   C72   S    
C46   C138  S    
C74   O26   A    
C15   C23   A    
C9    H36   S    
C176  H110  S    
C179  O49   A    
C24   C111  A    
C108  H78   S    
O74   S15   D    
C130  C139  S    
O35   Zn8   S    
O88   S4    S    
C20   C29   A    
C12   H39   S    
C33   C53   A    
C105  C108  A    
C75   O25   A    
C64   C67   A    
C29   C161  S    
C154  C163  A    
O94   S6    D    
C12   C21   A    
H8    O52   S    
O80   S2    D    
C4    H30   S    
C128  C137  S    
C13   C110  A    
C107  H76   S    
C23   C166  S    
C85   C94   A    
C35   H92   S    
C115  C138  S    
C84   H77   S    
C72   O21   A    
C31   C53   A    
C38   C47   A    
C186  O33   A    
O83   S3    D    
C37   C54   A    
C90   H97   S    
O56   S10   D    
C97   C190  S    
C171  C180  A    
O100  S8    D    
O11   Zn6   S    
C9    C21   A    
O68   Zn1   S    
C68   C126  S    
C124  O68   A    
C61   C69   A    
O24   Zn12  S    
C7    C16   A    
O47   Zn6   S    
C120  C132  S    
C18   C27   A    
C1    C127  S    
O71   S14   D    
C91   H69   S    
C173  C182  A    
C155  C164  A    
C2    C105  A    
C36   H53   S    
C132  H101  S    
O13   Zn9   S    
C151  C160  A    
C135  O79   A    
C192  O12   A    
O3    S8    S    
C22   C163  S    
C79   C132  S    
C75   C100  S    
O96   S7    D    
C101  C131  S    
C141  C194  A    
C68   C140  S    
C42   C49   A    
C57   C121  S    
C113  C118  S    
C162  C171  A    
O1    Zn10  S    
C168  O48   A    
O89   S5    D    
C90   C128  S    
C177  H2    S    
C167  C176  A    
C34   H52   S    
C157  O47   A    
O35   Zn6   S    
O24   Zn5   S    
O62   S11   S    
C124  C125  S    
C188  O36   A    
