data_mof_unit_25554.cif
_audit_creation_date              2012-10-26T19:35:12-0400
_audit_creation_method            fapswitch 2.2
_symmetry_space_group_name_H-M    P1
_symmetry_Int_Tables_number       1
_space_group_crystal_system       triclinic
_cell_length_a                    10.826821
_cell_length_b                    10.85365
_cell_length_c                    9.545374
_cell_angle_alpha                 89.06937
_cell_angle_beta                  89.488488
_cell_angle_gamma                 91.564185
_cell_volume                      1121.06677103

loop_
_atom_site_label
_atom_site_type_symbol
_atom_type_description
_atom_site_fract_x
_atom_site_fract_y
_atom_site_fract_z
_atom_type_partial_charge
C1    C     C_R   0.502041 0.262369 0.500912 0.536261
C2    C     C_R   0.544492 0.939312 0.378445 -0.119629
C3    C     C_R   0.507237 0.871100 0.498476 0.033673
C4    C     C_R   0.261931 0.507367 0.500995 0.539331
C5    C     C_R   0.484592 0.933584 0.622068 0.053569
C6    C     C_3   0.374657 0.926130 0.718712 -0.053334
C7    C     C_3   0.385680 0.065396 0.727050 -0.208589
C8    C     C_R   0.591253 0.562642 0.071692 0.175024
C9    C     C_R   0.417677 0.429370 0.077380 -0.021018
C10   C     C_R   0.417581 0.428608 0.928404 0.190417
C11   C     C_R   0.590897 0.562237 0.923971 0.076842
C12   C     C_R   0.057924 0.509295 0.631548 0.016244
C13   C     C_3   0.620424 0.696396 0.911899 -0.215077
C14   C     C_3   0.617578 0.699072 0.070716 0.140511
C15   C     C_R   0.500552 0.737661 0.499033 0.571104
C16   C     C_R   0.736762 0.487114 0.500277 0.567569
C17   C     C_R   0.105908 0.551845 0.759734 -0.111020
C18   C     C_R   0.043657 0.525207 0.885550 -0.130389
C19   C     C_R   0.937206 0.450506 0.885884 -0.043096
C20   C     C_R   0.883378 0.415615 0.759442 0.132602
C21   C     C_R   0.935214 0.462987 0.630807 0.040494
C22   C     C_R   0.126416 0.510573 0.503801 -0.007312
C23   C     C_R   0.063768 0.496331 0.376864 -0.137386
C24   C     C_R   0.936462 0.482232 0.376120 -0.113005
C25   C     C_R   0.870436 0.469962 0.502439 -0.015631
C26   C     C_R   0.490821 0.060584 0.625385 0.017706
C27   C     C_R   0.512778 0.129501 0.502501 0.002087
C28   C     C_R   0.546856 0.067889 0.380160 -0.149525
Cu1   Cu    Cu3+1 0.499990 0.499980 0.640670 0.961587
Cu2   Cu    Cu3+1 0.500010 0.500020 0.359330 0.984961
H1    H     H_    0.112723 0.498537 0.277331 0.136045
H2    H     H_    0.082850 0.555343 0.983590 0.135143
H3    H     H_    0.897276 0.418142 0.984676 0.139401
H4    H     H_    0.889699 0.481193 0.276398 0.183172
H5    H     H_    0.570892 0.118536 0.284616 0.147822
H6    H     H_    0.567852 0.894289 0.282388 0.176208
H7    H     H_    0.241481 0.381200 0.888635 0.208965
H8    H     H_    0.335537 0.263956 0.899906 0.187471
H9    H     H_    0.880274 0.908854 0.132262 0.370795
H10   H     H_    0.711079 0.349354 0.811859 0.262477
H11   H     H_    0.770400 0.285886 0.664484 0.236304
H12   H     H_    0.389831 0.877570 0.820133 0.120822
H13   H     H_    0.266477 0.790764 0.632862 0.234524
H14   H     H_    0.187839 0.898255 0.716423 0.242051
H15   H     H_    0.305342 0.115616 0.685163 0.172348
H16   H     H_    0.418831 0.094471 0.831318 0.112045
H17   H     H_    0.349884 0.373868 0.135893 0.119557
H18   H     H_    0.712711 0.714686 0.862660 0.192131
H19   H     H_    0.544916 0.748870 0.864569 0.108700
H20   H     H_    0.539267 0.751782 0.112304 0.090104
H21   H     H_    0.190323 0.606829 0.764699 0.139603
N1    N     N_R   0.500790 0.500930 0.147930 -0.272923
N2    N     N_R   0.500790 0.500890 0.852020 -0.221666
N3    N     N_3   0.328755 0.352815 0.858492 -0.554252
N4    N     N_3   0.791231 0.317568 0.764524 -0.615128
N5    N     N_3   0.261967 0.885708 0.647653 -0.618595
O1    O     O_R   0.500000 0.319640 0.618810 -0.481842
O2    O     O_2   0.862801 0.660019 0.089753 -0.338211
O3    O     O_3   0.799373 0.889019 0.089209 -0.537235
O4    O     O_R   0.500010 0.319680 0.381230 -0.517664
O5    O     O_R   0.319640 0.499980 0.618820 -0.482172
O6    O     O_R   0.319650 0.500020 0.381230 -0.516528
O7    O     O_R   0.499990 0.680320 0.618770 -0.518666
O8    O     O_R   0.500000 0.680360 0.381190 -0.487749
O9    O     O_R   0.680350 0.499980 0.618770 -0.508401
O10   O     O_R   0.680360 0.500020 0.381180 -0.456670
O11   O     O_2   0.759571 0.737693 0.298920 -0.275511
S1    S     S_3+6 0.764646 0.743476 0.141703 -0.027446

loop_
_geom_bond_atom_site_label_1
_geom_bond_atom_site_label_2
_ccdc_geom_bond_type
C12   C17   A    
C13   H18   S    
C8    C14   S    
C15   O8    A    
Cu1   O7    S    
C6    C7    S    
C1    O1    A    
O3    S1    S    
C4    C22   S    
C9    C10   A    
C8    N1    A    
C19   C20   A    
C11   N2    A    
C8    C11   A    
C23   C24   A    
H10   N4    S    
H9    O3    S    
C17   H21   S    
C7    C26   S    
C2    C3    A    
C3    C15   S    
C4    O5    A    
Cu1   O5    S    
Cu2   O10   S    
C13   C14   S    
C24   C25   A    
C21   C25   A    
C6    N5    S    
H14   N5    S    
C11   C13   S    
C4    O6    A    
C15   O7    A    
C26   C27   A    
Cu1   Cu2   S    
C9    N1    A    
Cu1   N2    S    
C20   N4    S    
Cu1   O9    S    
H7    N3    S    
C7    H15   S    
O2    S1    D    
Cu1   O1    S    
C9    H17   S    
Cu2   O8    S    
Cu2   O6    S    
C14   S1    S    
C5    C6    S    
C10   N3    S    
C13   H19   S    
C18   H2    S    
C14   H20   S    
C5    C26   A    
C7    H16   S    
C12   C22   A    
H13   N5    S    
C16   C25   S    
C16   O10   A    
C20   C21   A    
C17   C18   A    
C18   C19   A    
C19   H3    S    
C1    O4    A    
C2    H6    S    
C27   C28   A    
C1    C27   S    
C10   N2    A    
Cu2   N1    S    
C22   C23   A    
H11   N4    S    
C2    C28   A    
C16   O9    A    
C23   H1    S    
C6    H12   S    
C12   C21   A    
C24   H4    S    
O11   S1    D    
C28   H5    S    
Cu2   O4    S    
C3    C5    A    
H8    N3    S    
