data_mof_unit_19409.cif
_audit_creation_date              2012-12-10T17:33:59-0500
_audit_creation_method            fapswitch 2.2
_symmetry_space_group_name_H-M    P1
_symmetry_Int_Tables_number       1
_space_group_crystal_system       triclinic
_cell_length_a                    10.700115
_cell_length_b                    11.953122
_cell_length_c                    12.846639
_cell_angle_alpha                 93.683346
_cell_angle_beta                  90.55825
_cell_angle_gamma                 86.360944
_cell_volume                      1636.3556512

loop_
_atom_site_label
_atom_site_type_symbol
_atom_type_description
_atom_site_fract_x
_atom_site_fract_y
_atom_site_fract_z
_atom_type_partial_charge
C1    C     C_R   0.489049 0.522742 0.700436 0.937162
C2    C     C_R   0.462513 0.447051 0.973057 0.175605
C3    C     C_R   0.456164 0.553607 0.026647 0.162404
C4    C     C_R   0.742487 0.500939 0.502866 0.889783
C5    C     C_R   0.466641 0.561572 0.133376 -0.277351
C6    C     C_R   0.485501 0.357947 0.135392 -0.216584
C7    C     C_R   0.474451 0.349214 0.027581 -0.220809
C8    C     C_R   0.384271 0.954024 0.400563 -0.341653
C9    C     C_R   0.395250 0.837618 0.410355 0.007263
C10   C     C_R   0.548911 0.858689 0.543129 0.030526
C11   C     C_R   0.543150 0.975793 0.534687 0.083091
C12   C     C_3   0.122364 0.499950 0.503164 0.004940
C13   C     C_R   0.458670 0.024105 0.463097 0.075759
C14   C     C_R   0.450437 0.141647 0.456853 -0.055105
C15   C     C_R   0.606480 0.161914 0.587948 0.028917
C16   C     C_R   0.498278 0.477677 0.299236 0.858028
C17   C     C_R   0.618084 0.045566 0.596914 -0.322281
C18   C     C_R   0.257956 0.499827 0.499992 0.939631
C19   C     C_3   0.935280 0.446509 0.605370 -0.203243
C20   C     C_3   0.080951 0.439900 0.600151 0.166461
C21   C     C_3   0.932733 0.432254 0.403638 -0.218462
C22   C     C_3   0.923128 0.624331 0.495832 0.205092
C23   C     C_3   0.076969 0.435587 0.402492 -0.539416
C24   C     C_3   0.879182 0.501712 0.504991 -0.049355
C25   C     C_R   0.418437 0.751900 0.813114 0.147725
C26   C     C_R   0.311689 0.766804 0.749591 -0.085837
C27   C     C_R   0.280194 0.870975 0.709572 -0.154565
C28   C     C_R   0.353411 0.961759 0.734397 -0.102642
C29   C     C_R   0.459535 0.947924 0.797710 -0.157262
C30   C     C_R   0.492354 0.843419 0.836658 -0.175589
C31   C     C_R   0.878797 0.488311 0.711750 0.182822
C32   C     C_R   0.809369 0.414848 0.766595 -0.163955
C33   C     C_R   0.765825 0.445182 0.867218 -0.138227
C34   C     C_3   0.064532 0.622891 0.507598 -0.418661
C35   C     C_R   0.786313 0.550944 0.913907 -0.119820
C36   C     C_R   0.855297 0.624699 0.861618 -0.157785
C37   C     C_R   0.903487 0.592794 0.762614 0.043275
C38   C     C_R   0.888544 0.312869 0.381325 0.186857
C39   C     C_R   0.938041 0.219391 0.433695 -0.168470
C40   C     C_R   0.891454 0.113433 0.413834 -0.140266
C41   C     C_R   0.796765 0.098064 0.339992 -0.106438
C42   C     C_R   0.749700 0.188324 0.284763 -0.120528
C43   C     C_R   0.795298 0.294730 0.304753 -0.094945
C44   C     C_R   0.484878 0.464414 0.187721 -0.055431
C45   C     C_R   0.464380 0.537913 0.811323 -0.059121
C46   C     C_R   0.442236 0.651309 0.973178 -0.268040
C47   C     C_R   0.444081 0.645216 0.864842 0.007536
C48   C     C_R   0.463946 0.440065 0.865810 -0.238567
Cl1   Cl    Cl    0.161325 0.482368 0.718708 -0.714818
Cl2   Cl    Cl    0.851494 0.738545 0.576510 -0.733890
H1    H     H_    0.910298 0.358024 0.595794 0.124160
H2    H     H_    0.385904 0.180676 0.402561 0.119977
H3    H     H_    0.663830 0.215809 0.635926 0.117849
H4    H     H_    0.318469 0.988739 0.344744 0.147298
H5    H     H_    0.684308 0.010641 0.652309 0.167496
H6    H     H_    0.338305 0.783334 0.361924 0.128933
H7    H     H_    0.608941 0.820581 0.600765 0.187586
H8    H     H_    0.113914 0.349974 0.588727 0.133312
H9    H     H_    0.123898 0.349802 0.394418 0.189573
H10   H     H_    0.899162 0.650150 0.415897 0.134087
H11   H     H_    0.091538 0.667385 0.582311 0.221030
H12   H     H_    0.101247 0.669906 0.443481 0.167542
H13   H     H_    0.251957 0.698410 0.732353 0.170446
H14   H     H_    0.198168 0.881630 0.660347 0.145003
H15   H     H_    0.328507 0.042616 0.703957 0.142707
H16   H     H_    0.516256 0.018305 0.816773 0.131419
H17   H     H_    0.574092 0.834192 0.886527 0.131391
H18   H     H_    0.792082 0.331999 0.733148 0.113512
H19   H     H_    0.716728 0.386025 0.909224 0.138144
H20   H     H_    0.751148 0.574696 0.991441 0.136254
H21   H     H_    0.875010 0.705379 0.899184 0.133940
H22   H     H_    0.966334 0.647471 0.729447 0.187732
H23   H     H_    0.898812 0.479809 0.335896 0.120263
H24   H     H_    0.013250 0.226689 0.489476 0.110820
H25   H     H_    0.929318 0.042951 0.455572 0.153566
H26   H     H_    0.760654 0.015981 0.324898 0.137797
H27   H     H_    0.677713 0.175642 0.226370 0.115692
H28   H     H_    0.756220 0.363455 0.261304 0.099079
H29   H     H_    0.105583 0.478872 0.333051 0.177839
H30   H     H_    0.462995 0.644341 0.173629 0.160406
H31   H     H_    0.495037 0.282250 0.177396 0.152477
H32   H     H_    0.430629 0.732560 0.015983 0.140928
H33   H     H_    0.478294 0.266758 0.986921 0.135540
H34   H     H_    0.472961 0.357426 0.825463 0.163780
N1    N     N_R   0.523380 0.207800 0.519350 -0.094219
N2    N     N_R   0.476620 0.792180 0.480650 -0.107434
O1    O     O_R   0.506240 0.421700 0.658830 -0.624485
O2    O     O_R   0.491240 0.609310 0.646410 -0.617110
O3    O     O_R   0.692710 0.406190 0.506230 -0.627043
O4    O     O_R   0.677700 0.593810 0.493810 -0.573229
O5    O     O_R   0.508760 0.390690 0.353590 -0.628560
O6    O     O_R   0.493760 0.578300 0.341170 -0.633517
O7    O     O_R   0.322300 0.406190 0.506190 -0.622993
O8    O     O_R   0.307290 0.593810 0.493770 -0.640489
Zn1   Zn    Zn3+2 0.510020 0.374730 0.508290 0.951917
Zn2   Zn    Zn3+2 0.489980 0.625270 0.491710 0.965825

loop_
_geom_bond_atom_site_label_1
_geom_bond_atom_site_label_2
_ccdc_geom_bond_type
C1    O1    A    
C7    H33   S    
O2    Zn2   S    
C8    C13   A    
C11   C13   A    
C41   C42   A    
C2    C7    A    
C34   H12   S    
C19   C31   S    
C43   H28   S    
C23   H9    S    
C12   C23   S    
C26   C27   A    
C20   Cl1   S    
C15   H3    S    
C28   C29   A    
C22   H10   S    
C38   C39   A    
C4    C24   S    
C21   H23   S    
O6    Zn2   S    
C39   H24   S    
C46   C47   A    
C11   C17   A    
C21   C38   S    
C35   C36   A    
C35   H20   S    
C8    C9    A    
O1    Zn1   S    
C16   C44   S    
C30   H17   S    
C36   H21   S    
C33   H19   S    
C32   H18   S    
C1    O2    A    
O7    Zn1   S    
C6    H31   S    
C6    C44   A    
C13   C14   A    
C4    O4    A    
C45   C47   A    
C22   C34   S    
C14   H2    S    
C46   H32   S    
C22   Cl2   S    
C10   H7    S    
C27   H14   S    
C8    H4    S    
C39   C40   A    
C2    C48   A    
C25   C26   A    
C28   H15   S    
C34   H11   S    
C48   H34   S    
O3    Zn1   S    
C26   H13   S    
C29   C30   A    
C19   H1    S    
C9    N2    A    
C31   C32   A    
C12   C20   S    
C9    H6    S    
C5    H30   S    
O8    Zn2   S    
N2    Zn2   S    
C42   H27   S    
C40   C41   A    
C5    C44   A    
C16   O6    A    
C21   C23   S    
C18   O8    A    
C22   C24   S    
C37   H22   S    
C42   C43   A    
C12   C34   S    
C4    O3    A    
C45   C48   A    
C25   C30   A    
C15   C17   A    
C17   H5    S    
C25   C47   S    
C10   N2    A    
C14   N1    A    
C3    C5    A    
O4    Zn2   S    
C6    C7    A    
C3    C46   A    
C40   H25   S    
C15   N1    A    
C32   C33   A    
C19   C20   S    
C19   C24   S    
C38   C43   A    
C41   H26   S    
N1    Zn1   S    
C1    C45   S    
C33   C35   A    
C2    C3    A    
C10   C11   A    
O5    Zn1   S    
C29   H16   S    
C31   C37   A    
C16   O5    A    
C36   C37   A    
C21   C24   S    
C12   C18   S    
C27   C28   A    
C18   O7    A    
C23   H29   S    
C20   H8    S    
