data_mof_unit_52424.cif
_audit_creation_date              2012-12-11T15:34:04-0500
_audit_creation_method            fapswitch 2.2
_symmetry_space_group_name_H-M    P1
_symmetry_Int_Tables_number       1
_space_group_crystal_system       triclinic
_cell_length_a                    15.088695
_cell_length_b                    15.063425
_cell_length_c                    34.948568
_cell_angle_alpha                 90.460564
_cell_angle_beta                  89.932551
_cell_angle_gamma                 59.917731
_cell_volume                      6873.1038754

loop_
_atom_site_label
_atom_site_type_symbol
_atom_type_description
_atom_site_fract_x
_atom_site_fract_y
_atom_site_fract_z
_atom_type_partial_charge
C1    C     C_R   0.302498 0.608274 0.555758 0.537634
C2    C     C_R   0.654413 0.656693 0.669629 0.033441
C3    C     C_R   0.241057 0.643911 0.271936 0.312517
C4    C     C_R   0.159477 0.652615 0.294405 0.116827
C5    C     C_R   0.071677 0.661772 0.277222 -0.148314
C6    C     C_R   0.063390 0.665095 0.237569 -0.139926
C7    C     C_R   0.143213 0.658571 0.214860 -0.011798
C8    C     C_R   0.184199 0.569218 0.357360 0.230717
C9    C     C_R   0.221722 0.558358 0.394589 -0.177602
C10   C     C_R   0.200721 0.729304 0.392300 0.248680
C11   C     C_R   0.169096 0.738002 0.353956 0.095685
C12   C     C_R   0.166231 0.655286 0.336210 0.052718
C13   C     C_R   0.561735 0.720602 0.650917 -0.126430
C14   C     C_R   0.235997 0.635140 0.411492 -0.045157
C15   C     C_R   0.735536 0.026621 0.943631 0.542694
C16   C     C_R   0.746204 0.722311 0.945174 0.545602
C17   C     C_R   0.037974 0.733965 0.948193 0.563404
C18   C     C_R   0.723203 0.038415 0.053008 0.547889
C19   C     C_R   0.734236 0.734950 0.055128 0.539785
C20   C     C_R   0.027070 0.744491 0.058235 0.573199
C21   C     C_R   0.549967 0.703835 0.612466 -0.133278
C22   C     C_R   0.671653 0.665480 0.789063 0.337397
C23   C     C_R   0.661569 0.662801 0.711502 0.337431
C24   C     C_R   0.774722 0.604197 0.848174 -0.185493
C25   C     C_R   0.792317 0.616283 0.886223 -0.151074
C26   C     C_R   0.619764 0.759897 0.892542 -0.106920
C27   C     C_R   0.599568 0.745084 0.854591 0.242861
C28   C     C_R   0.680190 0.670714 0.831206 0.018591
C29   C     C_R   0.610552 0.588438 0.555248 0.544898
C30   C     C_R   0.716910 0.697327 0.908232 -0.017788
C31   C     C_R   0.720999 0.079232 0.906796 -0.017983
C32   C     C_R   0.625343 0.125238 0.888719 -0.130334
C33   C     C_R   0.615600 0.153732 0.849667 0.292072
C34   C     C_R   0.704907 0.136080 0.829840 0.102249
C35   C     C_R   0.797915 0.099202 0.849119 -0.140614
C36   C     C_R   0.805830 0.071272 0.887284 -0.162283
C37   C     C_R   0.725471 0.220969 0.771549 0.219028
C38   C     C_R   0.723009 0.231962 0.731495 0.088066
C39   C     C_R   0.698341 0.170945 0.708202 -0.004943
C40   C     C_R   0.589912 0.301223 0.553686 0.546026
C41   C     C_R   0.683026 0.095480 0.724510 -0.121299
C42   C     C_R   0.682478 0.085327 0.764341 0.257379
C43   C     C_R   0.703603 0.148564 0.787921 0.053792
C44   C     C_R   0.576221 0.222448 0.653980 0.260265
C45   C     C_R   0.552135 0.248023 0.615655 -0.108135
C46   C     C_R   0.723512 0.217994 0.603937 -0.147401
C47   C     C_R   0.749107 0.189052 0.641951 -0.132250
C48   C     C_R   0.675264 0.192997 0.667314 0.062784
C49   C     C_R   0.624113 0.249825 0.590735 -0.024033
C50   C     C_R   0.088626 0.697394 0.910487 0.014770
C51   C     C_R   0.298537 0.611279 0.446480 0.555945
C52   C     C_R   0.127757 0.751728 0.890606 0.245319
C53   C     C_R   0.150235 0.731283 0.851310 -0.121291
C54   C     C_R   0.133797 0.659119 0.831976 0.046487
C55   C     C_R   0.101630 0.600444 0.852384 0.072805
C56   C     C_R   0.079886 0.619408 0.891439 -0.175398
C57   C     C_R   0.243241 0.622782 0.773474 0.245944
C58   C     C_R   0.252021 0.622565 0.733734 -0.134746
C59   C     C_R   0.168333 0.643839 0.710334 0.043334
C60   C     C_R   0.074068 0.667069 0.726834 0.098852
C61   C     C_R   0.064626 0.668941 0.766737 -0.120678
C62   C     C_R   0.608317 0.590533 0.445369 0.560098
C63   C     C_R   0.148233 0.648092 0.790157 0.036183
C64   C     C_R   0.193148 0.721712 0.652482 -0.148799
C65   C     C_R   0.225003 0.714176 0.614614 -0.142828
C66   C     C_R   0.228917 0.551922 0.607923 -0.122148
C67   C     C_R   0.196132 0.559307 0.646034 0.114208
C68   C     C_R   0.181584 0.643376 0.668672 0.097493
C69   C     C_R   0.247070 0.627306 0.592439 -0.002930
C70   C     C_R   0.698462 0.722390 0.092948 0.020584
C71   C     C_R   0.625863 0.808859 0.113722 -0.129300
C72   C     C_R   0.611990 0.801865 0.152879 -0.124381
C73   C     C_R   0.588101 0.302536 0.443905 0.543946
C74   C     C_R   0.670052 0.708260 0.171888 0.028331
C75   C     C_R   0.736546 0.620269 0.150448 -0.124807
C76   C     C_R   0.750471 0.627242 0.111379 -0.132803
C77   C     C_R   0.672929 0.617533 0.231991 -0.125015
C78   C     C_R   0.676323 0.610251 0.271723 -0.130298
C79   C     C_R   0.673097 0.688950 0.294621 0.035107
C80   C     C_R   0.667315 0.774914 0.276918 -0.080412
C81   C     C_R   0.664794 0.781931 0.237051 -0.116231
C82   C     C_R   0.667314 0.703354 0.214172 0.016096
C83   C     C_R   0.584780 0.754589 0.358274 0.267354
C84   C     C_R   0.630567 0.622581 0.592157 0.022460
C85   C     C_R   0.560654 0.725957 0.393714 0.086112
C86   C     C_R   0.724056 0.566013 0.390657 -0.177210
C87   C     C_R   0.741258 0.589785 0.354081 -0.196387
C88   C     C_R   0.669435 0.681104 0.336748 0.008278
C89   C     C_R   0.631624 0.630130 0.410111 0.008670
C90   C     C_R   0.700934 0.097762 0.089105 -0.038615
C91   C     C_R   0.772798 0.121509 0.105181 0.290570
C92   C     C_R   0.764690 0.149980 0.143853 0.109506
C93   C     C_R   0.681652 0.160539 0.165983 0.050961
C94   C     C_R   0.604673 0.147510 0.148868 0.059421
C95   C     C_R   0.725851 0.564364 0.609992 -0.126716
C96   C     C_R   0.614414 0.116877 0.110586 -0.186110
C97   C     C_R   0.654130 0.267172 0.224947 0.300322
C98   C     C_R   0.654152 0.275148 0.264956 0.074251
C99   C     C_R   0.677603 0.188582 0.287515 -0.015452
C100  C     C_R   0.704960 0.093818 0.270075 0.233149
C101  C     C_R   0.706029 0.086387 0.230304 -0.136550
C102  C     C_R   0.681299 0.172108 0.207750 -0.008389
C103  C     C_R   0.736754 0.206141 0.351980 -0.137435
C104  C     C_R   0.715757 0.231600 0.390637 -0.135440
C105  C     C_R   0.553872 0.235122 0.383957 -0.132470
C106  C     C_R   0.737727 0.581369 0.648394 -0.118453
C107  C     C_R   0.574791 0.210375 0.345329 -0.088524
C108  C     C_R   0.664520 0.199164 0.329082 0.064874
C109  C     C_R   0.622171 0.250360 0.406575 0.017906
C110  C     C_R   0.078993 0.708163 0.095695 0.076725
C111  C     C_R   0.077328 0.625421 0.114466 0.063439
C112  C     C_R   0.102389 0.607707 0.153066 -0.126173
C113  C     C_R   0.131550 0.668662 0.173307 -0.010232
C114  C     C_R   0.144079 0.742958 0.154291 -0.113297
C115  C     C_R   0.118554 0.763292 0.115533 0.076314
C116  C     C_R   0.232458 0.645787 0.231924 -0.122152
Cr1   Cr    Cr6+3 0.421670 0.426920 0.499620 1.004531
Cr2   Cr    Cr6+3 0.427030 0.651190 0.500980 1.036311
Cr3   Cr    Cr6+3 0.651280 0.421870 0.499380 1.006156
Cr4   Cr    Cr6+3 0.910810 0.908010 0.001130 1.051169
Cr5   Cr    Cr6+3 0.682800 0.909890 0.998370 1.005662
Cr6   Cr    Cr6+3 0.908370 0.682300 0.002180 1.024022
H1    H     H_    0.789621 0.501770 0.594934 0.130042
H2    H     H_    0.879937 0.037446 0.900826 0.135447
H3    H     H_    0.825518 0.166284 0.651861 0.135669
H4    H     H_    0.669028 0.046274 0.705802 0.132216
H5    H     H_    0.474758 0.273148 0.606260 0.140034
H6    H     H_    0.865988 0.086599 0.833940 0.134899
H7    H     H_    0.475690 0.750306 0.599437 0.129007
H8    H     H_    0.780276 0.219053 0.585248 0.130990
H9    H     H_    0.050593 0.576475 0.906278 0.135418
H10   H     H_    0.324654 0.605089 0.721035 0.123861
H11   H     H_    0.177815 0.773452 0.835279 0.115607
H12   H     H_    0.991181 0.689517 0.779490 0.144491
H13   H     H_    0.182337 0.786387 0.669829 0.111373
H14   H     H_    0.868103 0.566124 0.897499 0.136912
H15   H     H_    0.238284 0.773449 0.603503 0.133365
H16   H     H_    0.245128 0.484770 0.591034 0.119721
H17   H     H_    0.584793 0.883372 0.100374 0.125768
H18   H     H_    0.806850 0.559246 0.096134 0.123629
H19   H     H_    0.808323 0.533858 0.338306 0.117128
H20   H     H_    0.679020 0.543901 0.284715 0.130021
H21   H     H_    0.674035 0.556211 0.215235 0.134631
H22   H     H_    0.558614 0.870497 0.168558 0.101539
H23   H     H_    0.665657 0.836198 0.293667 0.149418
H24   H     H_    0.810643 0.531826 0.661858 0.133112
H25   H     H_    0.662891 0.847968 0.224126 0.114442
H26   H     H_    0.782725 0.547096 0.164244 0.108628
H27   H     H_    0.780261 0.492863 0.402390 0.141473
H28   H     H_    0.557417 0.101145 0.098626 0.141860
H29   H     H_    0.518535 0.205629 0.327553 0.125134
H30   H     H_    0.496584 0.780380 0.666376 0.128641
H31   H     H_    0.725145 0.013703 0.216928 0.133171
H32   H     H_    0.806752 0.196762 0.339520 0.093532
H33   H     H_    0.769947 0.242456 0.407419 0.122019
H34   H     H_    0.481105 0.249230 0.395350 0.132166
H35   H     H_    0.837553 0.544871 0.831649 0.134610
H36   H     H_    0.294845 0.637225 0.214024 0.084600
H37   H     H_    0.096212 0.547684 0.167597 0.114845
H38   H     H_    0.009110 0.668189 0.294511 0.107161
H39   H     H_    0.993811 0.675110 0.224598 0.122522
H40   H     H_    0.246006 0.486652 0.409171 0.144871
H41   H     H_    0.169302 0.788335 0.170154 0.105869
H42   H     H_    0.560516 0.822645 0.909184 0.132931
H43   H     H_    0.560663 0.134335 0.905190 0.103756
N1    N     N_R   0.755384 0.601775 0.767710 -0.251783
N2    N     N_R   0.750393 0.600073 0.729766 -0.242519
N3    N     N_R   0.577762 0.726417 0.732744 -0.259202
N4    N     N_R   0.582944 0.727891 0.770700 -0.211154
O1    O     O_R   0.502070 0.323090 0.541280 -0.521074
O2    O     O_R   0.520720 0.641670 0.461580 -0.469221
O3    O     O_R   0.674120 0.502090 0.457500 -0.528858
O4    O     O_R   0.640110 0.338380 0.459630 -0.504639
O5    O     O_3   0.499990 0.499990 0.499990 -0.241508
O6    O     O_R   0.017640 0.822070 0.960410 -0.467154
O7    O     O_R   0.822000 0.989470 0.960340 -0.513416
O8    O     O_R   0.666920 0.007430 0.955290 -0.516942
O9    O     O_R   0.694410 0.812480 0.959650 -0.497874
O10   O     O_R   0.831550 0.656950 0.958960 -0.522951
O11   O     O_R   0.998590 0.685540 0.963930 -0.522135
O12   O     O_R   0.338340 0.520690 0.539540 -0.505997
O13   O     O_R   0.008220 0.831200 0.045060 -0.469326
O14   O     O_R   0.813270 0.997930 0.038810 -0.447753
O15   O     O_R   0.657500 0.016560 0.039940 -0.533876
O16   O     O_R   0.685680 0.820940 0.038120 -0.504374
O17   O     O_R   0.822130 0.666070 0.043610 -0.506922
O18   O     O_R   0.989860 0.694000 0.042400 -0.466199
O19   O     O_3   0.833990 0.833400 0.000560 -0.251783
O20   O     O_R   0.324760 0.674070 0.543580 -0.524621
O21   O     O_R   0.522400 0.640310 0.540110 -0.503106
O22   O     O_R   0.675940 0.500630 0.542210 -0.518983
O23   O     O_R   0.641790 0.337020 0.538150 -0.497692
O24   O     O_R   0.500260 0.324550 0.456580 -0.517870
O25   O     O_R   0.336660 0.522040 0.461020 -0.513693
O26   O     O_R   0.322940 0.675540 0.458880 -0.463251
N5    N     N_3   0.742966 0.306504 0.714413 -0.625496
H44   H     H_    0.688071 0.379402 0.724216 0.242527
H45   H     H_    0.814999 0.292242 0.723352 0.262944
O27   O     O_3   0.757696 0.274939 0.794186 -0.571011
C117  C     C_3   0.671426 0.362697 0.809464 -0.012980
H46   H     H_    0.624962 0.341496 0.827886 0.136606
H47   H     H_    0.622184 0.414143 0.786365 0.133687
C118  C     C_3   0.708386 0.421352 0.833883 -0.358928
H48   H     H_    0.758622 0.439343 0.816378 0.181073
H49   H     H_    0.642369 0.493981 0.844627 0.087507
H50   H     H_    0.752476 0.374178 0.858641 0.153514
O28   O     O_3   0.524243 0.195409 0.828830 -0.574381
C119  C     C_3   0.438211 0.209540 0.850045 -0.027592
H51   H     H_    0.418173 0.269139 0.872671 0.123744
H52   H     H_    0.452107 0.136317 0.862825 0.132529
C120  C     C_3   0.346994 0.244798 0.823529 -0.381596
H53   H     H_    0.364513 0.186359 0.800767 0.147048
H54   H     H_    0.279355 0.255687 0.840092 0.100106
H55   H     H_    0.328095 0.318432 0.810070 0.145828
O29   O     O_3   0.669618 0.009250 0.781169 -0.548144
C121  C     C_3   0.587130 0.003547 0.764675 -0.008918
H56   H     H_    0.613204 0.955156 0.738312 0.136716
H57   H     H_    0.520984 0.080735 0.757991 0.152767
C122  C     C_3   0.550820 0.952526 0.792749 -0.303786
H58   H     H_    0.521525 0.999307 0.819239 0.173824
H59   H     H_    0.488783 0.943252 0.779764 0.141768
H60   H     H_    0.616254 0.876482 0.800241 0.203166
O30   O     O_3   0.502239 0.226855 0.678535 -0.578449
C123  C     C_3   0.446077 0.327124 0.693995 -0.012063
H61   H     H_    0.397015 0.381732 0.671627 0.160091
H62   H     H_    0.497147 0.353808 0.706161 0.131101
C124  C     C_3   0.378187 0.327567 0.726214 -0.367275
H63   H     H_    0.426775 0.276282 0.749351 0.163387
H64   H     H_    0.330961 0.406345 0.737999 0.118161
H65   H     H_    0.326628 0.300330 0.715457 0.176632
O31   O     O_3   0.147599 0.819829 0.910867 -0.539143
C125  C     C_3   0.117685 0.911269 0.890543 -0.004406
H66   H     H_    0.046824 0.935704 0.873526 0.112961
H67   H     H_    0.180782 0.900670 0.871235 0.121853
C126  C     C_3   0.096916 0.996815 0.918885 -0.362766
H68   H     H_    0.167440 0.976852 0.935258 0.156102
H69   H     H_    0.072522 0.069368 0.903303 0.086942
H70   H     H_    0.035227 0.008385 0.939182 0.160247
N6    N     N_3   0.184575 0.478675 0.662621 -0.644467
H71   H     H_    0.211850 0.415939 0.643827 0.217270
H72   H     H_    0.106211 0.506380 0.666064 0.252333
O32   O     O_3   0.326167 0.604660 0.795805 -0.581723
C127  C     C_3   0.372190 0.504296 0.810731 -0.005563
H73   H     H_    0.435631 0.451078 0.791416 0.134218
H74   H     H_    0.318338 0.474546 0.814134 0.139648
C128  C     C_3   0.415168 0.503755 0.850111 -0.380022
H75   H     H_    0.351974 0.552917 0.870194 0.163803
H76   H     H_    0.456235 0.424360 0.861314 0.105355
H77   H     H_    0.468893 0.533583 0.848399 0.139798
N7    N     N_3   0.987300 0.692083 0.703200 -0.628265
H78   H     H_    0.929237 0.766113 0.710598 0.235871
H79   H     H_    0.961052 0.641511 0.709682 0.242225
N8    N     N_3   0.089496 0.522669 0.833333 -0.642949
H80   H     H_    0.013503 0.540496 0.836903 0.230942
H81   H     H_    0.136317 0.452989 0.846955 0.220770
O33   O     O_3   0.518261 0.848359 0.342197 -0.587431
C129  C     C_3   0.536511 0.923523 0.358893 -0.019751
H82   H     H_    0.617262 0.904553 0.354398 0.135371
H83   H     H_    0.520619 0.931446 0.390213 0.137227
C130  C     C_3   0.466167 0.026510 0.340608 -0.358345
H84   H     H_    0.385229 0.045127 0.343088 0.153758
H85   H     H_    0.474290 0.087274 0.355509 0.100337
H86   H     H_    0.486415 0.024254 0.309906 0.171676
N9    N     N_3   0.461701 0.789082 0.411324 -0.598692
H87   H     H_    0.419550 0.752172 0.406690 0.273348
H88   H     H_    0.419830 0.859756 0.397900 0.253057
O34   O     O_3   0.858173 0.105430 0.084726 -0.495461
C131  C     C_3   0.831431 0.193626 0.062862 0.010385
H89   H     H_    0.811669 0.260762 0.081920 0.134128
H90   H     H_    0.765534 0.212065 0.043669 0.105251
C132  C     C_3   0.922307 0.174049 0.037947 -0.352936
H91   H     H_    0.942814 0.108113 0.018290 0.156828
H92   H     H_    0.902465 0.243093 0.020696 0.081713
H93   H     H_    0.989259 0.156634 0.056173 0.162602
N10   N     N_3   0.627063 0.372441 0.282097 -0.609935
H94   H     H_    0.688208 0.363583 0.298872 0.220894
H95   H     H_    0.563284 0.395212 0.299854 0.248900
O35   O     O_3   0.632235 0.351142 0.202643 -0.557033
C133  C     C_3   0.525475 0.408378 0.196647 0.004182
H96   H     H_    0.483679 0.441177 0.224096 0.169350
H97   H     H_    0.496927 0.360269 0.183178 0.147451
C134  C     C_3   0.501871 0.496400 0.169787 -0.384483
H98   H     H_    0.545347 0.466063 0.142587 0.160147
H99   H     H_    0.418771 0.539124 0.163265 0.094948
H100  H     H_    0.523498 0.549751 0.183321 0.149357
N11   N     N_3   0.845155 0.161510 0.160589 -0.591720
H101  H     H_    0.876684 0.110163 0.183240 0.222257
H102  H     H_    0.813786 0.236144 0.171425 0.254822
O36   O     O_3   0.722402 0.010470 0.291904 -0.566013
C135  C     C_3   0.828128 0.952060 0.299836 -0.009375
H103  H     H_    0.858313 0.000708 0.311619 0.124428
H104  H     H_    0.871783 0.912115 0.273426 0.133735
C136  C     C_3   0.845626 0.871896 0.329665 -0.383712
H105  H     H_    0.823776 0.816847 0.318031 0.138762
H106  H     H_    0.927661 0.828872 0.337718 0.085010
H107  H     H_    0.799135 0.909770 0.355690 0.157301
N12   N     N_3   0.519327 0.159670 0.171095 -0.641500
H108  H     H_    0.452177 0.214863 0.157904 0.224277
H109  H     H_    0.519712 0.090055 0.170438 0.226759
N13   N     N_3   0.046410 0.561110 0.095129 -0.595012
H110  H     H_    0.106106 0.485115 0.096944 0.214085
H111  H     H_    0.982882 0.566961 0.109544 0.231957
N14   N     N_3   0.129611 0.841826 0.096763 -0.568034
H112  H     H_    0.188313 0.805455 0.076478 0.221643
H113  H     H_    0.153343 0.879028 0.116076 0.223756
N15   N     N_3   0.145084 0.827598 0.331886 -0.632244
H114  H     H_    0.065945 0.868009 0.327667 0.197868
H115  H     H_    0.163796 0.876716 0.346451 0.265482
O37   O     O_3   0.330019 0.627078 0.290091 -0.550980
C137  C     C_3   0.366815 0.689072 0.274718 -0.018775
H116  H     H_    0.303878 0.765320 0.265124 0.134069
H117  H     H_    0.419500 0.648342 0.250318 0.130807
C138  C     C_3   0.426178 0.708627 0.305368 -0.332395
H118  H     H_    0.491390 0.634829 0.315247 0.160308
H119  H     H_    0.455702 0.756746 0.293309 0.156415
H120  H     H_    0.375400 0.749669 0.330139 0.187500
O38   O     O_3   0.179779 0.489209 0.339548 -0.547151
C139  C     C_3   0.096035 0.483473 0.354743 -0.016159
H121  H     H_    0.024408 0.559908 0.354880 0.113555
H122  H     H_    0.112769 0.453145 0.384389 0.125172
C140  C     C_3   0.077329 0.410921 0.330071 -0.367162
H123  H     H_    0.146715 0.333416 0.329548 0.159203
H124  H     H_    0.012149 0.405072 0.341932 0.084391
H125  H     H_    0.058737 0.440303 0.300390 0.159142
O39   O     O_3   0.206968 0.809014 0.409408 -0.552794
C141  C     C_3   0.114397 0.871783 0.429293 -0.007874
H126  H     H_    0.101721 0.827777 0.452031 0.130356
H127  H     H_    0.048087 0.904514 0.409340 0.114045
C142  C     C_3   0.119765 0.960125 0.448273 -0.363521
H128  H     H_    0.131221 0.006266 0.426255 0.146822
H129  H     H_    0.047288 0.010243 0.464025 0.088173
H130  H     H_    0.184483 0.929904 0.468747 0.168669
O40   O     O_3   0.505392 0.813709 0.839532 -0.579594
C143  C     C_3   0.442299 0.769414 0.839612 0.010205
H131  H     H_    0.415048 0.769175 0.869198 0.134002
H132  H     H_    0.482499 0.689390 0.827986 0.151008
C144  C     C_3   0.350313 0.833494 0.814320 -0.352803
H133  H     H_    0.375974 0.839652 0.785181 0.185808
H134  H     H_    0.302976 0.796692 0.811795 0.132133
H135  H     H_    0.303453 0.911788 0.826691 0.127682

loop_
_geom_bond_atom_site_label_1
_geom_bond_atom_site_label_2
_ccdc_geom_bond_type
C135  C136  S    
C3    O37   S    
Cr6   O18   S    
O30   C123  S    
C121  C122  S    
C87   C88   A    
C114  C115  A    
C39   C41   A    
O40   C143  S    
C118  H49   S    
C134  H98   S    
C36   H2    S    
C5    C6    A    
C54   C63   S    
N7    H79   S    
C132  H91   S    
C34   C35   A    
C61   C63   A    
C110  C111  A    
C137  H116  S    
Cr1   O1    S    
N10   H94   S    
C81   H25   S    
C50   C52   A    
C141  H126  S    
C4    C12   S    
C16   O10   A    
C65   H15   S    
C83   C88   A    
O27   C117  S    
C11   N15   S    
C91   O34   S    
Cr4   O19   S    
C144  H133  S    
Cr6   O10   S    
C137  H117  S    
C53   H11   S    
N14   H113  S    
C1    O12   A    
N5    H44   S    
C35   C36   A    
O29   C121  S    
C37   C38   A    
Cr4   O6    S    
Cr6   O19   S    
C124  H63   S    
C40   O23   A    
C96   H28   S    
C141  C142  S    
C125  H67   S    
N15   H114  S    
C13   C21   A    
C44   O30   S    
C121  H56   S    
C94   C96   A    
Cr2   O26   S    
C23   N2    A    
N3    N4    A    
C131  H90   S    
C144  H135  S    
N13   H110  S    
C72   H22   S    
C139  C140  S    
C143  H131  S    
C4    C5    A    
C6    C7    A    
C75   H26   S    
C8    O38   S    
C83   O33   S    
C51   O26   A    
C64   C65   A    
N11   H102  S    
C143  C144  S    
C77   C82   A    
C133  H97   S    
C56   H9    S    
Cr1   O24   S    
C22   N1    A    
C117  H47   S    
C111  N13   S    
C31   C36   A    
Cr4   O13   S    
C19   O16   A    
C17   O6    A    
C111  C112  A    
C97   C98   A    
C138  H118  S    
C53   C54   A    
C99   C108  S    
C105  C107  A    
Cr2   O2    S    
C121  H57   S    
C3    C116  A    
Cr3   O5    S    
N8    H80   S    
Cr2   O20   S    
C138  H119  S    
C16   C30   S    
C40   C49   S    
C129  H82   S    
C125  H66   S    
C139  H122  S    
C42   O29   S    
C99   C100  A    
N9    H87   S    
C27   O40   S    
C107  C108  A    
C29   O22   A    
C107  H29   S    
C140  H125  S    
C66   C67   A    
N12   H109  S    
C35   H6    S    
C16   O9    A    
C57   C63   A    
C38   C39   A    
Cr3   O23   S    
C29   C84   S    
C10   C14   A    
C91   C92   A    
C24   H35   S    
Cr5   O8    S    
C2    C106  A    
C50   C56   A    
C55   N8    S    
C84   C95   A    
C7    C116  A    
C77   H21   S    
C116  H36   S    
C136  H105  S    
C95   C106  A    
C103  H32   S    
C31   C32   A    
C66   H16   S    
C6    H39   S    
C8    C12   A    
C5    H38   S    
O36   C135  S    
N6    H72   S    
C18   O14   A    
C21   H7    S    
Cr5   O15   S    
C20   C110  S    
C124  H64   S    
C26   C30   A    
C15   O8    A    
C126  H70   S    
C3    C4    A    
C52   C53   A    
C95   H1    S    
C105  C109  A    
C54   C55   A    
C33   O28   S    
C127  C128  S    
C34   C43   S    
C24   C28   A    
C130  H84   S    
C46   H8    S    
O34   C131  S    
C52   O31   S    
C15   C31   S    
C134  H99   S    
C129  C130  S    
C71   C72   A    
C122  H60   S    
C57   C58   A    
C67   N6    S    
C100  C101  A    
C38   N5    S    
C104  H33   S    
C10   C11   A    
C44   C48   A    
C59   C60   A    
C120  H55   S    
Cr2   O5    S    
C134  H100  S    
C2    C23   S    
O35   C133  S    
C141  H127  S    
C128  H77   S    
C1    O20   A    
C132  H93   S    
C55   C56   A    
C101  C102  A    
C73   O24   A    
C41   C42   A    
N6    H71   S    
C123  H61   S    
C40   O1    A    
C77   C78   A    
Cr6   O11   S    
C62   O2    A    
C46   C49   A    
C26   C27   A    
C15   O7    A    
C136  H107  S    
C78   H20   S    
C127  H73   S    
C98   C99   A    
C62   C89   S    
C135  H103  S    
N12   H108  S    
C128  H75   S    
Cr4   O7    S    
C58   H10   S    
C119  H51   S    
N15   H115  S    
C126  H68   S    
C70   C71   A    
C97   C102  A    
C22   C28   S    
C32   H43   S    
C74   C82   S    
C130  H86   S    
C79   C88   S    
C144  H134  S    
N13   H111  S    
C61   H12   S    
C47   H3    S    
C118  H50   S    
O28   C119  S    
C18   C90   S    
C10   O39   S    
C72   C74   A    
C122  H58   S    
C85   C89   A    
C86   C87   A    
C58   C59   A    
C1    C69   S    
C67   C68   A    
C60   C61   A    
C37   C43   A    
C9    C14   A    
C100  O36   S    
C14   C51   S    
C21   C84   A    
C45   C49   A    
O32   C127  S    
C90   C96   A    
C92   N11   S    
C80   H23   S    
C83   C85   A    
C42   C43   A    
C85   N9    S    
C123  C124  S    
C64   C68   A    
C44   C45   A    
C113  C114  A    
C25   C30   A    
C46   C47   A    
C41   H4    S    
C13   H30   S    
C86   C89   A    
C93   C102  S    
C73   C109  S    
C140  H123  S    
C32   C33   A    
N7    H78   S    
C133  H96   S    
C19   O17   A    
Cr3   O4    S    
Cr5   O19   S    
Cr2   O21   S    
C90   C91   A    
N11   H101  S    
C119  C120  S    
C65   C69   A    
C92   C93   A    
Cr1   O12   S    
O39   C141  S    
C22   N4    A    
Cr6   O17   S    
C98   N10   S    
C23   N3    A    
C131  H89   S    
N9    H88   S    
C103  C104  A    
C29   O21   A    
C115  N14   S    
C110  C115  A    
C39   C48   S    
C137  C138  S    
Cr1   O5    S    
C118  H48   S    
C93   C94   A    
C112  H37   S    
C142  H128  S    
C75   C76   A    
C81   C82   A    
O37   C137  S    
C57   O32   S    
N10   H95   S    
Cr3   O22   S    
C104  C109  A    
C143  H132  S    
C66   C69   A    
C133  C134  S    
C26   H42   S    
C2    C13   A    
C25   H14   S    
Cr1   O25   S    
C120  H53   S    
C8    C9    A    
C140  H124  S    
C103  C108  A    
C18   O15   A    
Cr3   O3    S    
C64   H13   S    
N14   H112  S    
C60   N7    S    
C126  H69   S    
O38   C139  S    
C112  C113  A    
C76   H18   S    
C128  H76   S    
C74   C75   A    
C24   C25   A    
C130  H85   S    
C86   H27   S    
N8    H81   S    
C78   C79   A    
C117  H46   S    
C138  H120  S    
C71   H17   S    
C127  H74   S    
C125  C126  S    
C87   H19   S    
C129  H83   S    
C97   O35   S    
C139  H121  S    
C59   C68   S    
C122  H59   S    
C47   C48   A    
C131  C132  S    
C101  H31   S    
O33   C129  S    
C105  H34   S    
C33   C34   A    
C142  H129  S    
C17   O11   A    
C120  H54   S    
C70   C76   A    
N1    N2    A    
C142  H130  S    
O31   C125  S    
C20   O13   A    
C132  H92   S    
C80   C81   A    
C51   O25   A    
C123  H62   S    
C17   C50   S    
C11   C12   A    
Cr5   O9    S    
C62   O3    A    
C106  H24   S    
C7    C113  S    
C136  H106  S    
C20   O18   A    
C114  H41   S    
C45   H5    S    
C117  C118  S    
C135  H104  S    
C37   O27   S    
C94   N12   S    
C73   O4    A    
C9    H40   S    
Cr4   O14   S    
N5    H45   S    
Cr5   O16   S    
C79   C80   A    
C124  H65   S    
C119  H52   S    
C27   C28   A    
C19   C70   S    
