data_mof_unit_44608.cif
_audit_creation_date              2012-12-10T18:10:19-0500
_audit_creation_method            fapswitch 2.2
_symmetry_space_group_name_H-M    P1
_symmetry_Int_Tables_number       1
_space_group_crystal_system       triclinic
_cell_length_a                    11.340121
_cell_length_b                    9.767089
_cell_length_c                    15.815779
_cell_angle_alpha                 90.747646
_cell_angle_beta                  91.399099
_cell_angle_gamma                 90.17673
_cell_volume                      1751.07374091

loop_
_atom_site_label
_atom_site_type_symbol
_atom_type_description
_atom_site_fract_x
_atom_site_fract_y
_atom_site_fract_z
_atom_type_partial_charge
C1    C     C_R   0.261199 0.498635 0.490079 0.779421
C2    C     C_3   0.617124 0.518424 0.951889 -0.590460
C3    C     C_3   0.626425 0.491399 0.049335 0.866383
C4    C     C_1   0.492665 0.501627 0.823940 0.085059
C5    C     C_1   0.495570 0.496097 0.175515 0.111029
C6    C     C_1   0.496888 0.497137 0.251300 -0.180909
C7    C     C_3   0.078544 0.633699 0.524830 0.133506
C8    C     C_3   0.074732 0.376350 0.541731 0.197172
C9    C     C_3   0.944393 0.638302 0.543748 0.691732
C10   C     C_3   0.934600 0.381383 0.550046 0.648010
C11   C     C_3   0.059246 0.467367 0.394251 0.676576
C12   C     C_3   0.122398 0.495705 0.484184 -0.345673
C13   C     C_3   0.880824 0.507224 0.499771 -0.299403
C14   C     C_R   0.499081 0.499184 0.341130 0.762763
C15   C     C_3   0.919801 0.494049 0.402090 0.541746
C16   C     C_3   0.624203 0.084552 0.511762 0.740707
C17   C     C_3   0.619085 0.918400 0.526222 0.676577
C18   C     C_3   0.440976 0.085697 0.578999 0.235276
C19   C     C_3   0.423408 0.919760 0.570855 0.209489
C20   C     C_3   0.432907 0.076979 0.428130 0.270917
C21   C     C_3   0.453969 0.916028 0.420644 0.251282
C22   C     C_R   0.740327 0.502051 0.501636 0.846157
C23   C     C_R   0.499166 0.500718 0.658840 0.717117
C24   C     C_3   0.434121 0.633093 0.050292 0.548421
C25   C     C_3   0.425565 0.365240 0.046001 0.555046
C26   C     C_3   0.439945 0.356754 0.946564 0.762743
C27   C     C_3   0.410147 0.620903 0.950831 0.694315
C28   C     C_1   0.496367 0.502023 0.748392 -0.218202
C29   C     C_3   0.494777 0.495844 0.082639 -0.119372
C30   C     C_3   0.488509 0.499353 0.916480 -0.121092
Cu1   Cu    Cu3+1 0.499860 0.642410 0.500040 1.001828
Cu2   Cu    Cu3+1 0.499860 0.357590 0.500040 1.069611
H1    H     H_    0.500787 0.099558 0.635169 0.123511
H2    H     H_    0.453660 0.875502 0.632075 0.176800
H3    H     H_    0.336723 0.088849 0.441630 0.150736
H4    H     H_    0.366472 0.868702 0.408943 0.117275
H5    H     H_    0.646346 0.624386 0.937924 0.233405
H6    H     H_    0.678749 0.449456 0.917982 0.209983
H7    H     H_    0.122665 0.623842 0.587118 0.128002
H8    H     H_    0.116790 0.394836 0.605395 0.109489
N1    N     N_3   0.500250 0.143650 0.501830 -0.275154
N2    N     N_3   0.500250 0.856350 0.501830 -0.275445
O1    O     O_R   0.317570 0.620260 0.500050 -0.537324
O2    O     O_R   0.317570 0.379740 0.500050 -0.490357
O3    O     O_R   0.499890 0.620310 0.379470 -0.556063
O4    O     O_R   0.499890 0.379690 0.379470 -0.507759
O5    O     O_R   0.682190 0.620260 0.500020 -0.539961
O6    O     O_R   0.682190 0.379740 0.500020 -0.450306
O7    O     O_R   0.499870 0.620210 0.620600 -0.590812
O8    O     O_R   0.499870 0.379790 0.620600 -0.563336
O9    O     O_3   0.287794 0.590628 0.934712 -0.561946
C31   C     C_3   0.239158 0.647268 0.859766 -0.222198
H9    H     H_    0.157889 0.589256 0.841931 0.183242
H10   H     H_    0.298669 0.640593 0.805402 0.164180
H11   H     H_    0.213271 0.755357 0.871165 0.132987
O10   O     O_3   0.329574 0.330821 0.903193 -0.549570
C32   C     C_3   0.291066 0.193140 0.907374 -0.245380
H12   H     H_    0.206722 0.183637 0.870751 0.160117
H13   H     H_    0.272182 0.162816 0.972865 0.184059
H14   H     H_    0.353557 0.120670 0.877817 0.149821
O11   O     O_3   0.897163 0.762084 0.516574 -0.689351
H15   H     H_    0.911834 0.778084 0.456916 0.371531
O12   O     O_3   0.881542 0.263215 0.515164 -0.662995
H16   H     H_    0.918377 0.236382 0.461565 0.403326
O13   O     O_3   0.105704 0.549830 0.330905 -0.755943
H17   H     H_    0.188312 0.520208 0.322057 0.298325
O14   O     O_3   0.078164 0.329879 0.368892 -0.719673
H18   H     H_    0.060949 0.320676 0.307198 0.328990
O15   O     O_3   0.889946 0.614009 0.358117 -0.756376
H19   H     H_    0.802594 0.620021 0.354202 0.348842
O16   O     O_3   0.855849 0.385924 0.362041 -0.722867
H20   H     H_    0.868058 0.391876 0.300272 0.330941
O17   O     O_3   0.680112 0.153009 0.583702 -0.544737
C33   C     C_3   0.783458 0.090230 0.618913 -0.144043
H21   H     H_    0.851686 0.161086 0.640076 0.196982
H22   H     H_    0.826905 0.020093 0.574029 0.209594
H23   H     H_    0.764077 0.047939 0.681677 0.139474
O18   O     O_3   0.635096 0.898616 0.616085 -0.684271
C34   C     C_3   0.709970 0.798813 0.649268 -0.116568
H24   H     H_    0.797894 0.825829 0.633852 0.232392
H25   H     H_    0.688337 0.693899 0.632804 0.214230
H26   H     H_    0.705708 0.804934 0.719195 0.119885
O19   O     O_3   0.692092 0.118907 0.441361 -0.641031
H27   H     H_    0.654151 0.083859 0.388755 0.348041
O20   O     O_3   0.709997 0.858058 0.481794 -0.659954
H28   H     H_    0.704294 0.875546 0.420839 0.354816
O21   O     O_3   0.458189 0.139342 0.350232 -0.528920
C35   C     C_3   0.353399 0.167835 0.303064 -0.283852
H29   H     H_    0.302633 0.250728 0.334123 0.207207
H30   H     H_    0.296854 0.075147 0.294334 0.121925
H31   H     H_    0.377672 0.203685 0.239636 0.192260
O22   O     O_3   0.529983 0.883345 0.353015 -0.590250
C36   C     C_3   0.470252 0.857807 0.274632 -0.141747
H32   H     H_    0.463102 0.952611 0.237421 0.185908
H33   H     H_    0.382508 0.807920 0.279936 0.126763
H34   H     H_    0.525394 0.787324 0.237154 0.225888
O23   O     O_3   0.334243 0.156154 0.593586 -0.514511
C37   C     C_3   0.318914 0.197839 0.679290 -0.191172
H35   H     H_    0.280488 0.301977 0.679766 0.178257
H36   H     H_    0.399971 0.203975 0.720057 0.133195
H37   H     H_    0.254600 0.130284 0.709732 0.108363
O24   O     O_3   0.303660 0.884273 0.561508 -0.520081
C38   C     C_3   0.256444 0.853090 0.641799 -0.201183
H38   H     H_    0.296378 0.911009 0.696342 0.088229
H39   H     H_    0.267179 0.742481 0.654640 0.160807
H40   H     H_    0.163993 0.882140 0.641459 0.159995
O25   O     O_3   0.330569 0.663539 0.095625 -0.759511
H41   H     H_    0.264860 0.602250 0.078539 0.385549
O26   O     O_3   0.304861 0.373587 0.064668 -0.750783
H42   H     H_    0.297199 0.360697 0.126448 0.318642
O27   O     O_3   0.472387 0.246285 0.083898 -0.710766
H43   H     H_    0.420139 0.167889 0.068557 0.331576
O28   O     O_3   0.513742 0.742266 0.067050 -0.680345
H44   H     H_    0.468746 0.829248 0.069627 0.344636
O29   O     O_3   0.523026 0.253706 0.926839 -0.713157
H45   H     H_    0.527610 0.246460 0.864358 0.308607
O30   O     O_3   0.444523 0.744395 0.911970 -0.744661
H46   H     H_    0.393627 0.818736 0.933810 0.317609
O31   O     O_3   0.696524 0.595923 0.090668 -0.557402
C39   C     C_3   0.813423 0.602996 0.061060 -0.261403
H47   H     H_    0.820415 0.687943 0.015516 0.172618
H48   H     H_    0.845097 0.506914 0.030822 0.172582
H49   H     H_    0.873761 0.626747 0.115586 0.201933
O32   O     O_3   0.678195 0.358894 0.060261 -0.552562
C40   C     C_3   0.719301 0.331326 0.143810 -0.158638
H50   H     H_    0.723214 0.420784 0.187685 0.160305
H51   H     H_    0.809813 0.289201 0.140636 0.152263
H52   H     H_    0.662853 0.251881 0.171920 0.220427
O33   O     O_3   0.122316 0.764021 0.499486 -0.531596
C41   C     C_3   0.133351 0.791273 0.412868 -0.111781
H53   H     H_    0.052712 0.772930 0.374498 0.212031
H54   H     H_    0.210199 0.738332 0.386537 0.175116
H55   H     H_    0.151682 0.902312 0.406955 0.142138
O34   O     O_3   0.116171 0.246818 0.512275 -0.493961
C42   C     C_3   0.085920 0.136432 0.564529 -0.154641
H56   H     H_    0.009003 0.079397 0.538680 0.163264
H57   H     H_    0.074698 0.165252 0.632084 0.123310
H58   H     H_    0.154142 0.059227 0.558414 0.254027
O35   O     O_3   0.927427 0.631919 0.632781 -0.585653
C43   C     C_3   0.983265 0.733292 0.684744 -0.381085
H59   H     H_    0.986884 0.834216 0.653889 0.178085
H60   H     H_    0.930348 0.747257 0.742262 0.165044
H61   H     H_    0.070388 0.697809 0.708492 0.145791
O36   O     O_3   0.921009 0.384777 0.640902 -0.590928
C44   C     C_3   0.807927 0.400262 0.676975 -0.210344
H62   H     H_    0.734258 0.364075 0.638233 0.216658
H63   H     H_    0.789628 0.505951 0.698138 0.167068
H64   H     H_    0.806893 0.339336 0.735663 0.147532

loop_
_geom_bond_atom_site_label_1
_geom_bond_atom_site_label_2
_ccdc_geom_bond_type
C42   H58   S    
C22   O6    A    
O21   C35   S    
C36   H32   S    
Cu1   N2    S    
O24   C38   S    
O17   C33   S    
O27   H43   S    
C2    H5    S    
C24   C27   S    
C10   O12   S    
O23   C37   S    
C42   H56   S    
C14   O4    A    
C21   H4    S    
O20   H28   S    
C39   H47   S    
Cu1   O1    S    
C9    O11   S    
C43   H60   S    
O33   C41   S    
C5    C6    T    
C19   O24   S    
C32   H13   S    
O29   H45   S    
C20   O21   S    
O10   C32   S    
C42   H57   S    
C18   C19   S    
C3    C29   S    
C9    C13   S    
C17   N2    S    
O22   C36   S    
C4    C28   T    
C26   O29   S    
C20   H3    S    
C11   C15   S    
C1    O1    A    
Cu1   Cu2   S    
C11   O14   S    
C16   C17   S    
C33   H23   S    
C40   H52   S    
Cu2   N1    S    
C43   H61   S    
C18   O23   S    
C31   H11   S    
C25   O26   S    
C22   O5    A    
C24   O28   S    
C36   H33   S    
Cu1   O5    S    
C27   C30   S    
Cu2   O6    S    
O15   H19   S    
C1    C12   S    
Cu1   O7    S    
C20   N1    S    
C44   H63   S    
C31   H10   S    
C44   H62   S    
C14   O3    A    
C5    C29   S    
C27   O30   S    
C25   C29   S    
C7    C12   S    
C15   O15   S    
C33   H21   S    
C8    O34   S    
O9    C31   S    
C43   H59   S    
C18   N1    S    
C34   H25   S    
O18   C34   S    
C23   O8    A    
C25   C26   S    
O12   H16   S    
C19   H2    S    
C16   O19   S    
O14   H18   S    
C41   H54   S    
C6    C14   S    
C2    H6    S    
C1    O2    A    
O19   H27   S    
C35   H31   S    
C8    C12   S    
C16   O17   S    
Cu2   O2    S    
C38   H39   S    
C24   O25   S    
C10   O36   S    
C23   C28   S    
C35   H29   S    
O31   C39   S    
Cu2   O8    S    
C3    O31   S    
C35   H30   S    
C26   C30   S    
C36   H34   S    
C37   H36   S    
C13   C15   S    
C40   H50   S    
C17   O20   S    
C34   H24   S    
C41   H55   S    
C33   H22   S    
O25   H41   S    
C44   H64   S    
C3    O32   S    
C39   H48   S    
O28   H44   S    
C7    C9    S    
Cu2   O4    S    
O36   C44   S    
C32   H14   S    
C10   C13   S    
C26   O10   S    
C34   H26   S    
O35   C43   S    
C39   H49   S    
O34   C42   S    
C37   H37   S    
C15   O16   S    
C2    C30   S    
C2    C3    S    
O16   H20   S    
O30   H46   S    
C9    O35   S    
C19   N2    S    
C32   H12   S    
C17   O18   S    
C27   O9    S    
C13   C22   S    
C41   H53   S    
C38   H40   S    
O13   H17   S    
O11   H15   S    
C18   H1    S    
C7    O33   S    
C23   O7    A    
C25   O27   S    
C21   N2    S    
C24   C29   S    
C20   C21   S    
C8    C10   S    
C37   H35   S    
Cu1   O3    S    
C38   H38   S    
C40   H51   S    
C7    H7    S    
C8    H8    S    
O26   H42   S    
C16   N1    S    
C4    C30   S    
C11   O13   S    
C11   C12   S    
C31   H9    S    
O32   C40   S    
C21   O22   S    
