data_mof_unit_60227.cif
_audit_creation_date              2012-12-10T18:07:45-0500
_audit_creation_method            fapswitch 2.2
_symmetry_space_group_name_H-M    P1
_symmetry_Int_Tables_number       1
_space_group_crystal_system       triclinic
_cell_length_a                    10.672299
_cell_length_b                    12.767809
_cell_length_c                    13.921128
_cell_angle_alpha                 98.13674
_cell_angle_beta                  90.252884
_cell_angle_gamma                 92.504284
_cell_volume                      1875.92180171

loop_
_atom_site_label
_atom_site_type_symbol
_atom_type_description
_atom_site_fract_x
_atom_site_fract_y
_atom_site_fract_z
_atom_type_partial_charge
C1    C     C_R   0.498375 0.483414 0.315987 0.829513
C2    C     C_R   0.501625 0.516586 0.684013 0.829513
C3    C     C_2   0.462498 0.028464 0.474003 0.062301
C4    C     C_2   0.537502 0.971536 0.525997 0.062301
C5    C     C_1   0.526403 0.854329 0.519059 0.258593
C6    C     C_1   0.473597 0.145671 0.480941 0.258593
C7    C     C_R   0.259296 0.501062 0.500050 0.889096
C8    C     C_R   0.740704 0.498938 0.499950 0.889096
C9    C     C_3   0.039347 0.444309 0.418191 -0.001725
C10   C     C_3   0.960653 0.555690 0.581809 -0.001726
C11   C     C_3   0.958739 0.542243 0.423542 0.227728
C12   C     C_3   0.041261 0.457757 0.576458 0.227728
C13   C     C_3   0.876645 0.497096 0.499803 -0.232818
C14   C     C_3   0.123355 0.502904 0.500197 -0.232818
C15   C     C_3   0.956472 0.398847 0.494175 0.266806
C16   C     C_3   0.043528 0.601153 0.505825 0.266806
C17   C     C_1   0.504057 0.526359 0.787101 -0.145506
C18   C     C_1   0.495943 0.473641 0.212899 -0.145506
C19   C     C_2   0.509321 0.543745 0.978144 0.164661
C20   C     C_2   0.490679 0.456255 0.021856 0.164661
C21   C     C_1   0.493494 0.465000 0.126002 0.030865
C22   C     C_1   0.506506 0.535000 0.873997 0.030865
Cu1   Cu    Cu3+1 0.491940 0.395330 0.493960 1.035036
Cu2   Cu    Cu3+1 0.508060 0.604670 0.506040 1.035036
N1    N     N_1   0.479830 0.238040 0.484880 -0.151099
N2    N     N_1   0.520170 0.761960 0.515120 -0.151099
O1    O     O_R   0.492210 0.399110 0.356330 -0.578741
O2    O     O_R   0.507790 0.600890 0.643670 -0.578741
O3    O     O_R   0.505820 0.575890 0.366540 -0.560502
O4    O     O_R   0.494180 0.424110 0.633460 -0.560502
O5    O     O_R   0.310050 0.411620 0.494870 -0.561412
O6    O     O_R   0.689950 0.588380 0.505130 -0.561412
O7    O     O_R   0.323660 0.588400 0.505080 -0.552344
O8    O     O_R   0.676340 0.411600 0.494920 -0.552344
Br1   Br    Br    0.896524 0.601384 0.312551 -0.450370
Br2   Br    Br    0.103476 0.398616 0.687449 -0.450370
C23   C     C_3   0.085862 0.381811 0.324931 -0.698089
H1    H     H_    0.004591 0.349935 0.278149 0.257692
H2    H     H_    0.146135 0.434352 0.285662 0.223877
H3    H     H_    0.141040 0.315123 0.342333 0.244725
C24   C     C_3   0.914138 0.618189 0.675069 -0.698090
H4    H     H_    0.995409 0.650065 0.721850 0.257692
H5    H     H_    0.858960 0.684877 0.657667 0.244725
H6    H     H_    0.853865 0.565648 0.714338 0.223877
Br3   Br    Br    0.896953 0.251963 0.485248 -0.442983
Br4   Br    Br    0.103046 0.748037 0.514752 -0.442983
C25   C     C_3   0.466297 0.347609 0.964688 -0.808064
H7    H     H_    0.453544 0.286433 0.013633 0.237998
H8    H     H_    0.379782 0.346562 0.919852 0.250907
H9    H     H_    0.546871 0.326533 0.916640 0.237961
C26   C     C_3   0.533703 0.652391 0.035312 -0.808064
H10   H     H_    0.546456 0.713567 0.986367 0.237998
H11   H     H_    0.453128 0.673467 0.083360 0.237961
H12   H     H_    0.620218 0.653438 0.080148 0.250907
C27   C     C_3   0.637222 0.027916 0.593647 -0.779189
H13   H     H_    0.689001 0.971018 0.630518 0.237400
H14   H     H_    0.705603 0.071362 0.552172 0.273259
H15   H     H_    0.593649 0.084842 0.650116 0.234426
C28   C     C_3   0.362778 0.972084 0.406353 -0.779189
H16   H     H_    0.310999 0.028982 0.369482 0.237400
H17   H     H_    0.406351 0.915158 0.349884 0.234426
H18   H     H_    0.294396 0.928638 0.447828 0.273259

loop_
_geom_bond_atom_site_label_1
_geom_bond_atom_site_label_2
_ccdc_geom_bond_type
Cu1   O5    S    
C19   C20   D    
C25   H7    S    
C9    C14   S    
Cu2   O6    S    
C20   C25   S    
C8    C13   S    
C7    O7    A    
Cu1   O1    S    
C12   Br2   S    
C18   C21   T    
C9    C11   S    
C11   C16   S    
C24   H5    S    
Cu2   O7    S    
C12   C15   S    
C25   H9    S    
C2    O4    A    
C26   H12   S    
C3    C6    S    
C27   H13   S    
C11   Br1   S    
C9    C15   S    
C28   H16   S    
C23   H2    S    
C8    O8    A    
C2    C17   S    
C11   C13   S    
C1    C18   S    
C23   H1    S    
C10   C16   S    
C10   C12   S    
C9    C23   S    
C12   C14   S    
C23   H3    S    
C27   H14   S    
C13   C15   S    
C24   H6    S    
C14   C16   S    
C1    O3    A    
C28   H17   S    
C6    N1    T    
C7    O5    A    
C15   Br3   S    
Cu1   Cu2   S    
C5    N2    T    
C8    O6    A    
Cu1   O4    S    
C19   C26   S    
Cu1   N1    S    
C26   H10   S    
C20   C21   S    
Cu2   O2    S    
C25   H8    S    
C19   C22   S    
C24   H4    S    
C27   H15   S    
C16   Br4   S    
C4    C27   S    
C1    O1    A    
Cu2   O3    S    
Cu1   O8    S    
C2    O2    A    
C28   H18   S    
C26   H11   S    
C7    C14   S    
C3    C4    D    
C17   C22   T    
Cu2   N2    S    
C4    C5    S    
C10   C24   S    
C10   C13   S    
C3    C28   S    
