data_mof_unit_5549.cif
_audit_creation_date              2012-12-11T15:08:38-0500
_audit_creation_method            fapswitch 2.2
_symmetry_space_group_name_H-M    P1
_symmetry_Int_Tables_number       1
_space_group_crystal_system       triclinic
_cell_length_a                    26.78062
_cell_length_b                    7.09049
_cell_length_c                    12.042173
_cell_angle_alpha                 89.999877
_cell_angle_beta                  103.653363
_cell_angle_gamma                 90.000401
_cell_volume                      2222.04332768

loop_
_atom_site_label
_atom_site_type_symbol
_atom_type_description
_atom_site_fract_x
_atom_site_fract_y
_atom_site_fract_z
_atom_type_partial_charge
O1    O     O_R   0.437360 0.505910 0.042120 -0.539077
O2    O     O_R   0.562640 0.005910 0.957880 -0.539077
O3    O     O_R   0.542480 0.176660 0.157100 -0.541879
O4    O     O_R   0.457520 0.676660 0.842900 -0.541879
C1    C     C_R   0.556515 0.344747 0.197716 0.689630
C2    C     C_R   0.443484 0.844747 0.802284 0.689630
O5    O     O_R   0.436520 0.176250 0.054800 -0.539901
O6    O     O_R   0.563480 0.676250 0.945200 -0.539900
O7    O     O_R   0.455920 0.005040 0.854840 -0.538279
O8    O     O_R   0.544080 0.505040 0.145160 -0.538279
C3    C     C_R   0.417426 0.344153 0.062895 0.687307
C4    C     C_R   0.582574 0.844154 0.937105 0.687307
O9    O     O_3   0.506490 0.338900 0.934520 -0.374293
O10   O     O_3   0.493510 0.838900 0.065480 -0.374294
V1    V     V_3+5 0.498800 0.064400 0.012150 1.427684
V2    V     V_3+5 0.501200 0.564400 0.987850 1.427684
C5    C     C_R   0.681293 0.776048 0.766225 -0.147284
C6    C     C_R   0.318707 0.276011 0.233769 -0.147278
H1    H     H_    0.599013 0.784976 0.727569 0.103267
H2    H     H_    0.400986 0.284943 0.272427 0.103271
H3    H     H_    0.774732 0.719507 0.735178 0.118467
H4    H     H_    0.225267 0.219455 0.264811 0.118470
H5    H     H_    0.681962 0.743148 0.678707 0.125946
H6    H     H_    0.318037 0.243095 0.321285 0.125947
C7    C     C_R   0.632042 0.846212 0.905259 -0.030006
C8    C     C_R   0.367958 0.346206 0.094741 -0.030013
C9    C     C_R   0.868382 0.896047 0.210762 -0.182426
C10   C     C_R   0.131619 0.396076 0.789241 -0.182424
C11   C     C_R   0.822664 0.899617 0.246297 -0.117749
C12   C     C_R   0.177336 0.399655 0.753706 -0.117746
C13   C     C_R   0.775709 0.878491 0.167433 -0.158717
C14   C     C_R   0.224291 0.378515 0.832568 -0.158714
C15   C     C_R   0.773498 0.845968 0.050321 0.059582
C16   C     C_R   0.226502 0.345970 0.949677 0.059578
C17   C     C_R   0.820808 0.826525 0.016277 0.053775
C18   C     C_R   0.179191 0.326518 0.983720 0.053767
C19   C     C_R   0.726069 0.832886 0.965843 0.074318
C20   C     C_R   0.273931 0.332879 0.034155 0.074317
C21   C     C_R   0.727107 0.788252 0.851268 0.157054
C22   C     C_R   0.272893 0.288224 0.148726 0.157043
C23   C     C_R   0.773788 0.755507 0.822149 -0.112199
C24   C     C_R   0.226211 0.255469 0.177843 -0.112202
C25   C     C_R   0.819953 0.776662 0.902800 -0.131334
C26   C     C_R   0.180046 0.276635 0.097193 -0.131341
C27   C     C_R   0.677531 0.863664 0.990515 -0.205208
C28   C     C_R   0.322469 0.363667 0.009485 -0.205204
C29   C     C_R   0.634083 0.802286 0.793407 -0.179133
C30   C     C_R   0.365917 0.302261 0.206589 -0.179133
C31   C     C_R   0.868050 0.859980 0.096496 -0.074769
C32   C     C_R   0.131950 0.359986 0.903503 -0.074773
H7    H     H_    0.673562 0.896962 0.075342 0.095490
H8    H     H_    0.326438 0.396979 0.924661 0.095492
H9    H     H_    0.904304 0.920196 0.272879 0.102016
H10   H     H_    0.095696 0.420237 0.727124 0.102019
H11   H     H_    0.741943 0.886348 0.201212 0.115295
H12   H     H_    0.258057 0.386380 0.798790 0.115295
H13   H     H_    0.823528 0.922851 0.335583 0.139949
H14   H     H_    0.176472 0.422906 0.664422 0.139952
H15   H     H_    0.855059 0.756407 0.874589 0.125149
H16   H     H_    0.144940 0.256372 0.125403 0.125157
C33   C     C_R   0.090667 0.860030 0.311806 -0.032296
C34   C     C_R   0.909333 0.360027 0.688194 -0.032302
C35   C     C_R   0.408779 0.853733 0.688774 -0.030216
C36   C     C_R   0.591221 0.353738 0.311225 -0.030215
C37   C     C_R   0.104886 0.805561 0.514509 -0.167967
C38   C     C_R   0.895114 0.305512 0.485495 -0.167967
C39   C     C_R   0.071528 0.814716 0.406660 -0.183886
C40   C     C_R   0.928472 0.314682 0.593343 -0.183886
C41   C     C_R   0.143266 0.891688 0.324904 -0.149924
C42   C     C_R   0.856735 0.391699 0.675094 -0.149926
C43   C     C_R   0.178609 0.851827 0.429382 0.095272
C44   C     C_R   0.821392 0.351821 0.570618 0.095272
C45   C     C_R   0.158102 0.825776 0.526629 0.131376
C46   C     C_R   0.841899 0.325741 0.473373 0.131377
C47   C     C_R   0.233268 0.842823 0.441457 -0.018454
C48   C     C_R   0.766732 0.342828 0.558543 -0.018451
C49   C     C_R   0.266114 0.846677 0.554531 0.046969
C50   C     C_R   0.733886 0.346663 0.445469 0.046968
C51   C     C_R   0.243321 0.839209 0.649255 -0.182343
C52   C     C_R   0.756680 0.339169 0.350745 -0.182343
C53   C     C_R   0.190636 0.822912 0.635098 -0.206154
C54   C     C_R   0.809364 0.322862 0.364904 -0.206154
C55   C     C_R   0.256623 0.822285 0.346533 -0.042644
C56   C     C_R   0.743377 0.322324 0.653469 -0.042651
C57   C     C_R   0.309757 0.840900 0.363128 -0.266134
C58   C     C_R   0.690242 0.340962 0.636873 -0.266136
C59   C     C_R   0.341701 0.856145 0.471967 0.108503
C60   C     C_R   0.658299 0.356190 0.528033 0.108504
C61   C     C_R   0.320722 0.852917 0.569522 0.086980
C62   C     C_R   0.679278 0.352915 0.430477 0.086980
C63   C     C_R   0.395154 0.863063 0.483781 -0.153217
C64   C     C_R   0.604846 0.363139 0.516220 -0.153216
C65   C     C_R   0.428479 0.861190 0.591604 -0.177651
C66   C     C_R   0.571521 0.361250 0.408396 -0.177651
C67   C     C_R   0.355632 0.852414 0.678329 -0.212261
C68   C     C_R   0.644368 0.352385 0.321669 -0.212258
H17   H     H_    0.175141 0.810854 0.710259 0.140636
H18   H     H_    0.824859 0.310785 0.289743 0.140637
H19   H     H_    0.343254 0.848191 0.757082 0.095577
H20   H     H_    0.656747 0.348117 0.242914 0.095574
H21   H     H_    0.469612 0.863195 0.599291 0.100008
H22   H     H_    0.530387 0.363286 0.400710 0.100008
H23   H     H_    0.327051 0.829878 0.290421 0.169100
H24   H     H_    0.672948 0.329970 0.709582 0.169106
H25   H     H_    0.089223 0.779663 0.588293 0.115885
H26   H     H_    0.910776 0.279591 0.411711 0.115884
H27   H     H_    0.030757 0.791960 0.397589 0.104379
H28   H     H_    0.969243 0.291912 0.602416 0.104382
H29   H     H_    0.155790 0.945123 0.252055 0.100881
H30   H     H_    0.844211 0.445153 0.747939 0.100885
H31   H     H_    0.265086 0.840441 0.736574 0.129255
H32   H     H_    0.734915 0.340392 0.263425 0.129255
H33   H     H_    0.411255 0.865666 0.409217 0.115243
H34   H     H_    0.588745 0.365782 0.590784 0.115240
O11   O     O_R   0.955980 0.206520 0.854760 -0.528278
O12   O     O_R   0.044020 0.706520 0.145240 -0.528277
O13   O     O_R   0.063490 0.536770 0.945200 -0.535690
O14   O     O_R   0.936510 0.036770 0.054800 -0.535689
C69   C     C_R   0.082779 0.368235 0.937741 0.685018
C70   C     C_R   0.917221 0.868234 0.062259 0.685015
O15   O     O_R   0.957530 0.536190 0.842880 -0.549542
O16   O     O_R   0.042470 0.036190 0.157120 -0.549541
O17   O     O_R   0.937350 0.707210 0.042130 -0.544415
O18   O     O_R   0.062650 0.207210 0.957870 -0.544417
C71   C     C_R   0.943587 0.367968 0.802263 0.697663
C72   C     C_R   0.056413 0.867969 0.197737 0.697656
O19   O     O_3   0.993540 0.373870 0.065440 -0.375422
O20   O     O_3   0.006460 0.873870 0.934560 -0.375424
V3    V     V_3+5 0.001200 0.648440 0.987860 1.441702
V4    V     V_3+5 0.998800 0.148440 0.012140 1.441704
C73   C     C_2   0.229481 0.751634 0.232037 0.731947
O21   O     O_2   0.195292 0.634762 0.223382 -0.569277
O22   O     O_R   0.244577 0.812216 0.134312 -0.668317
H35   H     H_    0.223563 0.752301 0.061779 0.295030
C74   C     C_2   0.770516 0.251685 0.767971 0.731948
O23   O     O_2   0.804705 0.134811 0.776635 -0.569279
O24   O     O_R   0.755418 0.312275 0.865691 -0.668317
H36   H     H_    0.776429 0.252363 0.938227 0.295029

loop_
_geom_bond_atom_site_label_1
_geom_bond_atom_site_label_2
_ccdc_geom_bond_type
C38   C40   A    
C56   C74   S    
O16   C72   A    
C59   C63   A    
C61   C67   A    
C9    C11   A    
C23   C25   A    
O1    C3    A    
C44   C48   A    
C58   H24   S    
O20   V3    S    
C48   C56   A    
C2    O7    A    
C18   C32   A    
C74   O23   D    
C21   C23   A    
C69   O18   A    
C50   C62   A    
C55   C73   S    
C49   C61   A    
C5    H5    S    
C68   H20   S    
C6    H6    S    
C10   C32   A    
C20   C22   A    
C38   H26   S    
O13   C69   A    
C58   C60   A    
C31   C70   S    
C27   H7    S    
C38   C46   A    
C35   C67   A    
C37   C45   A    
C34   C42   A    
C5    C21   A    
C45   C53   A    
C41   C43   A    
C6    C22   A    
C42   H30   S    
C41   H29   S    
C47   C55   A    
O12   V3    S    
C60   C64   A    
C37   C39   A    
C17   C31   A    
C13   C15   A    
C33   C72   S    
C17   C25   A    
C7    C29   A    
C16   C18   A    
C57   H23   S    
C70   O17   A    
C25   H15   S    
C57   C59   A    
O2    C4    A    
O6    V2    S    
O12   C72   A    
O17   V3    S    
C54   H18   S    
C24   C26   A    
C46   C54   A    
C37   H25   S    
C49   C51   A    
C43   C47   A    
C11   H13   S    
C48   C50   A    
C32   C69   S    
C36   C68   A    
C44   C46   A    
C65   H21   S    
C51   C53   A    
C10   H10   S    
O5    V1    S    
C3    C8    S    
C73   O22   S    
C15   C19   A    
C63   H33   S    
C1    C36   S    
C6    C30   A    
C14   C16   A    
C2    C35   S    
O4    V2    S    
O5    C3    A    
O19   V3    S    
O15   C71   A    
O14   V4    S    
C63   C65   A    
C33   C39   A    
O6    C4    A    
C52   H32   S    
C64   C66   A    
C50   C52   A    
O18   V4    S    
O1    V2    S    
O2    V1    S    
C47   C49   A    
H2    C30   S    
H3    C23   S    
C52   C54   A    
C55   C57   A    
C60   C62   A    
C59   C61   A    
O22   H35   S    
C18   C26   A    
O4    C2    A    
C19   C27   A    
C73   O21   D    
C7    C27   A    
O13   V3    S    
C43   C45   A    
C33   C41   A    
C74   O24   S    
C16   C20   A    
C5    C29   A    
O15   V3    S    
O3    C1    A    
O20   V4    S    
C34   C71   S    
C9    H9    S    
C62   C68   A    
C8    C30   A    
O24   H36   S    
C35   C65   A    
O11   C71   A    
C51   H31   S    
C4    C7    S    
H1    C29   S    
C10   C12   A    
O7    V1    S    
O19   V4    S    
C36   C66   A    
C1    O8    A    
C11   C13   A    
O8    V2    S    
C28   H8    S    
C12   C14   A    
C39   H27   S    
H4    C24   S    
C53   H17   S    
C26   H16   S    
C12   H14   S    
C22   C24   A    
C15   C17   A    
C14   H12   S    
C67   H19   S    
C34   C40   A    
O14   C70   A    
C20   C28   A    
C8    C28   A    
C66   H22   S    
C19   C21   A    
O9    V2    S    
O10   V1    S    
C56   C58   A    
O3    V1    S    
C42   C44   A    
C40   H28   S    
C13   H11   S    
C64   H34   S    
O16   V4    S    
C9    C31   A    
O11   V4    S    
