data_mof_unit_68419.cif
_audit_creation_date              2012-12-11T14:27:18-0500
_audit_creation_method            fapswitch 2.2
_symmetry_space_group_name_H-M    P1
_symmetry_Int_Tables_number       1
_space_group_crystal_system       triclinic
_cell_length_a                    8.266215
_cell_length_b                    14.937568
_cell_length_c                    15.042949
_cell_angle_alpha                 96.417413
_cell_angle_beta                  99.046549
_cell_angle_gamma                 97.999045
_cell_volume                      1799.46417458

loop_
_atom_site_label
_atom_site_type_symbol
_atom_type_description
_atom_site_fract_x
_atom_site_fract_y
_atom_site_fract_z
_atom_type_partial_charge
Ba1   Ba    Ba6+2 0.154720 0.543770 0.458160 1.712909
Ba2   Ba    Ba6+2 0.655440 0.456220 0.541760 1.670906
C1    C     C_3   0.399258 0.871499 0.160996 0.740554
C2    C     C_R   0.896755 0.792840 0.520459 0.077080
C3    C     C_R   0.083848 0.232626 0.502165 -0.230504
C4    C     C_3   0.926940 0.790301 0.269434 0.389755
C5    C     C_R   0.188388 0.171012 0.523215 0.025155
C6    C     C_R   0.129054 0.077490 0.509400 -0.148507
C7    C     C_R   0.957078 0.043828 0.482917 0.009925
C8    C     C_R   0.853442 0.107517 0.452716 -0.003882
C9    C     C_R   0.884662 0.950042 0.484522 -0.064946
C10   C     C_R   0.713600 0.920813 0.445130 -0.067089
C11   C     C_R   0.619834 0.984173 0.409535 -0.082143
C12   C     C_3   0.440937 0.810185 0.233578 0.359823
C13   C     C_R   0.688407 0.074732 0.412218 -0.028524
C14   C     C_R   0.971181 0.885080 0.528166 0.339085
C15   C     C_R   0.734051 0.765645 0.476181 -0.323529
C16   C     C_3   0.954377 0.885969 0.243247 -0.328313
C17   C     C_R   0.918932 0.202642 0.464125 0.072835
C18   C     C_R   0.232608 0.485242 0.768006 -0.251323
C19   C     C_R   0.131805 0.455602 0.827689 0.032625
C20   C     C_R   0.190286 0.475121 0.922122 -0.007035
C21   C     C_R   0.356342 0.517991 0.957619 0.056810
C22   C     C_R   0.452234 0.550010 0.893942 -0.093258
C23   C     C_3   0.692924 0.750328 0.762728 0.721978
C24   C     C_R   0.388428 0.536256 0.800948 0.021189
C25   C     C_R   0.596807 0.569186 0.091989 -0.132857
C26   C     C_R   0.668236 0.572355 0.183076 0.001628
C27   C     C_R   0.414197 0.489329 0.212808 0.043304
C28   C     C_3   0.707279 0.345984 0.266188 0.323713
C29   C     C_R   0.340882 0.487080 0.121372 -0.115947
C30   C     C_R   0.430212 0.526926 0.058256 0.011544
C31   C     C_R   0.574662 0.536104 0.243789 -0.255112
C32   C     C_3   0.658890 0.323765 0.162886 0.281541
C33   C     C_3   0.099672 0.676395 0.746538 0.267087
C34   C     C_3   0.697098 0.790816 0.860641 -0.370627
C35   C     C_3   0.152734 0.722027 0.845700 0.231262
C36   C     C_3   0.125023 0.259095 0.236954 0.649294
C37   C     C_3   0.115535 0.237050 0.134426 -0.270866
C38   C     C_3   0.753570 0.340683 0.028663 0.203693
C39   C     C_3   0.991102 0.648043 0.937346 0.183695
C40   C     C_3   0.216167 0.128616 0.290089 0.193834
C41   C     C_3   0.193192 0.895305 0.047217 0.209068
C42   C     C_3   0.572003 0.817268 0.064412 0.110037
C43   C     C_3   0.624440 0.871175 0.682591 0.187114
C44   C     C_3   0.292558 0.283999 0.942259 0.099204
C45   C     C_3   0.046581 0.243943 0.835633 0.770362
C46   C     C_3   0.184480 0.031106 0.879937 0.110713
C47   C     C_3   0.851715 0.048186 0.928306 0.093705
C48   C     C_3   0.116206 0.952771 0.665630 0.165830
C49   C     C_3   0.009318 0.140035 0.842078 0.792814
C50   C     C_3   0.547828 0.204683 0.747683 0.378322
C51   C     C_3   0.564233 0.151037 0.827019 -0.429517
C52   C     C_R   0.639704 0.828386 0.441727 -0.030731
H1    H     H_    0.429956 0.737975 0.202508 0.002600
H2    H     H_    0.784480 0.703438 0.764575 0.014970
H3    H     H_    0.680977 0.734981 0.902595 0.005666
H4    H     H_    0.818141 0.834923 0.887863 0.063032
H5    H     H_    0.595796 0.831597 0.865803 0.086432
H6    H     H_    0.380154 0.936552 0.199189 -0.035253
H7    H     H_    0.921681 0.935356 0.295579 0.075641
H8    H     H_    0.126312 0.254761 0.783027 -0.130551
H9    H     H_    0.908587 0.109208 0.784022 -0.127049
H10   H     H_    0.559720 0.278383 0.773519 0.064503
H11   H     H_    0.649695 0.191939 0.710164 0.083427
H12   H     H_    0.598861 0.251129 0.144389 0.044545
H13   H     H_    0.463314 0.157711 0.865614 0.141562
H14   H     H_    0.681933 0.178848 0.873209 0.125487
H15   H     H_    0.015998 0.788781 0.332601 0.080533
H16   H     H_    0.561218 0.077853 0.802362 0.102750
H17   H     H_    0.490259 0.965155 0.379879 0.072632
H18   H     H_    0.133123 0.304806 0.513778 0.065941
H19   H     H_    0.220716 0.033769 0.521205 0.150315
H20   H     H_    0.608328 0.118622 0.382439 0.084046
H21   H     H_    0.676480 0.598985 0.049476 0.042612
H22   H     H_    0.577003 0.585576 0.913725 0.018202
H23   H     H_    0.566642 0.366699 0.138997 -0.101799
H24   H     H_    0.186705 0.471527 0.695585 0.058429
H25   H     H_    0.086248 0.905981 0.237823 0.129586
H26   H     H_    0.597966 0.360769 0.294900 -0.029723
H27   H     H_    0.702746 0.403962 0.015681 0.035454
H28   H     H_    0.661381 0.279775 0.996825 -0.005220
H29   H     H_    0.864411 0.339836 0.995932 0.128420
H30   H     H_    0.888567 0.619925 0.880006 0.010988
H31   H     H_    0.968071 0.713033 0.972640 0.062027
H32   H     H_    0.991865 0.599010 0.987471 0.089525
H33   H     H_    0.027721 0.300290 0.247767 0.100541
H34   H     H_    0.207294 0.654095 0.720730 -0.003878
H35   H     H_    0.317136 0.166200 0.344534 0.072200
H36   H     H_    0.264803 0.110717 0.226824 0.013028
H37   H     H_    0.170859 0.063879 0.314115 0.035597
H38   H     H_    0.067824 0.866567 0.008985 0.032661
H39   H     H_    0.275623 0.909968 0.997336 0.031814
H40   H     H_    0.180508 0.959368 0.089206 -0.007016
H41   H     H_    0.998008 0.190709 0.104429 0.157179
H42   H     H_    0.222137 0.204503 0.118423 0.063144
H43   H     H_    0.466351 0.784088 0.010465 0.105837
H44   H     H_    0.615378 0.767370 0.108256 0.014978
H45   H     H_    0.999572 0.617139 0.740647 0.024938
H46   H     H_    0.677936 0.841277 0.031964 0.070990
H47   H     H_    0.682511 0.929725 0.653000 0.029025
H48   H     H_    0.567844 0.899728 0.739413 0.015481
H49   H     H_    0.527162 0.830062 0.628379 0.109555
H50   H     H_    0.351084 0.333958 0.002312 0.042111
H51   H     H_    0.358930 0.300618 0.885916 0.019306
H52   H     H_    0.309691 0.216518 0.962400 0.083279
H53   H     H_    0.083065 0.971938 0.859382 0.022472
H54   H     H_    0.206193 0.054684 0.954118 0.073680
H55   H     H_    0.299738 0.007032 0.865435 0.040931
H56   H     H_    0.283206 0.756623 0.854283 0.034025
H57   H     H_    0.914651 0.003810 0.972074 0.045662
H58   H     H_    0.802497 0.008282 0.860139 0.024498
H59   H     H_    0.745583 0.064928 0.960201 0.079269
H60   H     H_    0.676768 0.695458 0.473389 0.089283
H61   H     H_    0.042957 0.906973 0.702841 0.096384
H62   H     H_    0.243687 0.971960 0.705119 0.095307
H63   H     H_    0.060748 0.016066 0.661440 0.061186
H64   H     H_    0.104917 0.454451 0.965919 0.072627
H65   H     H_    0.216072 0.451405 0.100792 0.079575
H66   H     H_    0.798757 0.775255 0.283102 -0.103988
H67   H     H_    0.079773 0.777723 0.860268 0.018530
H68   H     H_    0.631106 0.538522 0.314134 0.056763
H69   H     H_    0.876339 0.888858 0.177026 0.133514
H70   H     H_    0.806180 0.406834 0.283655 0.051114
H71   H     H_    0.117113 0.300588 0.103051 0.094629
H72   H     H_    0.570578 0.836407 0.266788 -0.120850
O1    O     O_2   0.174040 0.723040 0.553850 -0.420849
O2    O     O_2   0.789525 0.431749 0.818451 -0.505566
O3    O     O_3   0.895514 0.275759 0.808045 -0.687474
O4    O     O_3   0.901550 0.609570 0.550800 -0.499252
O5    O     O_3   0.408230 0.452130 0.390190 -0.456644
O6    O     O_2   0.675480 0.547140 0.721810 -0.487405
O7    O     O_3   0.531640 0.705502 0.724002 -0.671313
O8    O     O_2   0.533246 0.174544 0.550456 -0.520686
O9    O     O_3   0.392328 0.174538 0.693459 -0.612946
O10   O     O_3   0.370320 0.665070 0.388210 -0.462960
O11   O     O_2   0.313611 0.824638 0.464046 -0.448871
O12   O     O_3   0.284335 0.305438 0.278562 -0.675219
O13   O     O_3   0.042506 0.742704 0.697498 -0.651885
O14   O     O_3   0.329767 0.815699 0.294585 -0.625868
O15   O     O_2   0.134800 0.452800 0.278160 -0.480461
O16   O     O_3   0.937630 0.618610 0.340820 -0.501007
O17   O     O_2   0.000586 0.557114 0.178863 -0.457677
O18   O     O_3   0.801534 0.339830 0.122671 -0.666855
O19   O     O_3   0.145975 0.658244 0.908029 -0.667388
O20   O     O_3   0.082587 0.178131 0.275443 -0.668430
O21   O     O_3   0.251689 0.830680 0.100455 -0.637684
O22   O     O_3   0.533805 0.894348 0.115145 -0.693688
O23   O     O_3   0.952939 0.727031 0.198691 -0.574250
O24   O     O_3   0.748615 0.819278 0.711583 -0.689214
O25   O     O_3   0.122255 0.290640 0.922672 -0.675676
O26   O     O_3   0.155634 0.103289 0.829650 -0.701156
O27   O     O_3   0.962594 0.129811 0.928503 -0.662400
O28   O     O_3   0.127995 0.909234 0.579519 -0.641240
O29   O     O_2   0.636250 0.276900 0.446120 -0.467047
O30   O     O_3   0.908740 0.390420 0.449120 -0.497239
O31   O     O_3   0.439970 0.334920 0.611710 -0.471590
O32   O     O_3   0.761106 0.270272 0.300808 -0.644989
O33   O     O_3   0.402050 0.547860 0.609740 -0.443476
O34   O     O_3   0.872650 0.381380 0.659100 -0.472964
P1    P     P_3+3 0.004160 0.709210 0.580280 1.058484
P2    P     P_3+3 0.305010 0.425580 0.290930 0.964627
P3    P     P_3+3 0.889505 0.617245 0.223605 0.975417
P4    P     P_3+3 0.806120 0.290780 0.419650 1.001753
P5    P     P_3+3 0.926152 0.387592 0.778815 0.926715
P6    P     P_3+3 0.416802 0.784069 0.397493 0.964606
P7    P     P_3+3 0.506787 0.586136 0.720627 0.931689
P8    P     P_3+3 0.392787 0.215383 0.589316 0.949279

loop_
_geom_bond_atom_site_label_1
_geom_bond_atom_site_label_2
_ccdc_geom_bond_type
C4    H15   S    
C47   H59   S    
C5    P8    S    
C1    O21   S    
Ba2   O29   S    
C37   H71   S    
C48   H63   S    
C23   H2    S    
C34   H5    S    
C32   H12   S    
C45   H8    S    
C5    C6    A    
C46   H54   S    
C39   H32   S    
C32   O18   S    
O10   P6    S    
C45   O3    S    
C47   O27   S    
C33   C35   S    
C22   C24   A    
Ba1   Ba2   S    
C3    H18   S    
C34   H4    S    
C8    C13   A    
O7    P7    S    
C32   H23   S    
C36   C37   S    
C25   H21   S    
C46   H53   S    
C44   H51   S    
C27   C31   A    
C43   H48   S    
C41   H40   S    
C19   P5    S    
C20   H64   S    
C40   H37   S    
C33   H34   S    
C4    H66   S    
C51   H14   S    
C36   O20   S    
Ba1   O16   S    
C43   H49   S    
C33   O13   S    
C4    O23   S    
C42   H44   S    
C16   H25   S    
Ba2   O6    S    
C21   C22   A    
O6    P7    D    
C41   O21   S    
O23   P3    S    
Ba1   O10   S    
C23   O7    S    
C7    C8    A    
O32   P4    S    
C16   H69   S    
C47   H57   S    
C28   H26   S    
C1    H6    S    
C12   H1    S    
Ba1   P1    S    
C1    O22   S    
O1    P1    D    
C42   O22   S    
C19   C20   A    
C38   H29   S    
C52   P6    S    
C33   H45   S    
C51   H16   S    
C27   P2    S    
O31   P8    S    
O17   P3    D    
O11   P6    D    
C15   H60   S    
O14   P6    S    
C4    C16   S    
C24   P7    S    
C28   C32   S    
C38   H28   S    
Ba1   O33   S    
C49   H9    S    
C34   H3    S    
C50   H10   S    
Ba2   P4    S    
O16   P3    S    
C3    C5    A    
C6    C7    A    
C45   C49   S    
C11   H17   S    
O5    P2    S    
C39   H30   S    
C44   H50   S    
C23   O24   S    
C40   H36   S    
C2    C14   A    
Ba1   O30   S    
C42   H43   S    
C29   C30   A    
C11   C13   A    
O13   P1    S    
C8    C17   A    
O9    P8    S    
C29   H65   S    
Ba2   O5    S    
C36   O12   S    
O12   P2    S    
O34   P5    S    
C10   C11   A    
C7    C9    A    
C37   H41   S    
C35   H56   S    
C1    C12   S    
C43   H47   S    
C47   H58   S    
C35   H67   S    
C2    C15   A    
O4    P1    S    
C12   O14   S    
C26   C31   A    
Ba1   O4    S    
C46   O26   S    
C14   O28   S    
O2    P5    D    
O8    P8    D    
Ba2   O33   S    
C40   O20   S    
C50   C51   S    
C28   O32   S    
C49   O27   S    
Ba2   O30   S    
C25   C30   A    
C2    P1    S    
C38   H27   S    
C22   H22   S    
Ba1   O1    S    
C28   H70   S    
Ba1   O5    S    
C49   O26   S    
C9    C10   A    
C16   H7    S    
C3    C17   A    
O3    P5    S    
O29   P4    D    
C39   H31   S    
C41   H38   S    
C12   H72   S    
C18   H24   S    
C36   H33   S    
C41   H39   S    
C40   H35   S    
C21   C30   S    
C38   O18   S    
C27   C29   A    
C48   H61   S    
C42   H46   S    
C43   O24   S    
C31   H68   S    
C18   C24   A    
C48   O28   S    
Ba2   O31   S    
C44   H52   S    
C6    H19   S    
Ba2   O4    S    
O33   P7    S    
C44   O25   S    
C46   H55   S    
C48   H62   S    
C17   P4    S    
C51   H13   S    
C37   H42   S    
C9    C14   A    
Ba1   O15   S    
Ba1   P2    S    
C45   O25   S    
C23   C34   S    
O15   P2    D    
C13   H20   S    
C39   O19   S    
C18   C19   A    
O30   P4    S    
Ba2   O34   S    
C25   C26   A    
C50   O9    S    
C20   C21   A    
C35   O19   S    
C15   C52   A    
C10   C52   A    
C50   H11   S    
C26   P3    S    
