data_mof_unit_35369.cif
_audit_creation_date              2012-12-10T17:33:01-0500
_audit_creation_method            fapswitch 2.2
_symmetry_space_group_name_H-M    P1
_symmetry_Int_Tables_number       1
_space_group_crystal_system       triclinic
_cell_length_a                    12.38534
_cell_length_b                    13.319985
_cell_length_c                    14.382648
_cell_angle_alpha                 93.393058
_cell_angle_beta                  108.115856
_cell_angle_gamma                 117.563244
_cell_volume                      1940.23836972

loop_
_atom_site_label
_atom_site_type_symbol
_atom_type_description
_atom_site_fract_x
_atom_site_fract_y
_atom_site_fract_z
_atom_type_partial_charge
C1    C     C_R   0.655615 0.714942 0.515482 0.749800
C2    C     C_R   0.887169 0.553673 0.923581 0.036614
C3    C     C_R   0.856986 0.598509 0.998271 0.024498
C4    C     C_R   0.999717 0.539777 0.951996 0.092537
C5    C     C_R   0.074032 0.559932 0.055882 0.074778
C6    C     C_R   0.044726 0.608692 0.127896 -0.253787
C7    C     C_R   0.939986 0.628763 0.099547 -0.134902
C8    C     C_R   0.040623 0.506560 0.879826 -0.198259
C9    C     C_R   0.140244 0.480043 0.907706 -0.187507
C10   C     C_R   0.203524 0.486283 0.008188 0.122366
C11   C     C_R   0.173690 0.528882 0.083809 0.081464
C12   C     C_R   0.619679 0.518165 0.686402 0.859509
C13   C     C_R   0.295951 0.449348 0.033664 -0.148997
C14   C     C_R   0.355988 0.449927 0.133262 -0.083609
C15   C     C_R   0.240273 0.533209 0.184285 -0.267152
C16   C     C_R   0.097333 0.969454 0.332963 -0.215311
C17   C     C_R   0.244420 0.157693 0.453483 -0.260664
C18   C     C_R   0.777295 0.917927 0.618954 -0.187293
C19   C     C_R   0.890834 0.027930 0.655321 -0.117278
C20   C     C_R   0.985150 0.058659 0.612444 0.003854
C21   C     C_R   0.964882 0.981232 0.529102 0.115898
C22   C     C_R   0.843174 0.873919 0.486693 0.057413
C23   C     C_R   0.342573 0.284079 0.480810 0.944853
C24   C     C_R   0.057394 0.009930 0.482011 0.002196
C25   C     C_R   0.019399 0.936037 0.389076 -0.009976
C26   C     C_R   0.900588 0.831420 0.349400 -0.119050
C27   C     C_R   0.811575 0.802731 0.395010 -0.154867
C28   C     C_R   0.184970 0.110371 0.521452 0.359309
C29   C     C_R   0.202587 0.082674 0.358899 0.387241
C30   C     C_R   0.754605 0.839039 0.536463 -0.093766
C31   C     C_R   0.261492 0.719110 0.621470 -0.268791
C32   C     C_R   0.653677 0.344577 0.361744 0.064297
C33   C     C_R   0.729258 0.308659 0.332064 -0.314397
C34   C     C_R   0.385093 0.488227 0.314272 0.822069
C35   C     C_R   0.865958 0.367744 0.383279 0.507216
C36   C     C_R   0.927998 0.464488 0.466304 -0.056738
C37   C     C_R   0.845332 0.498411 0.492909 0.224583
C38   C     C_R   0.069134 0.532835 0.519895 -0.103613
C39   C     C_R   0.124507 0.644754 0.580551 0.095501
C40   C     C_R   0.043043 0.677318 0.605490 -0.218572
C41   C     C_R   0.907105 0.601303 0.568553 -0.159792
C42   C     C_R   0.156542 0.489419 0.528116 0.547369
C43   C     C_R   0.342166 0.680296 0.603968 -0.009271
C44   C     C_R   0.694927 0.538924 0.793828 -0.115591
C45   C     C_R   0.326425 0.489897 0.208864 -0.067465
C46   C     C_R   0.744323 0.611782 0.969084 0.453895
C47   C     C_R   0.666173 0.583278 0.867099 -0.222049
C48   C     C_R   0.801450 0.520765 0.822413 -0.235828
Cu1   Cu    Cu3+1 0.416420 0.526630 0.522910 1.005586
Cu2   Cu    Cu3+1 0.583580 0.473370 0.477090 1.004026
H1    H     H_    0.924538 0.667131 0.158859 0.193021
H2    H     H_    0.319566 0.417486 0.976090 0.180323
H3    H     H_    0.874294 0.773156 0.280613 0.214066
H4    H     H_    0.068199 0.909945 0.263422 0.210296
H5    H     H_    0.710365 0.892551 0.658165 0.154935
H6    H     H_    0.072641 0.143863 0.644219 0.231891
H7    H     H_    0.908137 0.088316 0.719390 0.168241
H8    H     H_    0.715801 0.725560 0.355378 0.176106
H9    H     H_    0.447094 0.740309 0.631306 0.160714
H10   H     H_    0.225143 0.567774 0.245207 0.148900
H11   H     H_    0.085299 0.759698 0.658160 0.183761
H12   H     H_    0.305713 0.807017 0.665457 0.185288
H13   H     H_    0.550472 0.303836 0.317674 0.228939
H14   H     H_    0.682006 0.236448 0.267127 0.169270
H15   H     H_    0.853525 0.627368 0.599681 0.195197
H16   H     H_    0.424467 0.418197 0.150839 0.195861
H17   H     H_    0.165767 0.451785 0.849687 0.169360
H18   H     H_    0.583009 0.596881 0.844403 0.213895
H19   H     H_    0.814371 0.479235 0.763701 0.177475
H20   H     H_    0.101981 0.634301 0.207615 0.141526
H21   H     H_    0.998818 0.501317 0.800656 0.164605
N1    N     N_R   0.290690 0.566960 0.557640 -0.246550
N2    N     N_R   0.709100 0.433710 0.442970 -0.212402
O1    O     O_R   0.545970 0.684450 0.528810 -0.592836
O2    O     O_R   0.687130 0.639470 0.490120 -0.610190
O3    O     O_R   0.519670 0.535100 0.660030 -0.564011
O4    O     O_R   0.660830 0.490120 0.621340 -0.603737
O5    O     O_R   0.312870 0.360530 0.509880 -0.500074
O6    O     O_R   0.454030 0.315550 0.471190 -0.518445
O7    O     O_R   0.339170 0.509880 0.378660 -0.607233
O8    O     O_R   0.480330 0.464900 0.339970 -0.560774
S1    S     S_3+6 0.276977 0.118667 0.270111 -0.028996
O9    O     O_2   0.315677 0.240788 0.261140 -0.357792
O10   O     O_2   0.182667 0.037609 0.168033 -0.293424
O11   O     O_3   0.408952 0.101545 0.308204 -0.533654
H22   H     H_    0.421971 0.084319 0.245899 0.362717
S2    S     S_3+6 0.293759 0.132448 0.645612 -0.003765
O12   O     O_2   0.405308 0.119520 0.638124 -0.285904
O13   O     O_2   0.350248 0.252641 0.707265 -0.252546
O14   O     O_3   0.216388 0.032733 0.703668 -0.571580
H23   H     H_    0.286152 0.047198 0.768720 0.378225
S3    S     S_3+6 0.107509 0.357968 0.568963 0.015161
O15   O     O_2   0.995145 0.329779 0.602400 -0.330758
O16   O     O_2   0.064488 0.257724 0.485932 -0.282331
O17   O     O_3   0.235686 0.375843 0.668075 -0.480079
H24   H     H_    0.259358 0.444388 0.718119 0.331501
O18   O     O_3   0.937077 0.330652 0.349348 -0.546965
C49   C     C_3   0.959833 0.377529 0.267168 0.032691
H25   H     H_    0.063014 0.450600 0.295139 0.146082
H26   H     H_    0.895068 0.412644 0.230920 0.105315
C50   C     C_3   0.939064 0.283567 0.185785 -0.360934
H27   H     H_    0.833218 0.214535 0.152746 0.219165
H28   H     H_    0.965435 0.323403 0.124667 0.187877
C51   C     C_3   0.022000 0.227835 0.226913 -0.585940
H29   H     H_    0.127009 0.295766 0.267373 0.241346
H30   H     H_    0.013767 0.169177 0.163673 0.245723
H31   H     H_    0.986652 0.175288 0.279293 0.276842
S4    S     S_3+6 0.697885 0.666070 0.055896 -0.053737
O19   O     O_2   0.687638 0.597000 0.134939 -0.364763
O20   O     O_2   0.800772 0.792133 0.104259 -0.318976
O21   O     O_3   0.551484 0.656114 0.997117 -0.551092
H32   H     H_    0.533964 0.687921 0.051148 0.380824

loop_
_geom_bond_atom_site_label_1
_geom_bond_atom_site_label_2
_ccdc_geom_bond_type
S2    O12   D    
Cu2   O4    S    
C50   H27   S    
C17   C29   A    
C15   H10   S    
O17   H24   S    
C48   H19   S    
C4    C8    A    
Cu2   O6    S    
C51   H30   S    
O18   C49   S    
O11   H22   S    
C19   H7    S    
C26   C27   A    
C17   C23   S    
C31   C43   A    
C1    O1    A    
C36   C37   A    
C38   C42   A    
C3    C7    A    
C5    C6    A    
Cu1   O5    S    
C18   C19   A    
Cu1   Cu2   S    
S3    O15   D    
C34   O7    A    
C11   C15   A    
C19   C20   A    
S4    O20   D    
C8    C9    A    
Cu1   N1    S    
C46   S4    S    
C18   C30   A    
C34   O8    A    
S4    O19   D    
C9    C10   A    
C44   C47   A    
C43   H9    S    
C50   H28   S    
C21   C22   A    
C31   H12   S    
C42   N1    A    
C51   H29   S    
C14   C45   A    
C1    O2    A    
C24   C25   A    
Cu2   N2    S    
C39   C40   A    
C41   H15   S    
C2    C48   A    
C16   C29   A    
C27   H8    S    
S3    O17   S    
C40   H11   S    
C35   C36   A    
C2    C4    A    
C9    H17   S    
C13   H2    S    
C12   O4    A    
C28   S2    S    
S3    O16   D    
C14   H16   S    
Cu1   O3    S    
C34   C45   S    
C18   H5    S    
C40   C41   A    
C49   H25   S    
C50   C51   S    
S1    O10   D    
C22   C27   A    
C12   O3    A    
S2    O14   S    
C15   C45   A    
C49   C50   S    
C26   H3    S    
C47   H18   S    
C32   N2    A    
C16   C25   A    
C6    H20   S    
C43   N1    A    
C37   N2    A    
C46   C47   A    
C8    H21   S    
C22   C30   A    
O21   H32   S    
C17   C28   A    
C24   C28   A    
C32   H13   S    
C4    C5    A    
C10   C13   A    
Cu1   O7    S    
C5    C11   A    
C6    C7    A    
S1    O11   S    
C3    C46   A    
C49   H26   S    
S4    O21   S    
C32   C33   A    
C36   C38   A    
C2    C3    A    
C25   C26   A    
C7    H1    S    
C29   S1    S    
C12   C44   S    
C35   O18   S    
Cu2   O2    S    
O14   H23   S    
C38   C39   A    
C33   H14   S    
C1    C30   S    
C33   C35   A    
C31   C39   A    
C42   S3    S    
C20   H6    S    
C23   O5    A    
C37   C41   A    
C16   H4    S    
C10   C11   A    
C20   C21   A    
S1    O9    D    
C21   C24   A    
S2    O13   D    
Cu1   O1    S    
C23   O6    A    
C13   C14   A    
C51   H31   S    
C44   C48   A    
Cu2   O8    S    
