data_mof_unit_25703.cif
_audit_creation_date              2012-12-10T17:38:17-0500
_audit_creation_method            fapswitch 2.2
_symmetry_space_group_name_H-M    P1
_symmetry_Int_Tables_number       1
_space_group_crystal_system       triclinic
_cell_length_a                    12.456202
_cell_length_b                    13.259883
_cell_length_c                    19.308046
_cell_angle_alpha                 74.610067
_cell_angle_beta                  101.652793
_cell_angle_gamma                 117.337074
_cell_volume                      2719.35671713

loop_
_atom_site_label
_atom_site_type_symbol
_atom_type_description
_atom_site_fract_x
_atom_site_fract_y
_atom_site_fract_z
_atom_type_partial_charge
C1    C     C_R   0.855376 0.286485 0.504921 0.870299
C2    C     C_R   0.002292 0.497528 0.708510 -0.079605
C3    C     C_R   0.991934 0.464907 0.073519 0.428997
C4    C     C_R   0.997627 0.467202 0.933913 0.423698
C5    C     C_R   0.019666 0.397031 0.204940 -0.267478
C6    C     C_R   0.018063 0.399576 0.277755 0.406889
C7    C     C_R   0.985749 0.481148 0.291764 -0.258142
C8    C     C_R   0.940990 0.546383 0.233357 0.453322
C9    C     C_R   0.956908 0.553136 0.161685 -0.121355
C10   C     C_R   0.991845 0.473937 0.147778 -0.137563
C11   C     C_R   0.282938 0.043088 0.476766 -0.021375
C12   C     C_R   0.001242 0.500530 0.632049 0.766793
C13   C     C_R   0.230453 0.837913 0.487105 -0.167341
C14   C     C_R   0.817491 0.080510 0.547091 -0.315346
C15   C     C_R   0.737751 0.964960 0.569994 0.517977
C16   C     C_R   0.611585 0.930299 0.556327 -0.083186
C17   C     C_R   0.566724 0.008237 0.508229 -0.101944
C18   C     C_R   0.650113 0.122837 0.481341 -0.043351
C19   C     C_R   0.441306 0.979851 0.489262 0.050898
C20   C     C_R   0.402310 0.068721 0.464673 -0.081415
C21   C     C_R   0.483782 0.176301 0.427250 -0.102193
C22   C     C_R   0.605513 0.196559 0.429740 0.449605
C23   C     C_R   0.145366 0.714158 0.491619 0.850605
C24   C     C_R   0.354047 0.866749 0.490063 -0.288766
C25   C     C_R   0.194290 0.925490 0.485061 0.511454
C26   C     C_R   0.774391 0.161674 0.507424 -0.166242
C27   C     C_R   0.367939 0.367823 0.635208 -0.219179
C28   C     C_R   0.757602 0.652146 0.402134 0.052898
C29   C     C_R   0.674642 0.701354 0.392688 -0.185986
C30   C     C_R   0.579331 0.649248 0.435242 -0.077999
C31   C     C_R   0.562737 0.549005 0.486480 -0.112122
C32   C     C_R   0.658702 0.512051 0.504297 0.107058
C33   C     C_R   0.456803 0.490337 0.525225 -0.096434
C34   C     C_R   0.995615 0.494679 0.367658 0.917607
C35   C     C_R   0.467866 0.427717 0.595133 -0.074621
C36   C     C_R   0.577327 0.419882 0.622046 -0.131871
C37   C     C_R   0.652153 0.431503 0.571728 0.496474
C38   C     C_R   0.341282 0.492866 0.498149 0.628154
C39   C     C_R   0.257475 0.372149 0.607863 0.127178
C40   C     C_R   0.992343 0.395370 0.757087 -0.061015
C41   C     C_R   0.994217 0.385143 0.831138 -0.030205
C42   C     C_R   0.004387 0.479713 0.856846 -0.068319
C43   C     C_R   0.015442 0.584850 0.808174 0.014607
C44   C     C_R   0.017937 0.594862 0.733378 -0.068981
Cu1   Cu    Cu3+1 0.098280 0.475420 0.516260 1.007690
Cu2   Cu    Cu3+1 0.901720 0.524580 0.483740 1.049611
H1    H     H_    0.981588 0.322445 0.736470 0.178304
H2    H     H_    0.383145 0.800992 0.491194 0.197485
H3    H     H_    0.912735 0.108217 0.566178 0.194918
H4    H     H_    0.373357 0.311909 0.686705 0.182313
H5    H     H_    0.520159 0.690687 0.430059 0.232583
H6    H     H_    0.040809 0.334760 0.191064 0.166516
N1    N     N_R   0.896748 0.457836 0.956542 -0.204797
N2    N     N_R   0.893814 0.456239 0.025281 -0.237456
N3    N     N_R   0.091700 0.470959 0.051264 -0.198090
N4    N     N_R   0.094594 0.472353 0.982425 -0.198645
N5    N     N_R   0.246290 0.438200 0.540910 -0.256259
N6    N     N_R   0.754310 0.561190 0.459520 -0.189029
O1    O     O_R   0.972510 0.318130 0.520450 -0.622879
O2    O     O_R   0.806530 0.359650 0.492990 -0.501597
O3    O     O_R   0.083010 0.479220 0.613590 -0.616733
O4    O     O_R   0.917030 0.520740 0.586130 -0.536616
O5    O     O_R   0.193470 0.640350 0.507010 -0.577604
O6    O     O_R   0.027490 0.681870 0.479550 -0.511076
O7    O     O_R   0.082970 0.479260 0.413870 -0.508824
O8    O     O_R   0.916990 0.520780 0.386410 -0.521466
C45   C     C_2   0.442954 0.260586 0.376588 0.330056
H7    H     H_    0.506986 0.350760 0.362536 0.100038
O9    O     O_2   0.339265 0.229631 0.347825 -0.591985
C46   C     C_2   0.261290 0.133928 0.495710 0.387231
H8    H     H_    0.327588 0.223676 0.486448 0.051955
O10   O     O_2   0.174063 0.109157 0.527128 -0.541822
C47   C     C_2   0.531008 0.819984 0.600766 0.415079
H9    H     H_    0.452180 0.814200 0.620292 0.080832
O11   O     O_2   0.551133 0.734426 0.615539 -0.504526
O12   O     O_3   0.781975 0.891543 0.617809 -0.543399
C48   C     C_3   0.840475 0.857330 0.579518 -0.150675
H10   H     H_    0.929483 0.929469 0.564962 0.209732
H11   H     H_    0.783092 0.825343 0.530635 0.136497
H12   H     H_    0.857689 0.784571 0.615079 0.191080
O13   O     O_3   0.678216 0.285069 0.379267 -0.606316
C49   C     C_3   0.699639 0.235316 0.330277 -0.308206
H13   H     H_    0.613613 0.170564 0.307604 0.189368
H14   H     H_    0.763057 0.195411 0.355893 0.192325
H15   H     H_    0.742902 0.304269 0.284315 0.173483
C50   C     C_2   0.155007 0.302496 0.653705 0.441301
H16   H     H_    0.062425 0.279077 0.632005 0.103191
O14   O     O_2   0.173263 0.268363 0.718317 -0.526966
C51   C     C_2   0.614657 0.399794 0.701186 0.395780
H17   H     H_    0.557066 0.389577 0.740143 0.096904
O15   O     O_2   0.713915 0.400685 0.723864 -0.525961
C52   C     C_2   0.981507 0.273752 0.880658 0.431605
H18   H     H_    0.978128 0.261849 0.938067 0.078410
O16   O     O_2   0.974547 0.193177 0.857854 -0.485563
O17   O     O_3   0.321145 0.545973 0.428156 -0.581654
C53   C     C_3   0.310399 0.475816 0.381041 -0.218737
H19   H     H_    0.267557 0.503372 0.327969 0.210810
H20   H     H_    0.253632 0.382464 0.401373 0.187998
H21   H     H_    0.400299 0.486751 0.371583 0.140639
C54   C     C_2   0.841135 0.701088 0.344748 0.436820
H22   H     H_    0.804631 0.719534 0.289500 0.077584
O18   O     O_2   0.950356 0.734627 0.356356 -0.499866
C55   C     C_2   0.688423 0.810858 0.339721 0.322923
H23   H     H_    0.771579 0.865485 0.313814 0.057358
O19   O     O_2   0.607097 0.842456 0.324903 -0.515063
O20   O     O_3   0.715040 0.363993 0.589917 -0.522339
C56   C     C_3   0.634973 0.244901 0.608421 -0.251795
H24   H     H_    0.557106 0.218418 0.566751 0.118965
H25   H     H_    0.600854 0.221960 0.661786 0.185930
H26   H     H_    0.685587 0.192811 0.613532 0.174038
C57   C     C_2   0.019459 0.682736 0.834424 0.487194
H27   H     H_    0.976573 0.736500 0.800925 0.118205
O21   O     O_2   0.072507 0.705946 0.892621 -0.514999
C58   C     C_2   0.045246 0.707563 0.681344 0.289565
H28   H     H_    0.012665 0.709577 0.624828 0.118168
O22   O     O_2   0.109424 0.799900 0.700184 -0.510238
O23   O     O_3   0.038233 0.320914 0.337207 -0.584371
C59   C     C_3   0.068768 0.241033 0.319931 -0.316570
H29   H     H_    0.150827 0.285743 0.289776 0.201223
H30   H     H_    0.990199 0.179409 0.290488 0.168933
H31   H     H_    0.092800 0.190626 0.370877 0.206168
O24   O     O_3   0.878659 0.601793 0.245758 -0.525655
C60   C     C_3   0.752272 0.533962 0.232049 -0.247701
H32   H     H_    0.727606 0.477949 0.191930 0.147068
H33   H     H_    0.707224 0.592597 0.209927 0.187297
H34   H     H_    0.713716 0.479554 0.283412 0.190025
C61   C     C_2   0.941296 0.645469 0.102116 0.466278
H35   H     H_    0.962477 0.656540 0.048100 0.113177
O25   O     O_2   0.908929 0.713709 0.112741 -0.478552
O26   O     O_3   0.076063 0.893763 0.497071 -0.568250
C62   C     C_3   0.014523 0.933838 0.434279 -0.246663
H36   H     H_    0.053245 0.949624 0.383043 0.174619
H37   H     H_    0.009896 0.012679 0.439468 0.180418
H38   H     H_    0.919482 0.868110 0.430568 0.160775

loop_
_geom_bond_atom_site_label_1
_geom_bond_atom_site_label_2
_ccdc_geom_bond_type
C36   C51   S    
C40   H1    S    
C30   H5    S    
C4    N1    A    
C47   O11   D    
C47   H9    S    
O17   C53   S    
C18   C26   A    
C32   N6    A    
N3    N4    A    
C62   H38   S    
C2    C12   S    
C34   O8    A    
C29   C55   S    
C58   H28   S    
C11   C46   S    
C7    C8    A    
N1    N2    A    
Cu1   N5    S    
C9    C61   S    
Cu2   O4    S    
C36   C37   A    
Cu2   O8    S    
C1    O1    A    
C30   C31   A    
C3    N2    A    
C50   O14   D    
C60   H33   S    
C14   H3    S    
O20   C56   S    
C11   C25   A    
C15   C16   A    
C39   N5    A    
C53   H21   S    
C13   C23   S    
C41   C42   A    
C59   H29   S    
C52   H18   S    
C17   C19   A    
C3    N3    A    
Cu1   O1    S    
C35   C36   A    
C2    C44   A    
C16   C17   A    
C53   H20   S    
C38   O17   S    
C56   H24   S    
C31   C33   A    
C5    H6    S    
C46   H8    S    
C51   O15   D    
C9    C10   A    
C6    O23   S    
C27   H4    S    
C48   H10   S    
C28   C54   S    
C23   O5    A    
C15   O12   S    
C44   C58   S    
C21   C22   A    
C4    N4    A    
C56   H25   S    
C13   C25   A    
C43   C57   S    
C25   O26   S    
C34   O7    A    
C52   O16   D    
O13   C49   S    
C48   H11   S    
C11   C20   A    
C45   H7    S    
C24   H2    S    
C22   O13   S    
C60   H32   S    
O12   C48   S    
C57   O21   D    
C1    O2    A    
C27   C39   A    
C50   H16   S    
C8    C9    A    
C60   H34   S    
C27   C35   A    
Cu1   Cu2   S    
Cu1   O5    S    
C16   C47   S    
C13   C24   A    
Cu2   O6    S    
C45   O9    D    
C59   H31   S    
C43   C44   A    
C61   O25   D    
C29   C30   A    
C38   N5    A    
C12   O4    A    
C31   C32   A    
C53   H19   S    
C54   O18   D    
C17   C18   A    
C55   O19   D    
C32   C37   A    
C14   C26   A    
C40   C41   A    
C49   H14   S    
Cu1   O7    S    
C1    C26   S    
C56   H26   S    
C42   C43   A    
C62   H36   S    
C28   C29   A    
C7    C34   S    
C48   H12   S    
C23   O6    A    
C57   H27   S    
Cu2   O2    S    
C18   C22   A    
C62   H37   S    
C58   O22   D    
C6    C7    A    
C28   N6    A    
C49   H15   S    
C33   C38   A    
C19   C20   A    
C19   C24   A    
O24   C60   S    
C5    C10   A    
C3    C10   S    
O23   C59   S    
C12   O3    A    
C8    O24   S    
C5    C6    A    
C4    C42   S    
Cu1   O3    S    
C54   H22   S    
C33   C35   A    
O26   C62   S    
C59   H30   S    
C2    C40   A    
C37   O20   S    
C41   C52   S    
C20   C21   A    
C49   H13   S    
Cu2   N6    S    
C55   H23   S    
C14   C15   A    
C46   O10   D    
C39   C50   S    
C51   H17   S    
C21   C45   S    
C61   H35   S    
