data_mof_unit_51016.cif
_audit_creation_date              2013-03-05T16:35:51-0500
_audit_creation_method            fapswitch 2.2
_symmetry_space_group_name_H-M    P1
_symmetry_Int_Tables_number       1
_space_group_crystal_system       triclinic
_cell_length_a                    23.632736
_cell_length_b                    9.099696
_cell_length_c                    7.766887
_cell_angle_alpha                 89.922443
_cell_angle_beta                  90.016909
_cell_angle_gamma                 89.982485
_cell_volume                      1670.27290786

loop_
_atom_site_label
_atom_site_type_symbol
_atom_site_description
_atom_site_fract_x
_atom_site_fract_y
_atom_site_fract_z
_atom_type_partial_charge
O1    O     O_R   0.500000 0.288390 0.642760 -0.555125
O2    O     O_R   0.500000 0.711610 0.357240 -0.590624
O3    O     O_R   0.500000 0.711610 0.642760 -0.555293
O4    O     O_R   0.500000 0.288390 0.357240 -0.590249
H1    H     H_    0.950539 0.129102 0.554343 0.182064
H2    H     H_    0.049193 0.873617 0.490917 0.181742
H3    H     H_    0.946339 0.869238 0.479506 0.185842
H4    H     H_    0.053413 0.132545 0.543705 0.184884
C1    C     C_R   0.500022 0.219940 0.500072 0.863115
C2    C     C_R   0.499978 0.780060 0.499929 0.865135
O5    O     O_R   0.417880 0.500000 0.642820 -0.554401
O6    O     O_R   0.582120 0.500000 0.357180 -0.595802
O7    O     O_R   0.582120 0.500000 0.642820 -0.555145
O8    O     O_R   0.417880 0.500000 0.357180 -0.596694
C3    C     C_R   0.208192 0.508402 0.515528 0.171065
C4    C     C_R   0.791633 0.493755 0.515452 0.177727
C5    C     C_R   0.390514 0.499076 0.499980 0.856829
C6    C     C_R   0.609452 0.500911 0.500035 0.857477
Cu1   Cu    Cu3+1 0.500000 0.500000 0.669080 1.077560
Cu2   Cu    Cu3+1 0.500000 0.500000 0.330920 1.029021
C7    C     C_R   0.296370 0.566976 0.366277 -0.174797
C8    C     C_R   0.703515 0.429344 0.369711 -0.177197
C9    C     C_R   0.297959 0.431518 0.640407 -0.056969
C10   C     C_R   0.701879 0.573539 0.637312 -0.058461
C11   C     C_R   0.327538 0.498315 0.501199 -0.250453
C12   C     C_R   0.672369 0.502075 0.501357 -0.248002
C13   C     C_R   0.880222 0.627018 0.497630 0.574401
C14   C     C_R   0.119427 0.374266 0.517697 0.572481
C15   C     C_R   0.881649 0.366245 0.535387 0.611614
C16   C     C_R   0.117974 0.636916 0.516819 0.613875
N1    N     N_R   0.852538 0.495583 0.516474 -0.454061
N2    N     N_R   0.147194 0.506655 0.517127 -0.453578
C17   C     C_R   0.940972 0.365425 0.531642 -0.026749
C18   C     C_R   0.058670 0.637197 0.510616 -0.027042
C19   C     C_R   0.939486 0.632279 0.501848 -0.028098
C20   C     C_R   0.060169 0.369549 0.523757 -0.028109
C21   C     C_R   0.969982 0.499978 0.516841 -0.014516
C22   C     C_R   0.029660 0.502244 0.517057 -0.014811
C23   C     C_R   0.971851 0.233850 0.542494 -0.147789
C24   C     C_R   0.027826 0.768697 0.498037 -0.148202
C25   C     C_R   0.968848 0.766149 0.491412 -0.144688
C26   C     C_R   0.030838 0.235783 0.536338 -0.144133
C27   C     C_1   0.500009 0.065343 0.500107 -0.132039
C28   C     C_1   0.499995 0.934657 0.499911 -0.131182
C29   C     C_R   0.236466 0.567754 0.372504 0.441961
C30   C     C_R   0.763398 0.427594 0.376893 0.442330
C31   C     C_R   0.239072 0.446725 0.653574 0.338485
C32   C     C_R   0.760913 0.561581 0.649462 0.338496
N3    N     N_1   0.500000 0.500000 0.076820 -0.038456
N4    N     N_1   0.500000 0.500000 0.923180 -0.027709
O9    O     O_2   0.850396 0.752127 0.475436 -0.482679
O10   O     O_2   0.149141 0.247658 0.512754 -0.480201
O11   O     O_2   0.853223 0.239063 0.557937 -0.494259
O12   O     O_2   0.146248 0.765642 0.522876 -0.496218
O13   O     O_3   0.203733 0.626464 0.241851 -0.660884
H5    H     H_    0.223803 0.711267 0.190528 0.364172
O14   O     O_3   0.796212 0.361322 0.251718 -0.661701
H6    H     H_    0.775439 0.276501 0.203376 0.363857
O15   O     O_3   0.212597 0.394850 0.800517 -0.684443
H7    H     H_    0.174560 0.439618 0.810339 0.348808
O16   O     O_3   0.787576 0.622129 0.791384 -0.689361
H8    H     H_    0.826458 0.582588 0.801100 0.347865
C33   C     C_2   0.326037 0.638275 0.219573 0.416588
H9    H     H_    0.361823 0.710189 0.243155 0.083582
O17   O     O_2   0.311544 0.614764 0.071211 -0.535482
C34   C     C_2   0.673823 0.355322 0.225123 0.417584
H10   H     H_    0.637652 0.285132 0.250504 0.082158
O18   O     O_2   0.688693 0.375044 0.076281 -0.528878
C35   C     C_2   0.326597 0.338232 0.771630 0.533822
H11   H     H_    0.312114 0.338862 0.904199 0.145851
O19   O     O_2   0.364252 0.253159 0.731010 -0.553621
C36   C     C_2   0.672905 0.668065 0.766212 0.531368
H12   H     H_    0.687466 0.669771 0.898746 0.139981
O20   O     O_2   0.634781 0.751140 0.723684 -0.553635

loop_
_geom_bond_atom_site_label_1
_geom_bond_atom_site_label_2
_geom_bond_distance
_ccdc_geom_bond_type
C34   O18   1.221407 D    
O13   H5    0.989376 S    
C33   O17   1.221215 D    
C9    C35   1.488054 S    
C20   C26   1.404258 A    
Cu1   Cu2   2.626451 S    
C6    C12   1.486967 S    
C3    C31   1.412371 A    
C4    C32   1.411834 A    
O14   H6    0.989260 S    
C3    N2    1.441690 S    
C4    N1    1.439470 S    
C16   O12   1.349594 S    
O5    Cu1   1.951351 S    
C17   C23   1.404393 A    
O7    C6    1.283583 A    
C18   C24   1.404241 A    
C19   C21   1.407623 A    
C21   C22   1.410529 A    
H4    C26   1.081660 S    
C15   C17   1.402279 A    
C35   O19   1.221120 D    
C8    C34   1.486306 S    
O3    Cu1   1.936132 S    
H3    C25   1.082104 S    
C34   H10   1.085185 S    
O15   H7    0.989814 S    
O8    C5    1.284079 A    
O16   H8    0.989532 S    
C13   O9    1.349647 S    
C23   C26   1.394971 A    
C7    C29   1.416552 A    
C1    C27   1.406785 S    
O1    Cu1   1.936683 S    
C16   C18   1.402331 A    
C2    C28   1.406786 S    
C10   C32   1.402468 A    
O8    Cu2   1.951470 S    
C14   N2    1.372010 A    
O1    C1    1.272023 A    
C13   N1    1.371130 A    
C36   O20   1.221091 D    
C4    C30   1.402653 A    
O7    Cu1   1.951468 S    
C13   C19   1.401766 A    
O2    Cu2   1.936683 S    
C17   C21   1.408029 A    
C27   C28   1.189210 T    
Cu2   N3    1.973565 S    
O6    Cu2   1.951348 S    
C29   O13   1.382531 S    
C24   C25   1.394926 A    
C8    C30   1.416354 A    
H1    C23   1.082019 S    
C30   O14   1.382752 S    
H2    C24   1.081544 S    
C3    C29   1.403998 A    
O2    C2    1.272028 A    
C10   C36   1.487760 S    
C7    C11   1.424270 A    
O5    C5    1.284040 A    
C18   C22   1.407460 A    
C10   C12   1.423371 A    
C36   H12   1.085416 S    
C5    C11   1.488351 S    
C9    C31   1.402273 A    
C20   C22   1.407066 A    
C15   N1    1.370788 A    
O3    C2    1.271519 A    
C16   N2    1.371637 A    
C14   O10   1.349656 S    
Cu1   N4    1.973565 S    
C32   O16   1.384601 S    
C15   O11   1.349575 S    
C9    C11   1.423390 A    
C35   H11   1.085168 S    
C19   C25   1.404392 A    
C7    C33   1.486452 S    
C31   O15   1.384198 S    
C33   H9    1.085177 S    
O4    Cu2   1.936133 S    
C14   C20   1.401899 A    
N3    N4    1.193305 T    
C8    C12   1.423827 A    
O6    C6    1.283737 A    
O4    C1    1.271524 A    
