data_mof_unit_57142.cif
_audit_creation_date              2013-03-05T16:00:49-0500
_audit_creation_method            fapswitch 2.2
_symmetry_space_group_name_H-M    P1
_symmetry_Int_Tables_number       1
_space_group_crystal_system       triclinic
_cell_length_a                    14.712627
_cell_length_b                    14.859435
_cell_length_c                    15.894159
_cell_angle_alpha                 75.758693
_cell_angle_beta                  103.289212
_cell_angle_gamma                 116.225145
_cell_volume                      2991.85238836

loop_
_atom_site_label
_atom_site_type_symbol
_atom_site_description
_atom_site_fract_x
_atom_site_fract_y
_atom_site_fract_z
_atom_type_partial_charge
O1    O     O_R   0.977910 0.338120 0.529720 -0.546140
O2    O     O_R   0.839850 0.379180 0.491640 -0.593348
C1    C     C_R   0.879398 0.312146 0.517167 0.798012
O3    O     O_R   0.069060 0.479460 0.639610 -0.560456
O4    O     O_R   0.931000 0.520530 0.601530 -0.576857
C2    C     C_R   0.000183 0.499985 0.659552 0.797640
Cu1   Cu    Cu3+1 0.081750 0.475690 0.522550 1.022991
Cu2   Cu    Cu3+1 0.918250 0.524310 0.477450 1.006206
O5    O     O_R   0.160150 0.620820 0.508360 -0.563410
O6    O     O_R   0.022090 0.661880 0.470280 -0.562253
O7    O     O_R   0.069000 0.479470 0.398470 -0.537834
O8    O     O_R   0.930940 0.520540 0.360390 -0.512051
C3    C     C_R   0.120018 0.687504 0.491783 0.775837
C4    C     C_R   0.999910 0.500282 0.340402 0.828149
C5    C     C_3   0.044827 0.431206 0.975339 -0.642825
C6    C     C_3   0.887237 0.467268 0.933037 0.114091
C7    C     C_3   0.887826 0.482280 0.027696 0.049924
H1    H     H_    0.012120 0.358793 0.949139 0.216298
H2    H     H_    0.851793 0.384557 0.930031 0.195971
H3    H     H_    0.877195 0.552475 0.022838 0.231120
C8    C     C_1   0.998789 0.499644 0.250890 -0.045920
C9    C     C_3   0.000606 0.507119 0.915095 -0.113203
C10   C     C_3   0.028420 0.413214 0.073889 0.642814
C11   C     C_3   0.995941 0.498493 0.082624 -0.212817
C12   C     C_3   0.076881 0.604367 0.043248 0.039513
C13   C     C_3   0.066925 0.617470 0.940454 0.604223
C14   C     C_1   0.997205 0.498850 0.175320 0.219907
C15   C     C_1   0.001195 0.504190 0.823580 0.126452
C16   C     C_1   0.001175 0.501673 0.748756 -0.139574
H4    H     H_    0.153155 0.602847 0.070756 0.179362
H5    H     H_    0.127981 0.462229 0.971850 0.239560
C17   C     C_R   0.810411 0.204583 0.539671 -0.044960
C18   C     C_R   0.186709 0.793977 0.503201 -0.091923
C19   C     C_R   0.783129 0.029735 0.598596 -0.132681
C20   C     C_R   0.848736 0.129778 0.571554 -0.185197
C21   C     C_R   0.705786 0.178086 0.535526 -0.180969
C22   C     C_R   0.638295 0.078186 0.565479 0.021414
C23   C     C_R   0.678026 0.002805 0.595568 -0.004486
C24   C     C_R   0.531894 0.050761 0.561877 0.013253
C25   C     C_R   0.464525 0.946226 0.578399 -0.109057
C26   C     C_R   0.507949 0.874421 0.618915 0.272174
C27   C     C_R   0.612891 0.901707 0.622670 0.345631
C28   C     C_R   0.490393 0.124516 0.541802 -0.153571
C29   C     C_R   0.385499 0.096673 0.524575 -0.216652
C30   C     C_R   0.318915 0.995122 0.523472 0.162234
C31   C     C_R   0.357249 0.918608 0.551063 0.127701
C32   C     C_R   0.214663 0.969538 0.492149 -0.194199
C33   C     C_R   0.149125 0.869686 0.481494 -0.188298
C34   C     C_R   0.288319 0.818542 0.541400 -0.228235
H6    H     H_    0.312490 0.758347 0.559346 0.210192
H7    H     H_    0.069610 0.852184 0.455573 0.155340
H8    H     H_    0.356821 0.155643 0.507056 0.150257
H9    H     H_    0.815294 0.973609 0.622185 0.177464
H10   H     H_    0.929530 0.148549 0.576141 0.175499
H11   H     H_    0.678333 0.236679 0.507132 0.151439
H12   H     H_    0.537275 0.204768 0.539555 0.139524
H13   H     H_    0.184647 0.027499 0.472725 0.138540
N1    N     N_R   0.795410 0.560790 0.443550 -0.216633
N2    N     N_R   0.204590 0.439170 0.556520 -0.245868
C35   C     C_R   0.691077 0.623516 0.328783 -0.376814
C36   C     C_R   0.786512 0.621615 0.365297 0.660699
C37   C     C_R   0.716163 0.509348 0.491716 -0.082592
C38   C     C_R   0.619262 0.513136 0.459937 -0.035779
C39   C     C_R   0.607572 0.568824 0.375138 0.105051
C40   C     C_R   0.533843 0.464014 0.508186 0.072371
C41   C     C_R   0.441165 0.477140 0.471852 0.081872
C42   C     C_R   0.429011 0.518675 0.382385 -0.214871
C43   C     C_R   0.511693 0.566697 0.335797 -0.186920
C44   C     C_R   0.537224 0.402633 0.591013 -0.213303
C45   C     C_R   0.453863 0.358445 0.637076 -0.117935
C46   C     C_R   0.368246 0.381372 0.606315 0.038330
C47   C     C_R   0.363018 0.446329 0.525786 -0.130457
C48   C     C_R   0.288368 0.340474 0.656391 -0.405393
C49   C     C_R   0.206030 0.369655 0.630727 0.591986
C50   C     C_R   0.282243 0.481052 0.505646 0.498832
H14   H     H_    0.500622 0.603288 0.268605 0.163335
H15   H     H_    0.458360 0.309269 0.699373 0.162012
H16   H     H_    0.681211 0.664562 0.263270 0.159364
H17   H     H_    0.729409 0.463075 0.552860 0.161575
H18   H     H_    0.356099 0.516705 0.347686 0.206385
H19   H     H_    0.602396 0.385319 0.621097 0.156326
H20   H     H_    0.289823 0.285344 0.715084 0.171599
N3    N     N_R   0.948440 0.311174 0.101135 0.128316
O9    O     O_R   0.929901 0.283315 0.181942 -0.335321
O10   O     O_R   0.900502 0.245147 0.048024 -0.364317
O11   O     O_3   0.122976 0.425935 0.129825 -0.606564
C51   C     C_3   0.151745 0.344553 0.137690 0.118124
H21   H     H_    0.136213 0.317202 0.074525 0.141126
H22   H     H_    0.110250 0.279817 0.186710 0.196210
C52   C     C_3   0.265829 0.379984 0.169935 -0.781588
H23   H     H_    0.283278 0.403153 0.235109 0.250052
H24   H     H_    0.289627 0.317139 0.176013 0.214601
H25   H     H_    0.309707 0.445701 0.122886 0.258941
N4    N     N_R   0.077719 0.691953 0.072033 0.163551
O12   O     O_R   0.159388 0.748103 0.118456 -0.332361
O13   O     O_R   0.998007 0.713503 0.054176 -0.322718
O14   O     O_3   0.653350 0.829964 0.658525 -0.557311
C53   C     C_3   0.629018 0.765112 0.597333 0.076275
H26   H     H_    0.639545 0.807955 0.529391 0.118704
H27   H     H_    0.548831 0.707464 0.597877 0.178407
C54   C     C_3   0.699054 0.709361 0.623109 -0.744722
H28   H     H_    0.690052 0.664581 0.690148 0.289506
H29   H     H_    0.679473 0.656923 0.576396 0.203221
H30   H     H_    0.779834 0.765001 0.621318 0.231394
O15   O     O_3   0.450576 0.777247 0.657998 -0.622740
C55   C     C_3   0.446190 0.778899 0.745240 0.101843
H31   H     H_    0.395107 0.815653 0.746582 0.170918
H32   H     H_    0.523521 0.819749 0.780795 0.171148
C56   C     C_3   0.403047 0.669931 0.793112 -0.671212
H33   H     H_    0.452642 0.631712 0.791832 0.241605
H34   H     H_    0.400139 0.669474 0.862398 0.245628
H35   H     H_    0.324711 0.627288 0.760926 0.251709
O16   O     O_3   0.281909 0.559412 0.437319 -0.556412
C57   C     C_3   0.362337 0.651870 0.458309 0.039032
H36   H     H_    0.438840 0.654571 0.458902 0.131333
H37   H     H_    0.361433 0.662358 0.524488 0.159409
C58   C     C_3   0.353018 0.740118 0.389625 -0.709569
H38   H     H_    0.275861 0.739140 0.382491 0.254728
H39   H     H_    0.411432 0.813293 0.409070 0.194062
H40   H     H_    0.365599 0.734152 0.325298 0.254813
O17   O     O_3   0.121513 0.322702 0.675187 -0.553198
C59   C     C_3   0.148856 0.324973 0.766526 0.056809
H41   H     H_    0.106738 0.361482 0.785436 0.180402
H42   H     H_    0.231552 0.369999 0.787772 0.127172
C60   C     C_3   0.115377 0.216807 0.817109 -0.788720
H43   H     H_    0.155536 0.176790 0.800553 0.243285
H44   H     H_    0.133573 0.218587 0.888634 0.218202
H45   H     H_    0.031558 0.174196 0.800451 0.261132
O18   O     O_3   0.867411 0.667943 0.317073 -0.539029
C61   C     C_3   0.897212 0.774270 0.298972 0.013050
H46   H     H_    0.909158 0.805213 0.359673 0.120159
H47   H     H_    0.839153 0.794593 0.249854 0.155773
C62   C     C_3   0.997312 0.824428 0.260577 -0.659625
H48   H     H_    0.023880 0.908414 0.248969 0.195188
H49   H     H_    0.056889 0.803438 0.306393 0.238887
H50   H     H_    0.985980 0.799073 0.197351 0.287463
N5    N     N_R   0.825244 0.512364 0.864864 0.156325
O19   O     O_R   0.793388 0.482032 0.789098 -0.388580
O20   O     O_R   0.786885 0.568273 0.882823 -0.319291
N6    N     N_R   0.802356 0.399696 0.071081 0.176410
O21   O     O_R   0.779281 0.412997 0.140063 -0.318917
O22   O     O_R   0.738529 0.321445 0.034188 -0.276879
N7    N     N_R   0.172742 0.664756 0.917695 0.060381
O23   O     O_R   0.203126 0.623648 0.872574 -0.447571
O24   O     O_R   0.237682 0.750364 0.943133 -0.338292
O25   O     O_3   0.013306 0.681230 0.901193 -0.539967
C63   C     C_3   0.041715 0.741451 0.819425 0.183397
H51   H     H_    0.056798 0.701007 0.777725 0.133663
H52   H     H_    0.111214 0.811827 0.830697 0.189361
C64   C     C_3   0.956193 0.772714 0.769094 -0.736406
H53   H     H_    0.936816 0.811381 0.809470 0.278253
H54   H     H_    0.980778 0.825610 0.707737 0.173460
H55   H     H_    0.887373 0.704609 0.751683 0.282892

loop_
_geom_bond_atom_site_label_1
_geom_bond_atom_site_label_2
_geom_bond_distance
_ccdc_geom_bond_type
N1    C37   1.365487 A    
C5    H1    1.110628 S    
C51   H21   1.112885 S    
C38   C40   1.434310 A    
C54   H28   1.110769 S    
C26   C27   1.402883 A    
C6    N5    1.477704 S    
C11   C14   1.470462 S    
C57   H36   1.106325 S    
Cu1   Cu2   2.703832 S    
C5    C9    1.563130 S    
C30   C31   1.418016 A    
Cu1   O7    1.926770 S    
N5    O20   1.302029 A    
C31   C34   1.403936 A    
C35   H16   1.083338 S    
C22   C23   1.418326 A    
C26   O15   1.380554 S    
C39   C43   1.395239 A    
C4    C8    1.421324 S    
C15   C16   1.198950 T    
C63   H52   1.110917 S    
N6    O22   1.301911 A    
O25   C63   1.418266 S    
C44   C45   1.391375 A    
C58   H39   1.110753 S    
O4    C2    1.297806 A    
O7    C4    1.298771 A    
C55   H31   1.113287 S    
C18   C34   1.395067 A    
N7    O23   1.300585 A    
C53   H26   1.116657 S    
C7    H3    1.103367 S    
N7    O24   1.302251 A    
C19   C20   1.390878 A    
C48   C49   1.404271 A    
C13   O25   1.432744 S    
O5    C3    1.310349 A    
Cu2   N1    2.030996 S    
C33   H7    1.080838 S    
C41   C47   1.435680 A    
C63   H51   1.109581 S    
C6    C7    1.571906 S    
C10   O11   1.429385 S    
C62   H50   1.110559 S    
C10   C11   1.582904 S    
C45   C46   1.398575 A    
C50   O16   1.384068 S    
C36   O18   1.383359 S    
C29   H8    1.084483 S    
N1    C36   1.362943 A    
C5    C10   1.579255 S    
C41   C42   1.408482 A    
C8    C14   1.198843 T    
C12   N4    1.476313 S    
C54   H29   1.108740 S    
C9    C15   1.467969 S    
C58   H40   1.110665 S    
C45   H15   1.084143 S    
N4    O12   1.301394 A    
O3    Cu1   1.928713 S    
Cu1   N2    2.031346 S    
O14   C53   1.413831 S    
C30   C32   1.404170 A    
C6    H2    1.111632 S    
C7    C11   1.573783 S    
C42   C43   1.387171 A    
C17   C20   1.398483 A    
C37   H17   1.076014 S    
C63   C64   1.519850 S    
N6    O21   1.301350 A    
O3    C2    1.299521 A    
C56   H35   1.111086 S    
C24   C25   1.422142 A    
C46   C48   1.394537 A    
O11   C51   1.418048 S    
C24   C28   1.416164 A    
C12   C13   1.577151 S    
C64   H55   1.108732 S    
C35   C36   1.400531 A    
O1    C1    1.303841 A    
C61   H47   1.111637 S    
C28   C29   1.387429 A    
C3    C18   1.478585 S    
C37   C38   1.420096 A    
C32   H13   1.083872 S    
C52   H24   1.110410 S    
N3    O9    1.301934 A    
Cu2   O8    1.928715 S    
C49   O17   1.388163 S    
C11   C12   1.577103 S    
N4    O13   1.301026 A    
N2    C49   1.366377 A    
O17   C59   1.419213 S    
C10   N3    1.485106 S    
C25   C26   1.427084 A    
N3    O10   1.301868 A    
O8    C4    1.298642 A    
C40   C41   1.431215 A    
C54   H30   1.110139 S    
C53   H27   1.110675 S    
C51   H22   1.111749 S    
C62   H48   1.110424 S    
C64   H54   1.110608 S    
C27   O14   1.386211 S    
C61   C62   1.521888 S    
C25   C31   1.431186 A    
C59   H42   1.115722 S    
C13   N7    1.488412 S    
N2    C50   1.376642 A    
C48   H20   1.082649 S    
C29   C30   1.391290 A    
C52   H25   1.111324 S    
C62   H49   1.110098 S    
O16   C57   1.416435 S    
N5    O19   1.301494 A    
C12   H4    1.114890 S    
Cu1   O5    1.927146 S    
C21   C22   1.408245 A    
C6    C9    1.573756 S    
C19   C23   1.407831 A    
O2    Cu2   1.927146 S    
C42   H18   1.078880 S    
C32   C33   1.394296 A    
O6    C3    1.300171 A    
O4    Cu2   1.926770 S    
C57   H37   1.104433 S    
C17   C21   1.399749 A    
C5    H5    1.110185 S    
C43   H14   1.084114 S    
C53   C54   1.519623 S    
O15   C55   1.409550 S    
C35   C39   1.397066 A    
C59   C60   1.522801 S    
C56   H34   1.110102 S    
O2    C1    1.303922 A    
O18   C61   1.411873 S    
C46   C47   1.410078 A    
C22   C24   1.423523 A    
C21   H11   1.076354 S    
C56   H33   1.110908 S    
C47   C50   1.437635 A    
C52   H23   1.110225 S    
C60   H43   1.109475 S    
C55   H32   1.115834 S    
C60   H45   1.110880 S    
C40   C44   1.409495 A    
C61   H46   1.114455 S    
C7    N6    1.476872 S    
C1    C17   1.471264 S    
C57   C58   1.521802 S    
C44   H19   1.077474 S    
C38   C39   1.414699 A    
C23   C27   1.399911 A    
C28   H12   1.078202 S    
C2    C16   1.420815 S    
C19   H9    1.083268 S    
Cu2   O6    1.931607 S    
C34   H6    1.056807 S    
C9    C13   1.591743 S    
C51   C52   1.520988 S    
C60   H44   1.110568 S    
C18   C33   1.400548 A    
C64   H53   1.110644 S    
O1    Cu1   1.931607 S    
C59   H41   1.109770 S    
C58   H38   1.108485 S    
C20   H10   1.083163 S    
C55   C56   1.520253 S    
