data_mof_unit_12610.cif
_audit_creation_date              2012-12-11T16:28:21-0500
_audit_creation_method            fapswitch 2.2
_symmetry_space_group_name_H-M    P1
_symmetry_Int_Tables_number       1
_space_group_crystal_system       triclinic
_cell_length_a                    16.56452
_cell_length_b                    7.253855
_cell_length_c                    15.20501
_cell_angle_alpha                 90.000088
_cell_angle_beta                  94.750378
_cell_angle_gamma                 89.999986
_cell_volume                      1820.70693763

loop_
_atom_site_label
_atom_site_type_symbol
_atom_type_description
_atom_site_fract_x
_atom_site_fract_y
_atom_site_fract_z
_atom_type_partial_charge
O1    O     O_R   0.663460 0.361760 0.165970 -0.533916
O2    O     O_R   0.336540 0.638240 0.834030 -0.533916
O3    O     O_R   0.836540 0.861760 0.334030 -0.533917
O4    O     O_R   0.163460 0.138240 0.665970 -0.533917
O5    O     O_R   0.827100 0.689870 0.163730 -0.528325
O6    O     O_R   0.172900 0.310130 0.836270 -0.528325
O7    O     O_R   0.672900 0.189870 0.336270 -0.528324
O8    O     O_R   0.327100 0.810130 0.663730 -0.528324
H1    H     H_    0.209351 0.090013 0.502788 0.139727
H2    H     H_    0.790649 0.909987 0.497211 0.139727
H3    H     H_    0.290648 0.589993 0.997213 0.139724
H4    H     H_    0.709352 0.410007 0.002787 0.139724
C1    C     C_R   0.853244 0.522926 0.143537 0.707096
C2    C     C_R   0.146756 0.477074 0.856463 0.707096
C3    C     C_R   0.646756 0.022926 0.356464 0.707092
C4    C     C_R   0.353244 0.977074 0.643536 0.707092
O9    O     O_R   0.663490 0.691370 0.155500 -0.534655
O10   O     O_R   0.336510 0.308630 0.844500 -0.534655
O11   O     O_R   0.836510 0.191370 0.344500 -0.534655
O12   O     O_R   0.163490 0.808630 0.655500 -0.534655
O13   O     O_R   0.671770 0.863320 0.325740 -0.534516
O14   O     O_R   0.328230 0.136680 0.674260 -0.534516
O15   O     O_R   0.828230 0.363320 0.174260 -0.534516
O16   O     O_R   0.171770 0.636680 0.825740 -0.534515
C5    C     C_R   0.636203 0.522831 0.133731 0.672776
C6    C     C_R   0.363797 0.477169 0.866269 0.672776
C7    C     C_R   0.863796 0.022831 0.366269 0.672774
C8    C     C_R   0.136204 0.977169 0.633731 0.672774
O17   O     O_3   0.752910 0.528800 0.305860 -0.372194
O18   O     O_3   0.247090 0.471200 0.694140 -0.372194
O19   O     O_3   0.747090 0.028800 0.194140 -0.372192
O20   O     O_3   0.252910 0.971200 0.805860 -0.372192
V1    V     V_3+5 0.749460 0.803010 0.239640 1.496249
V2    V     V_3+5 0.250540 0.196990 0.760360 1.496249
V3    V     V_3+5 0.750540 0.303010 0.260360 1.496250
V4    V     V_3+5 0.249460 0.696990 0.739640 1.496250
C9    C     C_1   0.468787 0.994763 0.530066 0.135516
C10   C     C_1   0.531213 0.005237 0.469934 0.135516
C11   C     C_1   0.031213 0.494762 0.969933 0.135515
C12   C     C_1   0.968787 0.505237 0.030067 0.135515
C13   C     C_R   0.026593 0.120844 0.327666 -0.247893
C14   C     C_R   0.973407 0.879156 0.672334 -0.247893
C15   C     C_R   0.473406 0.620828 0.172336 -0.247889
C16   C     C_R   0.526594 0.379172 0.827664 -0.247889
C17   C     C_R   0.104223 0.168003 0.306124 0.316986
C18   C     C_R   0.895776 0.831997 0.693876 0.316986
C19   C     C_R   0.395775 0.667998 0.193877 0.316983
C20   C     C_R   0.604224 0.332002 0.806123 0.316983
C21   C     C_R   0.169579 0.157681 0.370350 0.335152
C22   C     C_R   0.830421 0.842319 0.629650 0.335152
C23   C     C_R   0.330419 0.657667 0.129652 0.335153
C24   C     C_R   0.669581 0.342333 0.870348 0.335152
C25   C     C_R   0.157004 0.098361 0.455456 -0.230995
C26   C     C_R   0.842996 0.901639 0.544544 -0.230995
C27   C     C_R   0.342994 0.598328 0.044547 -0.230990
C28   C     C_R   0.657006 0.401672 0.955453 -0.230990
C29   C     C_R   0.078890 0.049747 0.478805 0.020619
C30   C     C_R   0.921110 0.950253 0.521195 0.020619
C31   C     C_R   0.421109 0.549705 0.021198 0.020623
C32   C     C_R   0.578891 0.450295 0.978802 0.020623
C33   C     C_R   0.012238 0.062073 0.413692 0.020594
C34   C     C_R   0.987762 0.937927 0.586308 0.020594
C35   C     C_R   0.487760 0.562035 0.086312 0.020595
C36   C     C_R   0.512240 0.437965 0.913688 0.020595
C37   C     C_R   0.066784 0.987204 0.565139 -0.094503
C38   C     C_R   0.933215 0.012796 0.434861 -0.094502
C39   C     C_R   0.433216 0.487203 0.934860 -0.094506
C40   C     C_R   0.566784 0.512797 0.065140 -0.094506
C41   C     C_1   0.415934 0.986209 0.581390 -0.109740
C42   C     C_1   0.584066 0.013791 0.418610 -0.109740
C43   C     C_1   0.084066 0.486210 0.918609 -0.109740
C44   C     C_1   0.915934 0.513790 0.081391 -0.109740
H5    H     H_    0.977862 0.129882 0.275888 0.149067
H6    H     H_    0.022138 0.870118 0.724112 0.149067
H7    H     H_    0.522139 0.629888 0.224112 0.149065
H8    H     H_    0.477861 0.370112 0.775887 0.149065
Br1   Br    Br    0.118384 0.243997 0.187623 -0.428752
Br2   Br    Br    0.881616 0.756003 0.812377 -0.428752
Br3   Br    Br    0.381615 0.744012 0.312376 -0.428753
Br4   Br    Br    0.618385 0.255988 0.687624 -0.428753
Br5   Br    Br    0.722714 0.776857 0.655425 -0.378294
Br6   Br    Br    0.277286 0.223143 0.344575 -0.378294
Br7   Br    Br    0.777287 0.276837 0.844578 -0.378292
Br8   Br    Br    0.222713 0.723163 0.155422 -0.378292

loop_
_geom_bond_atom_site_label_1
_geom_bond_atom_site_label_2
_ccdc_geom_bond_type
C30   C34   A    
C10   C42   T    
C27   C31   A    
C2    C43   S    
O10   C6    A    
C13   C33   A    
C15   C35   A    
C16   C36   A    
O16   V4    S    
C6    C39   S    
C9    C41   T    
C14   C18   A    
O13   V1    S    
O3    V1    S    
C1    O15   A    
O8    V4    S    
C2    O16   A    
C16   H8    S    
C31   C39   A    
C33   C38   A    
C30   C38   A    
O5    V1    S    
O19   V1    S    
C19   Br3   S    
O11   C7    A    
C14   C34   A    
O5    C1    A    
O7    C3    A    
O8    C4    A    
C11   C43   T    
O1    C5    A    
C5    C40   S    
O9    V1    S    
O4    C8    A    
C15   H7    S    
O14   V2    S    
O4    V2    S    
C14   H6    S    
C36   C39   A    
C11   C12   S    
C18   Br2   S    
C25   C29   A    
C19   C23   A    
O12   C8    A    
C28   C32   A    
O20   V2    S    
C21   Br6   S    
C24   Br7   S    
C9    C10   S    
O6    C2    A    
C17   C21   A    
O2    C6    A    
C22   C26   A    
O10   V2    S    
H4    C28   S    
O15   V3    S    
H1    C25   S    
H3    C27   S    
O1    V3    S    
C26   C30   A    
O2    V4    S    
C3    C42   S    
O17   V3    S    
C35   C40   A    
C4    O14   A    
C12   C44   T    
C34   C37   A    
O7    V3    S    
C4    C41   S    
C29   C37   A    
C29   C33   A    
C1    C44   S    
C18   C22   A    
C31   C35   A    
O18   V4    S    
C32   C36   A    
O9    C5    A    
C20   Br4   S    
O3    C7    A    
C8    C37   S    
C7    C38   S    
O11   V3    S    
C3    O13   A    
C24   C28   A    
C21   C25   A    
C23   C27   A    
H2    C26   S    
C13   H5    S    
O12   V4    S    
O6    V2    S    
C20   C24   A    
C32   C40   A    
C13   C17   A    
C17   Br1   S    
C15   C19   A    
C23   Br8   S    
C16   C20   A    
C22   Br5   S    
