data_mof_unit_33505.cif
_audit_creation_date              2012-12-11T15:41:23-0500
_audit_creation_method            fapswitch 2.2
_symmetry_space_group_name_H-M    P1
_symmetry_Int_Tables_number       1
_space_group_crystal_system       triclinic
_cell_length_a                    19.263249
_cell_length_b                    10.980898
_cell_length_c                    18.733972
_cell_angle_alpha                 90.136103
_cell_angle_beta                  90.215684
_cell_angle_gamma                 89.299707
_cell_volume                      3962.42054858

loop_
_atom_site_label
_atom_site_type_symbol
_atom_type_description
_atom_site_fract_x
_atom_site_fract_y
_atom_site_fract_z
_atom_type_partial_charge
C1    C     C_R   0.707822 0.004694 0.860300 0.570647
C2    C     C_R   0.293627 0.492359 0.040096 -0.000868
C3    C     C_R   0.762411 0.855778 0.355870 0.547598
C4    C     C_2   0.498048 0.174298 0.921324 -0.098808
C5    C     C_2   0.502826 0.161131 0.079023 -0.126873
C6    C     C_2   0.998051 0.674297 0.921326 -0.098806
C7    C     C_2   0.002831 0.661128 0.079025 -0.126876
C8    C     C_2   0.481216 0.071236 0.035652 -0.173367
C9    C     C_2   0.492856 0.070685 0.958072 -0.177011
C10   C     C_2   0.981224 0.571232 0.035655 -0.173367
C11   C     C_2   0.992862 0.570683 0.958074 -0.177005
C12   C     C_R   0.777343 0.473307 0.064266 0.012317
C13   C     C_R   0.206832 0.987662 0.957104 -0.011335
C14   C     C_R   0.217334 0.495554 0.937803 0.006894
C15   C     C_R   0.277348 0.973316 0.064268 0.012325
C16   C     C_R   0.717337 0.995545 0.937803 0.006896
C17   C     C_R   0.607272 0.606425 0.067639 0.064272
C18   C     C_R   0.569668 0.500356 0.056131 -0.103761
C19   C     C_R   0.512663 0.476438 0.097178 -0.109048
C20   C     C_R   0.490944 0.554740 0.151601 -0.093533
C21   C     C_R   0.525855 0.662861 0.162153 -0.137794
C22   C     C_R   0.582879 0.689063 0.119566 -0.071571
C23   C     C_R   0.364873 0.398411 0.892902 0.050538
C24   C     C_R   0.793634 0.992330 0.040090 -0.000862
C25   C     C_R   0.398263 0.427297 0.828511 -0.037295
C26   C     C_R   0.399215 0.344573 0.771721 -0.065103
C27   C     C_R   0.369405 0.230268 0.779471 -0.095850
C28   C     C_R   0.338211 0.198915 0.843899 -0.109006
C29   C     C_R   0.335510 0.282348 0.900425 -0.087610
C30   C     C_R   0.107279 0.106415 0.067653 0.064303
C31   C     C_R   0.069688 0.000327 0.056158 -0.103752
C32   C     C_R   0.012674 0.976422 0.097193 -0.109038
C33   C     C_R   0.990938 0.054743 0.151602 -0.093535
C34   C     C_R   0.025839 0.162880 0.162145 -0.137811
C35   C     C_R   0.817579 0.385008 0.953632 -0.152274
C36   C     C_R   0.082872 0.189074 0.119568 -0.071572
C37   C     C_R   0.864865 0.898358 0.892888 0.050540
C38   C     C_R   0.898244 0.927239 0.828488 -0.037269
C39   C     C_R   0.899189 0.844507 0.771700 -0.065122
C40   C     C_R   0.869386 0.730195 0.779462 -0.095860
C41   C     C_R   0.838200 0.698851 0.843898 -0.109006
C42   C     C_R   0.835502 0.782296 0.900420 -0.087613
C43   C     C_R   0.174508 0.452630 0.057631 -0.159985
C44   C     C_R   0.317579 0.884994 0.953635 -0.152264
C45   C     C_R   0.674512 0.952638 0.057634 -0.159980
C46   C     C_R   0.825856 0.403288 0.026196 -0.162497
C47   C     C_R   0.162222 0.469965 0.984012 -0.166008
C48   C     C_R   0.325856 0.903277 0.026200 -0.162497
C49   C     C_R   0.290416 0.000326 0.138848 0.557324
C50   C     C_R   0.662224 0.969977 0.984015 -0.166007
C51   C     C_3   0.674004 0.625483 0.026837 -0.120992
C52   C     C_3   0.354388 0.498470 0.948092 -0.122834
C53   C     C_3   0.174003 0.125491 0.026840 -0.120991
C54   C     C_3   0.854393 0.998421 0.948080 -0.122836
C55   C     C_3   0.667026 0.604137 0.946003 -0.279221
C56   C     C_3   0.367218 0.463894 0.025535 -0.283169
C57   C     C_3   0.167017 0.104132 0.946005 -0.279229
C58   C     C_3   0.867225 0.963844 0.025523 -0.283162
C59   C     C_R   0.756965 0.426390 0.917681 0.004949
C60   C     C_R   0.207822 0.504695 0.860299 0.570648
C61   C     C_R   0.243134 0.442541 0.084032 0.003462
C62   C     C_R   0.256968 0.926389 0.917683 0.004962
C63   C     C_R   0.743139 0.942533 0.084030 0.003463
C64   C     C_R   0.482775 0.170451 0.431937 0.022934
C65   C     C_R   0.490307 0.170761 0.580088 0.013425
C66   C     C_R   0.982773 0.670451 0.431938 0.022935
C67   C     C_R   0.990306 0.670761 0.580089 0.013423
C68   C     C_R   0.472825 0.277727 0.470484 0.047745
C69   C     C_R   0.475814 0.279023 0.543140 0.021682
C70   C     C_R   0.972822 0.777727 0.470484 0.047744
C71   C     C_R   0.790414 0.500320 0.138847 0.557319
C72   C     C_R   0.975813 0.779023 0.543140 0.021678
C73   C     C_R   0.485957 0.059514 0.543384 -0.171291
C74   C     C_R   0.484373 0.059435 0.468877 -0.167002
C75   C     C_R   0.985955 0.559514 0.543384 -0.171289
C76   C     C_R   0.984370 0.559434 0.468878 -0.166999
C77   C     C_R   0.530079 0.178600 0.850818 0.553198
C78   C     C_R   0.470641 0.176178 0.149512 0.544798
C79   C     C_R   0.030079 0.678600 0.850818 0.553202
C80   C     C_R   0.970643 0.676177 0.149513 0.544796
C81   C     C_3   0.507779 0.397116 0.462146 -0.274079
C82   C     C_R   0.717310 0.511813 0.028306 0.024527
C83   C     C_3   0.511043 0.400967 0.542496 -0.270817
C84   C     C_3   0.007777 0.897116 0.462147 -0.274078
C85   C     C_3   0.011041 0.900966 0.542497 -0.270819
C86   C     C_R   0.749601 0.409731 0.420925 0.014474
C87   C     C_R   0.249348 0.400616 0.580668 0.012609
C88   C     C_R   0.249600 0.909729 0.420925 0.014474
C89   C     C_R   0.749348 0.900614 0.580668 0.012609
C90   C     C_R   0.787004 0.317225 0.455503 0.019941
C91   C     C_R   0.202543 0.328190 0.542527 0.021786
C92   C     C_R   0.287005 0.817224 0.455503 0.019941
C93   C     C_R   0.280814 0.521698 0.969633 0.035058
C94   C     C_R   0.702543 0.828189 0.542527 0.021786
C95   C     C_R   0.784963 0.308015 0.528536 0.047495
C96   C     C_R   0.206787 0.318863 0.469707 0.035716
C97   C     C_R   0.284963 0.808012 0.528536 0.047495
C98   C     C_R   0.706787 0.818863 0.469707 0.035716
C99   C     C_R   0.698926 0.467941 0.535315 -0.171214
C100  C     C_R   0.311899 0.434192 0.470429 -0.149145
C101  C     C_R   0.198925 0.967937 0.535314 -0.171213
C102  C     C_R   0.811901 0.934187 0.470430 -0.149146
C103  C     C_R   0.700827 0.478197 0.460879 -0.164528
C104  C     C_R   0.217323 0.011840 0.028304 0.024505
C105  C     C_R   0.308315 0.442732 0.545040 -0.156194
C106  C     C_R   0.200826 0.978193 0.460879 -0.164528
C107  C     C_R   0.808316 0.942727 0.545041 -0.156195
C108  C     C_3   0.862471 0.282525 0.453811 -0.270575
C109  C     C_3   0.124717 0.331523 0.539236 -0.268344
C110  C     C_3   0.362473 0.782537 0.453813 -0.270575
C111  C     C_3   0.624717 0.831525 0.539235 -0.268343
C112  C     C_3   0.860273 0.276497 0.534347 -0.267968
C113  C     C_3   0.130108 0.321079 0.459120 -0.277679
C114  C     C_3   0.360275 0.776508 0.534348 -0.267969
C115  C     C_R   0.780821 0.021666 0.969627 0.035060
C116  C     C_3   0.630108 0.821081 0.459120 -0.277680
C117  C     C_R   0.744982 0.387733 0.570084 0.021472
C118  C     C_R   0.257428 0.380346 0.431773 0.019206
C119  C     C_R   0.244981 0.887730 0.570084 0.021471
C120  C     C_R   0.757429 0.880344 0.431774 0.019206
C121  C     C_R   0.739717 0.367893 0.850510 0.538372
C122  C     C_R   0.260637 0.367837 0.148195 0.524318
C123  C     C_R   0.239718 0.867894 0.850511 0.538369
C124  C     C_R   0.760637 0.867835 0.148194 0.524321
C125  C     C_R   0.727963 0.953450 0.648440 0.555361
C126  C     C_R   0.706823 0.487645 0.957102 -0.011319
C127  C     C_R   0.272132 0.955000 0.352152 0.561979
C128  C     C_R   0.227963 0.453450 0.648440 0.555360
C129  C     C_R   0.772132 0.455000 0.352153 0.561979
C130  C     C_R   0.528071 0.176915 0.646331 0.541827
C131  C     C_R   0.467758 0.176218 0.356873 0.550043
C132  C     C_R   0.028071 0.676915 0.646331 0.541828
C133  C     C_R   0.967757 0.676218 0.356873 0.550043
C134  C     C_R   0.738515 0.359363 0.645230 0.543318
C135  C     C_R   0.262411 0.355778 0.355870 0.547598
C136  C     C_R   0.238514 0.859362 0.645230 0.543319
Cr1   Cr    Cr6+3 0.769260 0.163750 0.750730 0.992949
Cr2   Cr    Cr6+3 0.385810 0.322400 0.252290 0.993143
Cr3   Cr    Cr6+3 0.114190 0.822400 0.747710 0.992212
Cr4   Cr    Cr6+3 0.885810 0.822400 0.252290 0.993147
Cr5   Cr    Cr6+3 0.230740 0.163750 0.249270 1.012787
Cr6   Cr    Cr6+3 0.269260 0.663750 0.750730 0.992954
Cr7   Cr    Cr6+3 0.730740 0.663750 0.249270 1.012778
Cr8   Cr    Cr6+3 0.612640 0.009910 0.748780 0.995737
Cr9   Cr    Cr6+3 0.387360 0.009910 0.251220 0.994155
Cr10  Cr    Cr6+3 0.112640 0.509910 0.748780 0.995735
Cr11  Cr    Cr6+3 0.887360 0.509910 0.251220 0.994154
Cr12  Cr    Cr6+3 0.614190 0.322400 0.747710 0.992208
H1    H     H_    0.452689 0.996292 0.057408 0.147028
H2    H     H_    0.478162 0.474479 0.566045 0.114991
H3    H     H_    0.059573 0.887862 0.436569 0.141898
H4    H     H_    0.978160 0.974478 0.566045 0.114993
H5    H     H_    0.663689 0.525525 0.565566 0.119586
H6    H     H_    0.355538 0.472865 0.443036 0.125033
H7    H     H_    0.163687 0.025521 0.565565 0.119585
H8    H     H_    0.855540 0.972858 0.443037 0.125033
H9    H     H_    0.668863 0.547377 0.435688 0.135395
H10   H     H_    0.348357 0.489975 0.574021 0.114232
H11   H     H_    0.168861 0.047371 0.435687 0.135394
H12   H     H_    0.497743 0.983342 0.931140 0.135025
H13   H     H_    0.848360 0.989966 0.574022 0.114227
H14   H     H_    0.896311 0.355687 0.434504 0.162834
H15   H     H_    0.103274 0.420864 0.556130 0.170850
H16   H     H_    0.396309 0.855706 0.434506 0.162838
H17   H     H_    0.603275 0.920867 0.556129 0.170851
H18   H     H_    0.871486 0.192452 0.428147 0.124815
H19   H     H_    0.101098 0.250638 0.564652 0.126951
H20   H     H_    0.371495 0.692466 0.428148 0.124814
H21   H     H_    0.601096 0.750641 0.564651 0.126951
H22   H     H_    0.870065 0.184120 0.555593 0.134598
H23   H     H_    0.952701 0.496284 0.057411 0.147021
H24   H     H_    0.109867 0.233931 0.437920 0.132802
H25   H     H_    0.370073 0.684132 0.555594 0.134593
H26   H     H_    0.609866 0.733933 0.437920 0.132800
H27   H     H_    0.890351 0.349370 0.561015 0.134052
H28   H     H_    0.111729 0.403959 0.430391 0.137916
H29   H     H_    0.390348 0.849387 0.561017 0.134055
H30   H     H_    0.611730 0.903961 0.430391 0.137916
H31   H     H_    0.536706 0.230736 0.058709 0.097898
H32   H     H_    0.487372 0.260967 0.947448 0.108247
H33   H     H_    0.036713 0.730730 0.058711 0.097890
H34   H     H_    0.997743 0.483341 0.931140 0.135021
H35   H     H_    0.987377 0.760966 0.947451 0.108242
H36   H     H_    0.857445 0.331586 0.926987 0.137711
H37   H     H_    0.130772 0.442280 0.092217 0.122102
H38   H     H_    0.357443 0.831560 0.926992 0.137702
H39   H     H_    0.630780 0.942286 0.092225 0.122104
H40   H     H_    0.870489 0.361867 0.052033 0.130618
H41   H     H_    0.110872 0.458000 0.962981 0.136521
H42   H     H_    0.370485 0.861843 0.052039 0.130622
H43   H     H_    0.610873 0.958030 0.962987 0.136521
H44   H     H_    0.203733 0.207782 0.040712 0.135214
H45   H     H_    0.973601 0.968858 0.438936 0.131886
H46   H     H_    0.880105 0.085310 0.933836 0.114326
H47   H     H_    0.703742 0.707762 0.040719 0.135210
H48   H     H_    0.380095 0.585362 0.933850 0.114323
H49   H     H_    0.613212 0.588839 0.926619 0.139938
H50   H     H_    0.380121 0.366353 0.035177 0.134144
H51   H     H_    0.113205 0.088804 0.926628 0.139943
H52   H     H_    0.880124 0.866297 0.035162 0.134139
H53   H     H_    0.696227 0.670833 0.913710 0.139738
H54   H     H_    0.397612 0.534738 0.052354 0.138095
H55   H     H_    0.196205 0.170833 0.913702 0.139743
H56   H     H_    0.065368 0.898220 0.561944 0.176312
H57   H     H_    0.897629 0.034681 0.052338 0.138085
H58   H     H_    0.491687 0.973985 0.571383 0.115750
H59   H     H_    0.487578 0.974049 0.440344 0.116347
H60   H     H_    0.991685 0.473985 0.571384 0.115749
H61   H     H_    0.987574 0.474049 0.440345 0.116348
H62   H     H_    0.583848 0.435201 0.015112 0.112029
H63   H     H_    0.482863 0.400818 0.081436 0.135301
H64   H     H_    0.445265 0.534646 0.182692 0.141981
H65   H     H_    0.508316 0.727080 0.202357 0.101942
H66   H     H_    0.606496 0.773563 0.128241 0.135827
H67   H     H_    0.473602 0.468857 0.438935 0.131887
H68   H     H_    0.420713 0.516262 0.820963 0.080636
H69   H     H_    0.422930 0.369362 0.721641 0.115739
H70   H     H_    0.370574 0.165945 0.735602 0.105972
H71   H     H_    0.315281 0.110455 0.849422 0.112630
H72   H     H_    0.309180 0.257581 0.949109 0.102110
H73   H     H_    0.083877 0.935156 0.015150 0.112023
H74   H     H_    0.982873 0.900806 0.081445 0.135303
H75   H     H_    0.945255 0.034650 0.182685 0.141985
H76   H     H_    0.008283 0.227121 0.202332 0.101953
H77   H     H_    0.106482 0.273584 0.128239 0.135802
H78   H     H_    0.565370 0.398220 0.561944 0.176311
H79   H     H_    0.920692 0.016204 0.820931 0.080649
H80   H     H_    0.922896 0.869292 0.721614 0.115731
H81   H     H_    0.870554 0.665863 0.735597 0.105977
H82   H     H_    0.815274 0.610387 0.849431 0.112630
H83   H     H_    0.809177 0.757534 0.949111 0.102101
H84   H     H_    0.559575 0.387864 0.436568 0.141897
O1    O     O_R   0.784290 0.290360 0.830540 -0.540375
O2    O     O_R   0.456020 0.282110 0.333230 -0.516766
O3    O     O_R   0.043980 0.782110 0.666770 -0.537145
O4    O     O_R   0.956020 0.782110 0.333230 -0.516765
O5    O     O_R   0.679070 0.374030 0.674430 -0.508323
O6    O     O_R   0.320930 0.374030 0.325570 -0.507741
O7    O     O_R   0.179070 0.874030 0.674430 -0.508324
O8    O     O_R   0.820930 0.874030 0.325570 -0.507742
O9    O     O_3   0.665360 0.165350 0.749070 -0.264640
O10   O     O_3   0.334640 0.165350 0.250930 -0.266384
O11   O     O_3   0.165360 0.665350 0.749070 -0.264643
O12   O     O_R   0.215710 0.290360 0.169460 -0.548071
O13   O     O_3   0.834640 0.665350 0.250930 -0.266379
O14   O     O_R   0.762610 0.041070 0.825230 -0.495109
O15   O     O_R   0.237390 0.041070 0.174770 -0.481950
O16   O     O_R   0.262610 0.541070 0.825230 -0.495100
O17   O     O_R   0.737390 0.541070 0.174770 -0.481952
O18   O     O_R   0.667390 0.924160 0.829970 -0.521108
O19   O     O_R   0.332610 0.924160 0.170030 -0.524375
O20   O     O_R   0.167390 0.424160 0.829970 -0.521114
O21   O     O_R   0.832610 0.424160 0.170030 -0.524372
O22   O     O_R   0.553980 0.081420 0.821780 -0.516505
O23   O     O_R   0.284290 0.790360 0.830540 -0.540374
O24   O     O_R   0.446020 0.081420 0.178220 -0.513561
O25   O     O_R   0.053980 0.581420 0.821780 -0.516504
O26   O     O_R   0.946020 0.581420 0.178220 -0.513560
O27   O     O_R   0.543210 0.283170 0.826740 -0.520454
O28   O     O_R   0.456790 0.283170 0.173260 -0.529176
O29   O     O_R   0.043210 0.783170 0.826740 -0.520453
O30   O     O_R   0.956790 0.783170 0.173260 -0.529176
O31   O     O_R   0.678350 0.375000 0.822720 -0.496470
O32   O     O_R   0.321650 0.375000 0.177280 -0.502573
O33   O     O_R   0.178350 0.875000 0.822720 -0.496470
O34   O     O_R   0.715710 0.790360 0.169460 -0.548087
O35   O     O_R   0.821650 0.875000 0.177280 -0.502570
O36   O     O_R   0.785060 0.289300 0.670580 -0.520860
O37   O     O_R   0.214940 0.289300 0.329420 -0.518119
O38   O     O_R   0.285060 0.789300 0.670580 -0.520859
O39   O     O_R   0.714940 0.789300 0.329420 -0.518121
O40   O     O_R   0.763330 0.040090 0.676940 -0.502901
O41   O     O_R   0.236670 0.040090 0.323060 -0.500571
O42   O     O_R   0.263330 0.540090 0.676940 -0.502899
O43   O     O_R   0.736670 0.540090 0.323060 -0.500571
O44   O     O_R   0.668160 0.923110 0.670000 -0.518791
O45   O     O_R   0.554690 0.080440 0.673480 -0.508394
O46   O     O_R   0.331840 0.923110 0.330000 -0.521920
O47   O     O_R   0.168160 0.423110 0.670000 -0.518791
O48   O     O_R   0.831840 0.423110 0.330000 -0.521919
O49   O     O_R   0.445310 0.080440 0.326520 -0.510356
O50   O     O_R   0.054690 0.580440 0.673480 -0.508394
O51   O     O_R   0.945310 0.580440 0.326520 -0.510357
O52   O     O_R   0.543980 0.282110 0.666770 -0.537150

loop_
_geom_bond_atom_site_label_1
_geom_bond_atom_site_label_2
_ccdc_geom_bond_type
C76   H61   S    
C45   H39   S    
C7    C10   D    
C99   C103  A    
C73   H58   S    
Cr8   O18   S    
C97   C119  A    
C36   H77   S    
C54   H46   S    
C87   C91   A    
C44   C48   A    
C41   C42   A    
C132  O50   A    
C67   C132  S    
C52   H48   S    
Cr5   O41   S    
Cr9   O49   S    
Cr6   O16   S    
C17   C51   S    
C72   C85   S    
C23   C52   S    
C67   C75   A    
C65   C73   A    
C90   C95   A    
C89   C125  S    
C95   C117  A    
C59   C126  A    
C58   H52   S    
C100  C105  A    
C136  O7    A    
Cr7   O39   S    
C68   C81   S    
C64   C68   A    
C96   C118  A    
C28   C29   A    
C18   H62   S    
C16   C50   A    
C18   C19   A    
C88   C127  S    
C116  H30   S    
C1    O14   A    
C38   C39   A    
Cr1   O36   S    
C103  H9    S    
C56   H54   S    
C101  H7    S    
C53   C104  S    
Cr6   O11   S    
C55   H53   S    
C94   C111  S    
C135  O37   A    
C3    O39   A    
C129  O48   A    
C35   C59   A    
C67   C72   A    
C73   C74   A    
C89   C94   A    
C64   C74   A    
C5    H31   S    
C21   H65   S    
C130  O52   A    
C109  H19   S    
C85   H56   S    
C91   C96   A    
C31   H73   S    
C52   C56   S    
C110  H20   S    
C114  H25   S    
C112  H22   S    
C13   C62   A    
Cr9   O46   S    
C122  O32   A    
C68   C69   A    
C81   H84   S    
Cr10  O11   S    
C55   C126  S    
Cr9   O24   S    
C111  C116  S    
C111  H17   S    
Cr5   O37   S    
C15   C104  A    
C70   C84   S    
C110  C114  S    
C14   C93   A    
C123  O23   A    
Cr2   O10   S    
C2    C61   A    
C109  C113  S    
C3    O8    A    
C83   H2    S    
Cr1   O9    S    
C42   H83   S    
C23   C25   A    
C78   O28   A    
Cr3   O33   S    
C127  O46   A    
C130  O45   A    
Cr4   O30   S    
C21   C22   A    
C57   H51   S    
C26   H69   S    
Cr7   O43   S    
C97   C114  S    
C89   C107  A    
C127  O41   A    
C11   H34   S    
C15   C48   A    
C4    H32   S    
Cr4   O8    S    
C86   C103  A    
C87   C128  S    
C81   C83   S    
Cr1   O40   S    
C34   H76   S    
C92   C97   A    
Cr11  O48   S    
C113  H24   S    
C56   H50   S    
C74   H59   S    
C25   H68   S    
C131  O2    A    
C134  O36   A    
C33   C34   A    
C30   C53   S    
Cr2   O28   S    
Cr5   O12   S    
C70   C72   A    
C7    H33   S    
C125  O40   A    
Cr3   O7    S    
Cr12  O5    S    
C101  C119  A    
C107  H13   S    
C102  C107  A    
C80   O30   A    
C84   C85   S    
C80   O26   A    
C12   C46   A    
C86   C90   A    
C49   O19   A    
C6    C11   D    
C1    C16   S    
C53   C57   S    
C1    O18   A    
C8    C9    S    
Cr5   O10   S    
C122  O12   A    
C58   H57   S    
C44   C62   A    
C35   H36   S    
C133  O51   A    
C108  H14   S    
Cr11  O21   S    
C54   C115  S    
Cr6   O23   S    
Cr7   O13   S    
C117  C134  S    
C61   C122  S    
C111  H21   S    
C133  O4    A    
C79   O25   A    
C47   H41   S    
C75   C76   A    
Cr6   O38   S    
Cr12  O52   S    
C37   C38   A    
C69   C83   S    
C99   C117  A    
C66   C133  S    
C88   C106  A    
C75   H60   S    
C123  O33   A    
C105  H10   S    
C98   C116  S    
C31   C32   A    
C87   C105  A    
C64   C131  S    
C84   H45   S    
C114  H29   S    
C66   C76   A    
Cr8   O9    S    
C57   H55   S    
C37   C42   A    
C17   C18   A    
C26   C27   A    
Cr4   O35   S    
C12   C82   A    
C52   C93   S    
C86   C129  S    
C25   C26   A    
C88   C92   A    
C20   C21   A    
C13   C104  A    
C50   H43   S    
C10   H23   S    
C51   C82   S    
C128  O42   A    
Cr11  O51   S    
C49   O15   A    
C45   C63   A    
C24   C115  A    
C113  H28   S    
C37   C54   S    
C33   H75   S    
C40   C41   A    
C12   C71   S    
Cr2   O32   S    
C60   O16   A    
C28   H71   S    
C121  O1    A    
C10   C11   S    
Cr3   O29   S    
Cr3   O3    S    
Cr12  O9    S    
C79   O29   A    
C134  O5    A    
C19   H63   S    
C96   C113  S    
Cr2   O2    S    
C100  C118  A    
Cr8   O45   S    
Cr12  O27   S    
Cr1   O1    S    
Cr10  O47   S    
C16   C115  A    
C23   C29   A    
C131  O49   A    
Cr3   O11   S    
C43   C61   A    
Cr4   O4    S    
C54   C58   S    
C100  H6    S    
C101  C106  A    
C108  H18   S    
C39   C40   A    
C125  O44   A    
C110  H16   S    
Cr7   O17   S    
C55   H49   S    
C48   H42   S    
Cr9   O19   S    
C2    C93   A    
C71   O21   A    
C77   O22   A    
C119  C136  S    
C102  H8    S    
Cr10  O50   S    
C53   H44   S    
C5    C8    D    
C32   H74   S    
Cr8   O44   S    
C39   H80   S    
C98   C120  A    
C14   C47   A    
C30   C36   A    
C24   C63   A    
C14   C60   S    
C66   C70   A    
C124  O35   A    
C43   H37   S    
C17   C22   A    
C9    H12   S    
C135  O6    A    
C116  H26   S    
C6    H35   S    
C95   C112  S    
C102  C120  A    
C78   O24   A    
C32   C33   A    
Cr7   O34   S    
C19   C20   A    
C22   H66   S    
C8    H1    S    
C40   H81   S    
C85   H4    S    
C90   C108  S    
C4    C77   S    
C92   C110  S    
C128  O47   A    
C2    C56   S    
C121  O31   A    
C63   C124  S    
C109  H15   S    
Cr1   O14   S    
C35   C46   A    
C30   C31   A    
C91   C109  S    
C6    C79   S    
C81   H67   S    
Cr8   O22   S    
C45   C50   A    
Cr11  O26   S    
C65   C69   A    
Cr6   O42   S    
C99   H5    S    
C124  O34   A    
Cr5   O15   S    
C34   C36   A    
C62   C123  S    
Cr9   O10   S    
Cr2   O6    S    
C51   C55   S    
C20   H64   S    
Cr12  O31   S    
C15   C49   S    
C132  O3    A    
C129  O43   A    
C3    C120  S    
Cr4   O13   S    
C5    C78   S    
C84   H3    S    
C108  C112  S    
C112  H27   S    
C13   C57   S    
C41   H82   S    
Cr11  O13   S    
C27   H70   S    
C24   C58   S    
C77   O27   A    
C65   C130  S    
Cr10  O20   S    
C27   C28   A    
C60   O20   A    
C94   C98   A    
C38   H79   S    
Cr10  O25   S    
C136  O38   A    
C46   H40   S    
C4    C9    D    
C59   C121  S    
C43   C47   A    
C71   O17   A    
C51   H47   S    
C82   C126  A    
C118  C135  S    
C106  H11   S    
C44   H38   S    
C7    C80   S    
C29   H72   S    
C83   H78   S    
