data_mof_unit_12220.cif
_audit_creation_date              2012-12-11T15:28:44-0500
_audit_creation_method            fapswitch 2.2
_symmetry_space_group_name_H-M    P1
_symmetry_Int_Tables_number       1
_space_group_crystal_system       triclinic
_cell_length_a                    6.958318
_cell_length_b                    19.610223
_cell_length_c                    23.29367
_cell_angle_alpha                 95.863643
_cell_angle_beta                  91.202375
_cell_angle_gamma                 88.663722
_cell_volume                      3160.47495771

loop_
_atom_site_label
_atom_site_type_symbol
_atom_type_description
_atom_site_fract_x
_atom_site_fract_y
_atom_site_fract_z
_atom_type_partial_charge
O1    O     O_R   0.617180 0.809390 0.808140 -0.521556
O2    O     O_R   0.382820 0.190610 0.191860 -0.521911
O3    O     O_R   0.293300 0.672410 0.795490 -0.533992
O4    O     O_R   0.706700 0.327590 0.204510 -0.533829
O5    O     O_R   0.117220 0.690610 0.691850 -0.522157
O6    O     O_R   0.882780 0.309390 0.308150 -0.522114
C1    C     C_R   0.464370 0.647735 0.805158 0.730805
C2    C     C_R   0.535628 0.352254 0.194829 0.731074
O7    O     O_R   0.287840 0.807750 0.814460 -0.524293
O8    O     O_R   0.712160 0.192250 0.185540 -0.524349
O9    O     O_R   0.111720 0.826910 0.710960 -0.527778
O10   O     O_R   0.888280 0.173090 0.289040 -0.533349
C3    C     C_R   0.456509 0.830750 0.833179 0.717182
C4    C     C_R   0.543489 0.169255 0.166818 0.716486
O11   O     O_R   0.622680 0.673080 0.789040 -0.537746
O12   O     O_R   0.377320 0.326920 0.210960 -0.537769
O13   O     O_3   0.448820 0.756130 0.716020 -0.358309
O14   O     O_3   0.551180 0.243870 0.283980 -0.359252
V1    V     V_3+5 0.176220 0.748860 0.756300 1.418938
V2    V     V_3+5 0.823780 0.251140 0.243700 1.414853
O15   O     O_R   0.781670 0.827580 0.704500 -0.537548
O16   O     O_R   0.218330 0.172420 0.295500 -0.533127
C5    C     C_R   0.947622 0.851915 0.693939 0.720046
C6    C     C_R   0.052831 0.147864 0.305854 0.725315
O17   O     O_R   0.787130 0.692240 0.685530 -0.526507
O18   O     O_R   0.212870 0.307760 0.314470 -0.526509
C7    C     C_R   0.956063 0.669159 0.666839 0.707789
C8    C     C_R   0.043936 0.330766 0.333211 0.711452
V3    V     V_3+5 0.675510 0.751130 0.743690 1.408980
V4    V     V_3+5 0.324490 0.248870 0.256310 1.411559
O19   O     O_3   0.952780 0.743870 0.783980 -0.358391
O20   O     O_3   0.047220 0.256130 0.216020 -0.358593
C9    C     C_1   0.966575 0.616994 0.614854 -0.216145
C10   C     C_1   0.033442 0.382796 0.385283 -0.218808
C11   C     C_1   0.978198 0.573435 0.572073 0.001124
C12   C     C_1   0.021845 0.426262 0.428127 -0.001723
C13   C     C_1   0.993455 0.521651 0.521454 0.001694
C14   C     C_1   0.006606 0.477988 0.478783 0.001191
C15   C     C_R   0.945134 0.915375 0.664454 -0.116070
C16   C     C_R   0.062242 0.085703 0.337211 -0.115850
C17   C     C_R   0.842033 0.034848 0.664527 0.375995
C18   C     C_R   0.226462 0.976146 0.345806 0.380798
C19   C     C_R   0.859632 0.974513 0.692019 -0.251480
C20   C     C_R   0.171774 0.029895 0.313270 -0.239213
C21   C     C_R   0.013188 0.916255 0.608173 -0.184672
C22   C     C_R   0.000981 0.086753 0.394458 -0.185817
C23   C     C_R   0.006504 0.977402 0.579715 0.023110
C24   C     C_R   0.068772 0.036420 0.430883 0.029428
C25   C     C_R   0.913720 0.036083 0.608303 0.043781
C26   C     C_R   0.179192 0.980121 0.404767 0.049893
C27   C     C_R   0.080470 0.981277 0.522826 -0.010051
C28   C     C_R   0.031124 0.039479 0.491959 -0.010077
C29   C     C_R   0.957297 0.099455 0.524655 0.263115
C30   C     C_R   0.210934 0.931114 0.496727 0.257603
C31   C     C_R   0.896315 0.096226 0.581042 -0.216677
C32   C     C_R   0.251378 0.929822 0.438292 -0.215002
H1    H     H_    0.837922 0.142580 0.604212 0.180764
H2    H     H_    0.348491 0.889980 0.419626 0.180607
H3    H     H_    0.903895 0.128009 0.409212 0.169898
H4    H     H_    0.059427 0.867661 0.586435 0.159386
H5    H     H_    0.219828 0.029281 0.269234 0.105202
H6    H     H_    0.803984 0.973307 0.735019 0.108588
C33   C     C_R   0.479347 0.584222 0.834019 -0.141298
C34   C     C_R   0.520656 0.415761 0.165962 -0.141349
C35   C     C_R   0.501748 0.459477 0.829687 0.337351
C36   C     C_R   0.498354 0.540505 0.170292 0.337366
C37   C     C_R   0.487235 0.519871 0.801222 0.183226
C38   C     C_R   0.512846 0.480113 0.198757 0.182856
C39   C     C_R   0.481272 0.588361 0.894415 -0.267500
C40   C     C_R   0.518689 0.411618 0.105566 -0.267381
C41   C     C_R   0.492196 0.528750 0.924288 0.028071
C42   C     C_R   0.507803 0.471229 0.075691 0.028093
C43   C     C_R   0.502527 0.464143 0.890728 0.046703
C44   C     C_R   0.497521 0.535838 0.109250 0.046796
C45   C     C_R   0.493812 0.531120 0.986286 0.095171
C46   C     C_R   0.506186 0.468858 0.013693 0.095096
C47   C     C_R   0.516651 0.406266 0.978155 -0.212395
C48   C     C_R   0.483372 0.593712 0.021824 -0.212449
C49   C     C_R   0.514760 0.404142 0.918479 -0.135273
C50   C     C_R   0.485294 0.595838 0.081499 -0.135499
H7    H     H_    0.523111 0.354185 0.893964 0.180663
H8    H     H_    0.476976 0.645796 0.106014 0.180460
H9    H     H_    0.526163 0.360708 0.083442 0.119482
H10   H     H_    0.473733 0.639269 0.916538 0.119429
H11   H     H_    0.526743 0.357175 0.994919 0.126557
H12   H     H_    0.473300 0.642804 0.005061 0.126458
C51   C     C_1   0.467226 0.882823 0.885233 -0.214890
C52   C     C_1   0.532769 0.117188 0.114759 -0.215013
C53   C     C_1   0.478659 0.926343 0.928054 0.002668
C54   C     C_1   0.521336 0.073672 0.071934 0.002657
C55   C     C_1   0.493570 0.978149 0.978671 0.002540
C56   C     C_1   0.506424 0.021868 0.021315 0.002552
O21   O     O_3   0.753843 0.092993 0.691685 -0.648679
H13   H     H_    0.711558 0.083406 0.730402 0.291836
O22   O     O_3   0.333397 0.920655 0.321422 -0.647943
H14   H     H_    0.353886 0.925870 0.280103 0.291677
N1    N     N_2   0.964559 0.165575 0.504668 -0.542296
H15   H     H_    0.861238 0.200138 0.521519 0.256397
C57   C     C_3   0.154292 0.194561 0.506982 -0.537816
H16   H     H_    0.205772 0.204080 0.552527 0.205105
H17   H     H_    0.148455 0.243964 0.487506 0.194121
H18   H     H_    0.257723 0.159550 0.482276 0.210273
N2    N     N_2   0.322697 0.887006 0.529967 -0.539071
H19   H     H_    0.367097 0.841524 0.507426 0.254830
C58   C     C_3   0.477711 0.920472 0.563492 -0.505428
H20   H     H_    0.550677 0.883370 0.590104 0.198542
H21   H     H_    0.421652 0.964161 0.592999 0.216454
H22   H     H_    0.584615 0.939393 0.534391 0.193089
N3    N     N_2   0.521644 0.484598 0.260274 -0.544127
H23   H     H_    0.449177 0.446962 0.278227 0.255681
C59   C     C_3   0.712784 0.494764 0.284842 -0.531747
H24   H     H_    0.705287 0.501415 0.332665 0.201583
H25   H     H_    0.776110 0.541470 0.270395 0.218534
H26   H     H_    0.807283 0.449623 0.271817 0.193752
N4    N     N_2   0.478496 0.515385 0.739704 -0.544285
H27   H     H_    0.550878 0.553046 0.721758 0.255754
C60   C     C_3   0.287409 0.505149 0.715115 -0.534371
H28   H     H_    0.294973 0.498490 0.667295 0.200884
H29   H     H_    0.192790 0.550263 0.728123 0.194289
H30   H     H_    0.224185 0.458424 0.729560 0.218185
O23   O     O_3   0.516215 0.395086 0.799288 -0.650553
H31   H     H_    0.535774 0.399162 0.757857 0.328888
O24   O     O_3   0.483969 0.604899 0.200690 -0.650399
H32   H     H_    0.464506 0.600826 0.242126 0.329704

loop_
_geom_bond_atom_site_label_1
_geom_bond_atom_site_label_2
_ccdc_geom_bond_type
C36   C38   A    
C21   H4    S    
O21   H13   S    
O6    C8    A    
C22   H3    S    
O13   V3    S    
O22   H14   S    
O4    C2    A    
V1    O19   S    
N1    H15   S    
O24   H32   S    
C23   C25   A    
C7    C9    S    
C16   C22   A    
C58   H21   S    
O9    V1    S    
C34   C38   A    
C11   C13   S    
O3    C1    A    
N3    C59   S    
C9    C11   T    
C48   C50   A    
C35   C37   A    
O12   V4    S    
N4    H27   S    
C36   C44   A    
C35   C43   A    
C21   C23   A    
C39   C41   A    
O7    C3    A    
C37   N4    S    
C6    C16   S    
O5    C7    A    
O7    V1    S    
C17   O21   S    
C33   C39   A    
O8    V2    S    
N4    C60   S    
O3    V1    S    
O14   V4    S    
C34   C40   A    
C53   C55   S    
C10   C12   T    
C42   C46   A    
C15   C21   A    
C48   H12   S    
C24   C26   A    
C8    C10   S    
C2    O12   A    
C44   C50   A    
C17   C19   A    
O10   V2    S    
C18   C20   A    
C17   C25   A    
N1    C57   S    
O11   V3    S    
C22   C24   A    
C29   C31   A    
O15   C5    A    
O17   V3    S    
C58   H22   S    
C33   C37   A    
C27   C28   A    
V4    O20   S    
C30   N2    S    
C46   C47   A    
C42   C44   A    
O8    C4    A    
C60   H30   S    
C55   C56   T    
C49   H7    S    
C15   C19   A    
C1    O11   A    
C29   N1    S    
C25   C31   A    
O15   V3    S    
C26   C32   A    
C18   O22   S    
C45   C46   A    
C13   C14   T    
C54   C56   S    
C57   H16   S    
C16   C20   A    
C3    C51   S    
O1    V3    S    
C43   C49   A    
C47   C49   A    
C59   H25   S    
C40   H9    S    
C1    C33   S    
O23   H31   S    
C18   C26   A    
C50   H8    S    
C57   H17   S    
C2    C34   S    
O18   V4    S    
C35   O23   S    
C31   H1    S    
N2    C58   S    
O16   C6    A    
O1    C3    A    
C12   C14   S    
C28   C29   A    
C41   C43   A    
V2    O20   S    
O16   V4    S    
C59   H24   S    
C52   C54   T    
C23   C27   A    
C30   C32   A    
O5    V1    S    
C20   H5    S    
O17   C7    A    
O6    V2    S    
C58   H20   S    
O10   C6    A    
O18   C8    A    
O2    V4    S    
C27   C30   A    
C60   H29   S    
C4    C52   S    
V3    O19   S    
C39   H10   S    
C60   H28   S    
C41   C45   A    
C5    C15   S    
O9    C5    A    
O13   V1    S    
C32   H2    S    
C59   H26   S    
O14   V2    S    
C38   N3    S    
O2    C4    A    
C45   C48   A    
C47   H11   S    
O4    V2    S    
C24   C28   A    
C57   H18   S    
N2    H19   S    
C51   C53   T    
C36   O24   S    
C40   C42   A    
N3    H23   S    
C19   H6    S    
