data_mof_unit_65573.cif
_audit_creation_date              2013-03-05T15:41:55-0500
_audit_creation_method            fapswitch 2.2
_symmetry_space_group_name_H-M    P1
_symmetry_Int_Tables_number       1
_space_group_crystal_system       triclinic
_cell_length_a                    21.749741
_cell_length_b                    21.729082
_cell_length_c                    47.227351
_cell_angle_alpha                 90.006186
_cell_angle_beta                  89.924818
_cell_angle_gamma                 90.16998
_cell_volume                      22319.6185243

loop_
_atom_site_label
_atom_site_type_symbol
_atom_site_description
_atom_site_fract_x
_atom_site_fract_y
_atom_site_fract_z
_atom_type_partial_charge
O1    O     O_R   0.999970 0.909590 0.023670 -0.613826
O2    O     O_R   0.090410 0.999970 0.023670 -0.613298
O3    O     O_R   0.000030 0.090410 0.023670 -0.613818
O4    O     O_R   0.909590 0.000030 0.023670 -0.613290
O5    O     O_R   0.499970 0.409590 0.523670 -0.613299
O6    O     O_R   0.590410 0.499970 0.523670 -0.611661
O7    O     O_R   0.500030 0.590410 0.523670 -0.613873
O8    O     O_R   0.409590 0.500030 0.523670 -0.610579
O9    O     O_R   0.000000 0.909590 0.976330 -0.613605
O10   O     O_R   0.090410 0.000000 0.976330 -0.614742
O11   O     O_R   0.000000 0.090410 0.976330 -0.613655
O12   O     O_R   0.909590 0.000000 0.976330 -0.614637
O13   O     O_R   0.500000 0.409590 0.476330 -0.615296
O14   O     O_R   0.590410 0.500000 0.476330 -0.615128
O15   O     O_R   0.500000 0.590410 0.476330 -0.615781
O16   O     O_R   0.409590 0.500000 0.476330 -0.616901
C1    C     C_R   0.998095 0.881030 0.999897 0.938042
C2    C     C_R   0.118950 0.998065 0.999880 0.938170
C3    C     C_R   0.001905 0.118970 0.999898 0.938168
C4    C     C_R   0.881049 0.001919 0.999912 0.938233
C5    C     C_R   0.498095 0.381028 0.499899 0.937902
C6    C     C_R   0.618871 0.499079 0.499840 0.934571
C7    C     C_R   0.501903 0.618972 0.499900 0.936612
C8    C     C_R   0.381128 0.501015 0.499876 0.935917
Zn1   Zn    Zn3+2 0.000000 0.000000 0.031610 1.004107
Zn2   Zn    Zn3+2 0.500000 0.500000 0.531610 1.003851
Zn3   Zn    Zn3+2 0.000000 0.000000 0.968400 1.013332
Zn4   Zn    Zn3+2 0.500000 0.500000 0.468400 1.006098
C9    C     C_2   0.717526 0.044198 0.017249 0.148372
C10   C     C_2   0.956410 0.717276 0.017468 0.162500
C11   C     C_2   0.282373 0.955793 0.017198 0.147608
C12   C     C_2   0.043533 0.282730 0.017452 0.162322
C13   C     C_2   0.218371 0.548173 0.513721 0.093641
C14   C     C_2   0.456343 0.217287 0.517487 0.148669
C15   C     C_2   0.781462 0.451105 0.513236 0.108211
C16   C     C_2   0.543595 0.782720 0.517470 0.149133
C17   C     C_2   0.684919 0.998440 0.005195 -0.333465
C18   C     C_2   0.001961 0.684923 0.005231 -0.340644
C19   C     C_2   0.315044 0.001546 0.005145 -0.333173
C20   C     C_2   0.998016 0.315079 0.005243 -0.341175
C21   C     C_2   0.184900 0.499028 0.505629 -0.274767
C22   C     C_2   0.501959 0.184921 0.505311 -0.334183
C23   C     C_2   0.814996 0.500634 0.505465 -0.293011
C24   C     C_2   0.498017 0.815082 0.505318 -0.334550
H1    H     H_    0.707057 0.955187 0.999802 0.152210
H2    H     H_    0.045099 0.707304 0.999672 0.140734
H3    H     H_    0.292920 0.044767 0.999716 0.152388
H4    H     H_    0.954894 0.292695 0.999710 0.141266
H5    H     H_    0.206508 0.454197 0.503515 0.149230
H6    H     H_    0.545133 0.207307 0.499815 0.151533
H7    H     H_    0.793403 0.545561 0.503800 0.151989
H8    H     H_    0.454861 0.792694 0.499844 0.150642
C25   C     C_2   0.784364 0.036734 0.019721 -0.179519
C26   C     C_2   0.963814 0.784188 0.019872 -0.180775
C27   C     C_2   0.215523 0.963225 0.019646 -0.179709
C28   C     C_2   0.036124 0.215819 0.019858 -0.180673
C29   C     C_2   0.284842 0.541025 0.517032 -0.214913
C30   C     C_2   0.463738 0.284207 0.519878 -0.178613
C31   C     C_2   0.715046 0.458784 0.516810 -0.195625
C32   C     C_2   0.536194 0.715802 0.519863 -0.178942
C33   C     C_2   0.815358 0.008713 0.998987 -0.349194
C34   C     C_2   0.991276 0.815275 0.998969 -0.348290
C35   C     C_2   0.184635 0.991191 0.998901 -0.349071
C36   C     C_2   0.008726 0.184725 0.998970 -0.348538
C37   C     C_2   0.315518 0.505772 0.498792 -0.322624
C38   C     C_2   0.491265 0.315269 0.498983 -0.351355
C39   C     C_2   0.684461 0.494208 0.498656 -0.326740
C40   C     C_2   0.508732 0.684731 0.498982 -0.352082
H9    H     H_    0.808224 0.056657 0.037747 0.182416
H10   H     H_    0.944302 0.807999 0.038003 0.182220
H11   H     H_    0.191574 0.943371 0.037690 0.182433
H12   H     H_    0.055587 0.192014 0.037976 0.182270
H13   H     H_    0.308897 0.567680 0.533065 0.175346
H14   H     H_    0.444168 0.308042 0.537989 0.183238
H15   H     H_    0.690942 0.432373 0.532941 0.174582
H16   H     H_    0.555714 0.691974 0.537961 0.182778
H17   H     H_    0.792522 0.995007 0.979506 0.174218
H18   H     H_    0.004591 0.792422 0.979427 0.174457
H19   H     H_    0.207559 0.004847 0.979409 0.174227
H20   H     H_    0.995460 0.207574 0.979438 0.174180
H21   H     H_    0.292682 0.485441 0.480568 0.166403
H22   H     H_    0.504642 0.292388 0.479458 0.173980
H23   H     H_    0.707338 0.514424 0.480387 0.168847
H24   H     H_    0.495406 0.707606 0.479467 0.173689
O17   O     O_R   0.500030 0.051130 0.958080 -0.605353
O18   O     O_R   0.948870 0.500030 0.958080 -0.576837
O19   O     O_R   0.499970 0.948870 0.958080 -0.605361
O20   O     O_R   0.051130 0.499970 0.958080 -0.578276
O21   O     O_R   0.000030 0.551130 0.458080 -0.608314
O22   O     O_R   0.448870 0.000030 0.458080 -0.605325
O23   O     O_R   0.999970 0.448870 0.458080 -0.603869
O24   O     O_R   0.551130 0.999970 0.458080 -0.605348
C41   C     C_R   0.500000 0.999997 0.944518 0.955916
C42   C     C_R   0.000058 0.500003 0.944661 0.920072
C43   C     C_R   0.999999 0.499997 0.444514 0.953293
C44   C     C_R   0.500037 0.999995 0.444528 0.956271
O25   O     O_R   0.590470 0.051110 0.000000 -0.606919
O26   O     O_R   0.948890 0.590470 0.000000 -0.602507
O27   O     O_R   0.409530 0.948890 0.000000 -0.606843
O28   O     O_R   0.051110 0.409530 0.000000 -0.602635
O29   O     O_R   0.090470 0.551110 0.500000 -0.590059
O30   O     O_R   0.448890 0.090470 0.500000 -0.606514
O31   O     O_R   0.909530 0.448890 0.500000 -0.606180
O32   O     O_R   0.551110 0.909530 0.500000 -0.606459
O33   O     O_R   0.590450 0.948970 0.000000 -0.590797
O34   O     O_R   0.051030 0.590450 0.000000 -0.595720
O35   O     O_R   0.409550 0.051030 0.000000 -0.590769
O36   O     O_R   0.948970 0.409550 0.000000 -0.596284
O37   O     O_R   0.090450 0.448970 0.500000 -0.610896
O38   O     O_R   0.551030 0.090450 0.500000 -0.590986
O39   O     O_R   0.909550 0.551030 0.500000 -0.602272
O40   O     O_R   0.448970 0.909550 0.500000 -0.591431
C45   C     C_R   0.619151 0.000024 0.001263 0.978034
C46   C     C_R   0.000129 0.619140 0.001253 0.947814
C47   C     C_R   0.380842 0.999976 0.001254 0.978255
C48   C     C_R   0.999865 0.380860 0.001255 0.947437
C49   C     C_R   0.119173 0.500130 0.501343 0.979028
C50   C     C_R   0.500127 0.119136 0.501294 0.977867
C51   C     C_R   0.880776 0.499816 0.501175 0.993444
C52   C     C_R   0.499867 0.880864 0.501295 0.977961
Zn5   Zn    Zn3+2 0.500010 0.068250 0.000000 1.065765
Zn6   Zn    Zn3+2 0.931750 0.500010 0.000000 1.072863
Zn7   Zn    Zn3+2 0.499990 0.931750 0.000000 1.065847
Zn8   Zn    Zn3+2 0.068250 0.499990 0.000000 1.072963
Zn9   Zn    Zn3+2 0.000010 0.568250 0.500000 1.077468
Zn10  Zn    Zn3+2 0.431750 0.000010 0.500000 1.064242
Zn11  Zn    Zn3+2 0.999990 0.431750 0.500000 1.052969
Zn12  Zn    Zn3+2 0.568250 0.999990 0.500000 1.065073
O41   O     O_R   0.499980 0.051120 0.041920 -0.590276
O42   O     O_R   0.948880 0.499980 0.041920 -0.588188
O43   O     O_R   0.500020 0.948880 0.041920 -0.590208
O44   O     O_R   0.051120 0.500020 0.041920 -0.587977
O45   O     O_R   0.999980 0.551120 0.541920 -0.580175
O46   O     O_R   0.448880 0.999980 0.541920 -0.590128
O47   O     O_R   0.000020 0.448880 0.541920 -0.622328
O48   O     O_R   0.551120 0.000020 0.541920 -0.589854
C53   C     C_R   0.500000 0.000002 0.055350 0.903326
C54   C     C_R   0.999963 0.500000 0.055340 0.905157
C55   C     C_R   0.000040 0.500027 0.555435 0.894663
C56   C     C_R   0.499963 0.000000 0.555341 0.902603
C57   C     C_R   0.945458 0.491655 0.190189 0.591288
C58   C     C_R   0.508654 0.945707 0.190158 0.591174
C59   C     C_R   0.054198 0.508312 0.190111 0.591180
C60   C     C_R   0.491361 0.054346 0.190181 0.591313
C61   C     C_R   0.445497 0.991426 0.690199 0.591225
C62   C     C_R   0.045047 0.459701 0.690746 0.597517
C63   C     C_R   0.554167 0.008536 0.690119 0.591069
C64   C     C_R   0.971145 0.540948 0.690302 0.590010
N1    N     N_R   0.999820 0.499989 0.176150 -0.349738
N2    N     N_R   0.499990 0.000028 0.176168 -0.349657
N3    N     N_R   0.499822 0.999986 0.676157 -0.349722
N4    N     N_R   0.007918 0.499744 0.676507 -0.349181
C65   C     C_R   0.055469 0.510607 0.219876 -0.007407
C66   C     C_R   0.489099 0.055568 0.219950 -0.007423
C67   C     C_R   0.944225 0.489339 0.219955 -0.007402
C68   C     C_R   0.511029 0.944482 0.219921 -0.007464
C69   C     C_R   0.555424 0.010868 0.719883 -0.007507
C70   C     C_R   0.968501 0.541610 0.720078 -0.009390
C71   C     C_R   0.444283 0.989076 0.719965 -0.007511
C72   C     C_R   0.047040 0.460291 0.720557 -0.009986
C73   C     C_R   0.999856 0.499969 0.234792 -0.082231
C74   C     C_R   0.500096 0.000025 0.234812 -0.082221
C75   C     C_R   0.499864 0.999968 0.734800 -0.082135
C76   C     C_R   0.007416 0.501081 0.735206 -0.082376
C77   C     C_R   0.110148 0.523097 0.235193 0.118773
C78   C     C_R   0.476306 0.110135 0.235323 0.118762
C79   C     C_R   0.889566 0.476839 0.235350 0.118758
C80   C     C_R   0.523888 0.889915 0.235262 0.118761
C81   C     C_R   0.610040 0.023645 0.735200 0.118051
C82   C     C_R   0.928245 0.581013 0.735200 0.118518
C83   C     C_R   0.389689 0.976290 0.735360 0.118121
C84   C     C_R   0.086813 0.421438 0.736190 0.118385
C85   C     C_R   0.608672 0.025315 0.764769 -0.201067
C86   C     C_R   0.927046 0.579374 0.764774 -0.200909
C87   C     C_R   0.391098 0.974607 0.764928 -0.201206
C88   C     C_R   0.086324 0.423350 0.765779 -0.200274
C89   C     C_R   0.108793 0.524745 0.264763 -0.201846
C90   C     C_R   0.474716 0.108737 0.264894 -0.201728
C91   C     C_R   0.890958 0.475175 0.264918 -0.201689
C92   C     C_R   0.525601 0.891311 0.264829 -0.201788
C93   C     C_R   0.554259 0.013339 0.779624 -0.036670
C94   C     C_R   0.965817 0.539984 0.779847 -0.037376
C95   C     C_R   0.445531 0.986578 0.779703 -0.036640
C96   C     C_R   0.046386 0.462555 0.780365 -0.037193
C97   C     C_R   0.054320 0.513043 0.279616 -0.036304
C98   C     C_R   0.486770 0.054347 0.279694 -0.036426
C99   C     C_R   0.945449 0.486871 0.279694 -0.036509
C100  C     C_R   0.513603 0.945699 0.279660 -0.036416
C101  C     C_R   0.499885 0.999961 0.764693 -0.016683
C102  C     C_R   0.006582 0.501243 0.765122 -0.015008
C103  C     C_R   0.999875 0.499961 0.264684 -0.016659
C104  C     C_R   0.500157 0.000024 0.264705 -0.016645
C105  C     C_R   0.552879 0.014485 0.809274 0.558399
C106  C     C_R   0.964664 0.538286 0.809510 0.557663
C107  C     C_R   0.446952 0.985427 0.809351 0.558361
C108  C     C_R   0.045272 0.464012 0.810045 0.557312
C109  C     C_R   0.052949 0.514175 0.309266 0.558190
C110  C     C_R   0.485683 0.052936 0.309345 0.558254
C111  C     C_R   0.946857 0.485731 0.309341 0.558422
C112  C     C_R   0.514776 0.947098 0.309308 0.558302
N5    N     N_R   0.499925 0.999956 0.823467 -0.330354
N6    N     N_R   0.004370 0.501038 0.823944 -0.329870
N7    N     N_R   0.999911 0.499953 0.323456 -0.330150
N8    N     N_R   0.500240 0.000011 0.323480 -0.330180
O49   O     O_2   0.893097 0.485701 0.175138 -0.499237
O50   O     O_2   0.514883 0.893376 0.175061 -0.499179
O51   O     O_2   0.106541 0.514275 0.174985 -0.499237
O52   O     O_2   0.485070 0.106678 0.175103 -0.499271
O53   O     O_2   0.393154 0.985280 0.675151 -0.498836
O54   O     O_2   0.079440 0.419463 0.675874 -0.494500
O55   O     O_2   0.606491 0.014690 0.674994 -0.498657
O56   O     O_2   0.937337 0.580835 0.674988 -0.495379
H25   H     H_    0.650856 0.035603 0.776031 0.193031
H26   H     H_    0.895572 0.609550 0.775867 0.193639
H27   H     H_    0.348931 0.964314 0.776251 0.192957
H28   H     H_    0.117257 0.393387 0.777268 0.193492
H29   H     H_    0.151030 0.534804 0.276025 0.192348
H30   H     H_    0.464419 0.150882 0.276200 0.192408
H31   H     H_    0.848736 0.465109 0.276241 0.192439
H32   H     H_    0.535942 0.849165 0.276108 0.192388
O57   O     O_2   0.603949 0.030025 0.823862 -0.546456
O58   O     O_2   0.924103 0.573391 0.823866 -0.542570
O59   O     O_2   0.395902 0.969884 0.824014 -0.546593
O60   O     O_2   0.084728 0.428815 0.824941 -0.542659
O61   O     O_2   0.104109 0.529401 0.323857 -0.547888
O62   O     O_2   0.470162 0.103943 0.323990 -0.547417
O63   O     O_2   0.895715 0.470501 0.324005 -0.547111
O64   O     O_2   0.530339 0.896085 0.323916 -0.547460
C113  C     C_R   0.466989 0.045269 0.868491 0.044922
C114  C     C_R   0.981067 0.448720 0.868755 0.052938
C115  C     C_R   0.532920 0.954672 0.868445 0.044920
C116  C     C_R   0.023533 0.552773 0.869267 0.053138
C117  C     C_R   0.967319 0.545512 0.368477 0.044417
C118  C     C_R   0.454907 0.966755 0.368490 0.044717
C119  C     C_R   0.032556 0.454419 0.368430 0.044524
C120  C     C_R   0.545483 0.033199 0.368472 0.044864
C121  C     C_R   0.465005 0.044411 0.898290 -0.093243
C122  C     C_R   0.980351 0.447865 0.898581 -0.083576
C123  C     C_R   0.534945 0.955554 0.898241 -0.093284
C124  C     C_R   0.021554 0.553250 0.899064 -0.081419
C125  C     C_R   0.965343 0.544678 0.398275 -0.092813
C126  C     C_R   0.455715 0.964761 0.398288 -0.092804
C127  C     C_R   0.034577 0.455279 0.398225 -0.092856
C128  C     C_R   0.544581 0.035180 0.398271 -0.093262
C129  C     C_R   0.499985 0.999988 0.913272 -0.231785
C130  C     C_R   0.000368 0.500453 0.913668 -0.211846
C131  C     C_R   0.999975 0.499987 0.413263 -0.231967
C132  C     C_R   0.500117 0.999975 0.413284 -0.231880
C133  C     C_R   0.499943 0.999965 0.853845 0.312557
C134  C     C_R   0.003037 0.500813 0.854337 0.309605
C135  C     C_R   0.999928 0.499961 0.353832 0.312784
C136  C     C_R   0.500214 0.999985 0.353859 0.312561
C137  C     C_R   0.008433 0.555890 0.130985 -0.044152
C138  C     C_R   0.444111 0.008038 0.131030 -0.044490
C139  C     C_R   0.991189 0.444114 0.130983 -0.044212
C140  C     C_R   0.555864 0.992007 0.130965 -0.044429
C141  C     C_R   0.508316 0.055905 0.630989 -0.044246
C142  C     C_R   0.954623 0.474343 0.632035 -0.052532
C143  C     C_R   0.491306 0.944095 0.630986 -0.044209
C144  C     C_R   0.056918 0.522248 0.630543 -0.039904
C145  C     C_R   0.009542 0.555784 0.101133 -0.111368
C146  C     C_R   0.444226 0.009113 0.101177 -0.110948
C147  C     C_R   0.990150 0.444227 0.101131 -0.111451
C148  C     C_R   0.555752 0.990884 0.101114 -0.111074
C149  C     C_R   0.509452 0.055796 0.601136 -0.111114
C150  C     C_R   0.951531 0.476973 0.602236 -0.100197
C151  C     C_R   0.490239 0.944212 0.601134 -0.111000
C152  C     C_R   0.054912 0.521660 0.600714 -0.103636
C153  C     C_R   0.999877 0.500005 0.086353 -0.186304
C154  C     C_R   0.499993 0.000004 0.086365 -0.184509
C155  C     C_R   0.499877 0.000004 0.586355 -0.184364
C156  C     C_R   0.001876 0.500115 0.586605 -0.183867
C157  C     C_R   0.999805 0.499999 0.145713 0.131594
C158  C     C_R   0.499988 0.000034 0.145729 0.131584
C159  C     C_R   0.499806 0.999996 0.645718 0.131430
C160  C     C_R   0.006818 0.498160 0.646053 0.141400
N9    N     N_3   0.688453 0.098903 0.027943 -0.395944
H33   H     H_    0.721932 0.129450 0.035421 0.197222
H34   H     H_    0.661640 0.086362 0.045390 0.221648
N10   N     N_3   0.901939 0.687865 0.028382 -0.393757
H35   H     H_    0.871532 0.721198 0.035991 0.196636
H36   H     H_    0.914762 0.661136 0.045770 0.221001
N11   N     N_3   0.311406 0.901160 0.027953 -0.395935
H37   H     H_    0.277890 0.870591 0.035415 0.197273
H38   H     H_    0.338013 0.913799 0.045421 0.221567
N12   N     N_3   0.097976 0.312144 0.028332 -0.393803
H39   H     H_    0.128363 0.278812 0.035920 0.196584
H40   H     H_    0.085109 0.338878 0.045729 0.221134
N13   N     N_3   0.190783 0.606733 0.519530 -0.378329
H41   H     H_    0.209939 0.638721 0.505512 0.200319
H42   H     H_    0.203558 0.620018 0.539963 0.215427
N14   N     N_3   0.401802 0.187891 0.528336 -0.395895
H43   H     H_    0.371360 0.221236 0.535904 0.197732
H44   H     H_    0.414518 0.161167 0.545742 0.221319
N15   N     N_3   0.808871 0.391838 0.518112 -0.393457
H45   H     H_    0.774394 0.359099 0.521690 0.196865
H46   H     H_    0.834428 0.394544 0.536766 0.226890
N16   N     N_3   0.598106 0.812118 0.528287 -0.395850
H47   H     H_    0.628525 0.778775 0.535836 0.197381
H48   H     H_    0.585341 0.838848 0.545701 0.221308
C161  C     C_2   0.018927 0.614307 0.085372 0.924334
O65   O     O_2   0.986395 0.658778 0.090453 -0.625789
O66   O     O_R   0.066072 0.618973 0.065362 -0.764508
H49   H     H_    0.069277 0.661687 0.056859 0.342568
C162  C     C_2   0.385739 0.017885 0.085444 0.924249
O67   O     O_2   0.341487 0.984790 0.090486 -0.625378
O68   O     O_R   0.380860 0.065089 0.065500 -0.766023
H50   H     H_    0.338169 0.067877 0.057029 0.341994
C163  C     C_2   0.980779 0.385713 0.085369 0.924360
O69   O     O_2   0.013271 0.341222 0.090423 -0.625801
O70   O     O_R   0.933687 0.381077 0.065387 -0.764506
H51   H     H_    0.930479 0.338365 0.056881 0.342599
C164  C     C_2   0.614224 0.981973 0.085317 0.924094
O71   O     O_2   0.658519 0.015031 0.090278 -0.625604
O72   O     O_R   0.619050 0.934650 0.065419 -0.765736
H52   H     H_    0.661749 0.931735 0.056916 0.342102
C165  C     C_2   0.518798 0.114319 0.585375 0.924009
O73   O     O_2   0.486183 0.158744 0.590425 -0.625450
O74   O     O_R   0.566009 0.119040 0.565400 -0.765340
H53   H     H_    0.569203 0.161762 0.556905 0.342077
C166  C     C_2   0.894584 0.458132 0.587505 0.953009
O75   O     O_2   0.875561 0.405323 0.589627 -0.611529
O76   O     O_R   0.861314 0.502044 0.572392 -0.792985
H54   H     H_    0.819566 0.486184 0.566322 0.340156
C167  C     C_2   0.480906 0.885697 0.585370 0.923728
O77   O     O_2   0.513479 0.841251 0.590395 -0.626001
O78   O     O_R   0.433751 0.881009 0.565422 -0.765894
H55   H     H_    0.430554 0.838291 0.556923 0.341608
C168  C     C_2   0.108412 0.543513 0.584242 0.939541
O79   O     O_2   0.109569 0.596205 0.575224 -0.605464
O80   O     O_R   0.157818 0.503799 0.579660 -0.750758
H56   H     H_    0.193763 0.524848 0.570036 0.343255
N17   N     N_3   0.167279 0.535124 0.221043 -0.360249
H57   H     H_    0.182698 0.578792 0.227120 0.198871
H58   H     H_    0.199460 0.502848 0.228007 0.202453
N18   N     N_3   0.463913 0.167180 0.221230 -0.360270
H59   H     H_    0.420203 0.182080 0.227361 0.198876
H60   H     H_    0.495970 0.199778 0.228190 0.202482
N19   N     N_3   0.832418 0.464819 0.221282 -0.360255
H61   H     H_    0.817008 0.421147 0.227372 0.198937
H62   H     H_    0.800245 0.497090 0.228300 0.202463
N20   N     N_3   0.536229 0.832871 0.221136 -0.360252
H63   H     H_    0.579967 0.817977 0.227172 0.198920
H64   H     H_    0.504206 0.800269 0.228160 0.202425
N21   N     N_3   0.667108 0.035957 0.721048 -0.359377
H65   H     H_    0.682299 0.079710 0.727118 0.199869
H66   H     H_    0.699457 0.003856 0.728018 0.203489
N22   N     N_3   0.887605 0.622372 0.720848 -0.358707
H67   H     H_    0.842507 0.611666 0.726814 0.199828
H68   H     H_    0.897244 0.667097 0.727747 0.203786
N23   N     N_3   0.332601 0.963985 0.721293 -0.359608
H69   H     H_    0.317418 0.920229 0.727376 0.199516
H70   H     H_    0.300262 0.996083 0.728318 0.203495
N24   N     N_3   0.128450 0.380172 0.722347 -0.359129
H71   H     H_    0.173148 0.391210 0.728752 0.199611
H72   H     H_    0.118704 0.335466 0.729249 0.204395
N25   N     N_3   0.434413 0.090820 0.852449 -0.425772
H73   H     H_    0.388005 0.089800 0.858230 0.223373
H74   H     H_    0.452742 0.134139 0.857099 0.240876
N26   N     N_3   0.957993 0.397753 0.852563 -0.428263
H75   H     H_    0.985250 0.359231 0.856576 0.252094
H76   H     H_    0.912955 0.388333 0.859041 0.202793
N27   N     N_3   0.565474 0.909110 0.852357 -0.425731
H77   H     H_    0.611890 0.910132 0.858069 0.223454
H78   H     H_    0.547149 0.865795 0.857035 0.240882
N28   N     N_3   0.047920 0.604025 0.853656 -0.428469
H79   H     H_    0.020421 0.642508 0.857436 0.250783
H80   H     H_    0.092422 0.613252 0.860879 0.202418
N29   N     N_3   0.935079 0.591307 0.352438 -0.426135
H81   H     H_    0.888664 0.590613 0.358214 0.222759
H82   H     H_    0.953704 0.634493 0.357103 0.240330
N30   N     N_3   0.409401 0.933921 0.352433 -0.426121
H83   H     H_    0.410363 0.887474 0.358183 0.222607
H84   H     H_    0.366131 0.952055 0.357098 0.240686
N31   N     N_3   0.064770 0.408608 0.352346 -0.426076
H85   H     H_    0.111194 0.409308 0.358052 0.222363
H86   H     H_    0.046154 0.365427 0.357047 0.240572
N32   N     N_3   0.591036 0.066043 0.352396 -0.425895
H87   H     H_    0.590055 0.112487 0.358157 0.222832
H88   H     H_    0.634292 0.047909 0.357033 0.240771
C169  C     C_2   0.423515 0.087669 0.913391 0.939557
O81   O     O_2   0.385297 0.067734 0.930082 -0.626800
O82   O     O_R   0.428040 0.150960 0.908518 -0.801837
H89   H     H_    0.397261 0.175425 0.920038 0.354180
C170  C     C_2   0.959835 0.391595 0.913768 0.882331
O83   O     O_2   0.986719 0.342950 0.909972 -0.621193
O84   O     O_R   0.909672 0.394146 0.932239 -0.767103
H90   H     H_    0.900531 0.352968 0.941446 0.342330
C171  C     C_2   0.576453 0.912305 0.913284 0.939562
O85   O     O_2   0.614674 0.932250 0.929926 -0.626579
O86   O     O_R   0.571939 0.849013 0.908412 -0.801872
H91   H     H_    0.602729 0.824556 0.919890 0.354216
C172  C     C_2   0.040670 0.609367 0.914707 0.881169
O87   O     O_2   0.012866 0.657569 0.911179 -0.620388
O88   O     O_R   0.090620 0.607206 0.933249 -0.767116
H92   H     H_    0.098814 0.648256 0.942752 0.341638
C173  C     C_2   0.924215 0.588288 0.413362 0.938861
O89   O     O_2   0.885620 0.568665 0.429947 -0.626864
O90   O     O_R   0.929527 0.651560 0.408598 -0.803134
H93   H     H_    0.898948 0.676300 0.420107 0.353168
C174  C     C_2   0.412419 0.923034 0.413374 0.938476
O91   O     O_2   0.432250 0.884940 0.430071 -0.628366
O92   O     O_R   0.349209 0.927199 0.408484 -0.802961
H94   H     H_    0.324709 0.896289 0.419997 0.352706
C175  C     C_2   0.075704 0.411662 0.413252 0.939486
O93   O     O_2   0.114363 0.431283 0.429763 -0.627998
O94   O     O_R   0.070308 0.348386 0.408522 -0.802068
H95   H     H_    0.100888 0.323637 0.419988 0.353200
C176  C     C_2   0.587841 0.076888 0.413342 0.938832
O95   O     O_2   0.567966 0.114995 0.430049 -0.627694
O96   O     O_R   0.651066 0.072692 0.408424 -0.802544
H96   H     H_    0.675539 0.103592 0.419927 0.353467
C177  C     C_2   0.017753 0.614035 0.147121 0.991070
O97   O     O_2   0.983473 0.626966 0.166775 -0.612454
O98   O     O_R   0.066143 0.653631 0.139982 -0.749510
H97   H     H_    0.067799 0.691457 0.152531 0.357670
C178  C     C_2   0.385963 0.016727 0.147195 0.991232
O99   O     O_2   0.373226 0.982302 0.166846 -0.612439
O100  O     O_R   0.346138 0.064690 0.140087 -0.749501
H98   H     H_    0.308335 0.065936 0.152652 0.357651
C179  C     C_2   0.981828 0.385965 0.147117 0.991171
O101  O     O_2   0.016082 0.373008 0.166734 -0.612459
O102  O     O_R   0.933431 0.346392 0.140016 -0.749499
H99   H     H_    0.931745 0.308561 0.152557 0.357692
C180  C     C_2   0.614008 0.983334 0.147063 0.991019
O103  O     O_2   0.626766 0.017814 0.166679 -0.612480
O104  O     O_R   0.653803 0.935322 0.139935 -0.749417
H100  H     H_    0.691605 0.934094 0.152456 0.357625
C181  C     C_2   0.517481 0.114076 0.647124 0.991325
O105  O     O_2   0.483139 0.126935 0.666765 -0.612519
O106  O     O_R   0.565798 0.153775 0.640001 -0.748871
H101  H     H_    0.567351 0.191605 0.652548 0.357396
C182  C     C_2   0.902638 0.448755 0.648927 0.978514
O107  O     O_2   0.912761 0.412425 0.668128 -0.609919
O108  O     O_R   0.842304 0.466864 0.643145 -0.753635
H102  H     H_    0.811215 0.446503 0.656158 0.356939
C183  C     C_2   0.482098 0.885920 0.647118 0.991293
O109  O     O_2   0.516416 0.873034 0.666722 -0.612813
O110  O     O_R   0.433773 0.846246 0.640034 -0.749829
H103  H     H_    0.432190 0.808409 0.652574 0.356844
C184  C     C_2   0.110366 0.549597 0.645773 0.954117
O111  O     O_2   0.101820 0.585268 0.665412 -0.611444
O112  O     O_R   0.170346 0.534263 0.637865 -0.746097
H104  H     H_    0.202497 0.555759 0.649873 0.354425

loop_
_geom_bond_atom_site_label_1
_geom_bond_atom_site_label_2
_geom_bond_distance
_ccdc_geom_bond_type
C15   N15   1.439388 S    
O104  H100  1.013797 S    
N25   H73   1.045456 S    
C138  C178  1.488881 S    
O8    Zn2   2.002315 S    
C180  O103  1.223023 D    
C14   C22   1.346177 D    
C73   C103  1.411725 A    
C25   H9    1.086841 S    
O38   C50   1.273545 A    
C74   C104  1.411765 A    
C138  C158  1.411584 A    
O21   Zn9   2.014382 S    
N17   H57   1.045716 S    
O47   C55   1.281568 A    
C117  C135  1.401352 A    
O23   Zn11  2.014462 S    
C19   H3    1.087341 S    
C173  O90   1.397559 S    
C18   C46   1.442136 S    
O26   C46   1.276548 A    
C9    N9    1.439240 S    
C105  N5    1.367962 A    
N30   H83   1.045457 S    
O33   Zn7   2.001657 S    
C88   C96   1.399105 A    
C115  N27   1.435738 S    
C69   C81   1.418312 A    
O37   Zn11  2.001657 S    
C67   C79   1.418309 A    
C28   H12   1.086857 S    
O39   Zn9   2.001657 S    
O17   Zn5   2.014382 S    
C94   C106  1.401584 A    
O48   C56   1.279808 A    
C106  O58   1.349871 S    
C127  C175  1.486241 S    
N31   H86   1.044572 S    
C174  O92   1.397557 S    
C177  O98   1.398347 S    
C140  C158  1.411568 A    
C95   C101  1.407300 A    
C117  N29   1.435750 S    
C141  C159  1.411564 A    
O12   Zn3   2.001259 S    
C142  C160  1.411836 A    
O76   H54   1.012037 S    
C141  C149  1.410045 A    
N4    C160  1.438936 S    
C80   N20   1.433448 S    
O40   C52   1.273569 A    
N20   H63   1.045717 S    
C161  O65   1.222918 D    
C84   N24   1.433399 S    
C32   H16   1.086856 S    
C65   C73   1.417336 A    
O28   Zn8   1.999565 S    
C116  N28   1.435547 S    
C38   H22   1.087288 S    
O66   H49   1.013505 S    
C26   H10   1.086860 S    
O11   Zn3   1.999865 S    
C53   C154  1.464780 S    
O12   C4    1.275043 A    
C72   C84   1.418529 A    
C121  C129  1.420261 A    
C143  C183  1.488874 S    
C119  C127  1.407970 A    
C108  O60   1.349775 S    
C41   C129  1.475643 S    
C8    C37   1.432019 S    
C139  C147  1.410039 A    
O45   C55   1.280685 A    
C19   C47   1.443108 S    
C140  C148  1.410026 A    
C110  N8    1.367959 A    
C171  O85   1.223172 D    
C16   C24   1.346196 D    
N16   H47   1.045603 S    
C113  C121  1.408052 A    
O82   H89   1.013824 S    
O42   C54   1.279821 A    
C87   C95   1.398768 A    
C82   C86   1.397357 A    
C137  C145  1.410036 A    
C20   H4    1.087391 S    
C91   H31   1.083811 S    
C125  C131  1.420323 A    
N2    C158  1.437544 S    
C89   H29   1.083809 S    
N18   H59   1.045717 S    
C111  N7    1.367932 A    
C20   C48   1.442175 S    
N31   H85   1.045458 S    
C151  C167  1.486881 S    
C107  N5    1.367970 A    
C172  O87   1.222526 D    
C10   N10   1.439343 S    
C64   O56   1.349190 S    
O29   C49   1.274789 A    
C175  O93   1.223224 D    
N12   H40   1.044550 S    
O36   C48   1.273491 A    
C145  C161  1.486944 S    
O10   C2    1.275185 A    
N14   H44   1.044556 S    
N22   H67   1.045722 S    
C58   O50   1.349145 S    
C146  C162  1.486784 S    
C60   C66   1.406939 A    
C6    C39   1.431822 S    
C184  O112  1.397722 S    
C90   C98   1.398768 A    
C59   N1    1.366404 A    
O5    C5    1.283337 A    
Zn10  O46   2.015004 S    
C166  O75   1.222717 D    
O34   Zn8   2.002070 S    
C14   C30   1.466853 S    
C137  C157  1.411531 A    
C94   C102  1.407485 A    
C58   C68   1.406916 A    
C176  O95   1.223169 D    
C113  C133  1.401426 A    
C110  O62   1.349900 S    
O38   Zn12  2.002070 S    
C170  O84   1.397233 S    
O6    C6    1.283883 A    
O10   Zn3   2.002222 S    
C144  C184  1.489935 S    
C39   H23   1.087475 S    
C179  O101  1.223018 D    
C5    C38   1.436795 S    
C77   C89   1.397233 A    
N23   H69   1.045720 S    
O20   Zn8   2.014967 S    
C86   C94   1.398699 A    
C174  O91   1.223170 D    
C164  O71   1.222902 D    
N15   H46   1.043821 S    
C181  O105  1.223023 D    
C10   C26   1.466751 S    
C10   C18   1.346195 D    
O7    Zn2   2.000031 S    
O33   C45   1.272745 A    
C12   N12   1.439348 S    
C61   C71   1.406908 A    
C164  O72   1.397002 S    
C62   C72   1.408675 A    
C100  C112  1.400807 A    
O90   H93   1.013852 S    
O24   C44   1.283133 A    
Zn8   O44   2.014043 S    
O39   C51   1.276293 A    
C29   H13   1.087047 S    
C4    C33   1.437526 S    
C167  O78   1.397014 S    
C123  C171  1.486507 S    
O25   Zn5   2.003507 S    
C31   C39   1.332187 D    
C25   C33   1.335891 D    
C152  C156  1.411555 A    
C33   H17   1.087239 S    
C162  O68   1.397006 S    
C27   C35   1.335930 D    
C183  O110  1.398347 S    
C81   N21   1.433450 S    
C28   C36   1.335591 D    
C144  C152  1.409533 A    
C15   C23   1.348937 D    
C145  C153  1.413905 A    
C24   H8    1.087388 S    
N9    H33   1.045596 S    
C168  O80   1.396810 S    
C128  C176  1.486530 S    
C151  C155  1.413880 A    
C120  C136  1.401430 A    
C76   C102  1.412950 A    
N26   H75   1.044650 S    
C178  O100  1.398346 S    
N17   H58   1.045696 S    
C61   O53   1.349141 S    
C163  O70   1.397019 S    
O20   C42   1.279599 A    
N10   H35   1.045605 S    
C70   C82   1.418593 A    
C126  C132  1.420222 A    
O74   H53   1.013498 S    
O4    C4    1.283736 A    
C63   N3    1.366435 A    
C16   N16   1.439331 S    
O106  H101  1.013799 S    
C112  N8    1.367953 A    
C29   C37   1.332424 D    
N13   H41   1.045282 S    
O41   C53   1.279139 A    
O3    C3    1.283391 A    
C118  C126  1.408068 A    
N7    C135  1.434602 S    
C22   H6    1.087390 S    
N5    C133  1.434701 S    
C96   C102  1.407319 A    
C147  C163  1.486942 S    
C115  C133  1.401433 A    
C30   H14   1.086859 S    
C171  O86   1.397557 S    
C150  C166  1.478154 S    
C117  C125  1.407988 A    
O26   Zn6   1.999565 S    
C148  C154  1.413803 A    
C65   C77   1.418310 A    
C77   N17   1.433451 S    
C34   H18   1.087331 S    
C98   C110  1.400820 A    
C64   N4    1.366921 A    
C118  N30   1.435732 S    
O30   Zn10  1.999565 S    
O22   C44   1.283070 A    
C55   C156  1.472667 S    
O1    C1    1.283398 A    
C56   C155  1.464727 S    
C100  C104  1.407312 A    
C97   C109  1.400761 A    
O14   C6    1.272112 A    
N32   H87   1.045456 S    
C173  O89   1.223199 D    
O19   Zn7   2.014462 S    
O6    Zn2   2.001346 S    
O7    C7    1.283337 A    
O19   C41   1.282414 A    
O8    C8    1.283866 A    
N30   H84   1.044564 S    
C57   O49   1.349144 S    
C18   H2    1.087391 S    
C92   H32   1.083810 S    
O23   C43   1.282498 A    
C144  C160  1.411528 A    
C147  C153  1.413907 A    
C138  C146  1.410087 A    
N24   H71   1.045710 S    
N11   H37   1.045600 S    
C81   C85   1.397246 A    
O32   C52   1.276559 A    
O25   C45   1.276365 A    
C183  O109  1.223022 D    
C84   C88   1.398069 A    
C23   C51   1.444871 S    
N29   H82   1.044573 S    
C142  C150  1.410194 A    
C79   C91   1.397237 A    
C177  O97   1.223022 D    
N28   H80   1.045508 S    
C180  O104  1.398344 S    
O28   C48   1.276535 A    
O37   C49   1.275158 A    
C67   C73   1.417344 A    
O11   C3    1.274973 A    
C71   C83   1.418309 A    
C72   C76   1.417679 A    
O86   H91   1.013826 S    
Zn11  O47   2.014418 S    
Zn12  O48   2.014043 S    
O27   C47   1.276339 A    
N20   H64   1.045701 S    
C59   C65   1.406873 A    
C91   C99   1.398756 A    
C24   C52   1.442408 S    
O44   C54   1.279788 A    
C106  N6    1.367974 A    
C89   C97   1.398748 A    
C15   C31   1.464172 S    
C112  O64   1.349905 S    
C21   H5    1.087342 S    
C165  O74   1.397012 S    
N28   H79   1.044723 S    
C92   C100  1.398761 A    
C93   C101  1.407301 A    
C59   O51   1.349149 S    
O100  H98   1.013800 S    
C182  O108  1.398354 S    
O18   Zn6   2.014007 S    
C95   C107  1.400787 A    
N27   H77   1.045456 S    
C150  C156  1.411182 A    
O13   Zn4   1.999946 S    
C143  C159  1.411563 A    
C78   C90   1.397264 A    
C142  C182  1.489281 S    
N21   H66   1.045702 S    
C93   C105  1.400784 A    
O40   Zn10  2.002070 S    
C139  C179  1.488885 S    
C105  O57   1.349904 S    
C85   C93   1.398762 A    
O72   H52   1.013480 S    
N25   H74   1.044568 S    
C124  C130  1.414359 A    
C36   H20   1.087327 S    
N16   H48   1.044553 S    
C63   O55   1.349145 S    
C66   C74   1.417336 A    
O4    Zn1   2.002315 S    
C161  O66   1.397016 S    
C79   N19   1.433450 S    
O68   H50   1.013488 S    
C40   H24   1.087289 S    
O3    Zn1   2.000031 S    
N18   H60   1.045700 S    
O36   Zn6   2.002070 S    
N15   H45   1.045678 S    
C57   C67   1.406888 A    
C26   C34   1.335584 D    
C96   C108  1.402204 A    
C128  C132  1.420219 A    
C126  C174  1.486551 S    
C99   C111  1.400771 A    
C86   H26   1.083806 S    
C87   H27   1.083810 S    
O21   C43   1.282505 A    
C83   N23   1.433448 S    
O110  H103  1.013800 S    
O43   C53   1.279085 A    
C148  C164  1.486732 S    
C146  C154  1.413816 A    
C37   H21   1.087356 S    
N19   H61   1.045714 S    
C3    C36   1.436710 S    
C122  C130  1.414443 A    
N22   H68   1.045702 S    
C75   C101  1.411735 A    
C42   C130  1.463758 S    
C119  N31   1.435750 S    
C139  C157  1.411530 A    
C127  C131  1.420303 A    
O35   Zn5   2.001657 S    
N32   H88   1.044565 S    
O9    Zn3   1.999946 S    
N3    C159  1.437535 S    
C170  O83   1.222540 D    
Zn7   O43   2.014418 S    
C90   H30   1.083809 S    
C22   C50   1.442394 S    
Zn5   O41   2.014496 S    
C13   N13   1.434736 S    
O88   H92   1.013910 S    
N23   H70   1.045700 S    
C82   N22   1.433465 S    
C123  C129  1.420261 A    
C13   C21   1.346271 D    
C58   N2    1.366433 A    
C149  C155  1.413880 A    
O78   H55   1.013495 S    
C80   C92   1.397254 A    
C114  N26   1.435507 S    
C23   H7    1.087460 S    
O15   Zn4   1.999865 S    
O2    Zn1   2.001346 S    
C167  O77   1.222909 D    
C143  C151  1.410055 A    
O5    Zn2   1.999954 S    
C32   C40   1.335687 D    
C122  C170  1.484804 S    
C162  O67   1.222909 D    
C9    C17   1.346252 D    
O96   H96   1.013826 S    
C169  O82   1.397557 S    
C68   C80   1.418318 A    
C66   C78   1.418320 A    
C17   C45   1.443189 S    
C11   C27   1.467798 S    
C111  O63   1.349906 S    
C12   C28   1.466749 S    
N1    C157  1.437455 S    
C60   O52   1.349140 S    
C54   C153  1.464646 S    
C109  O61   1.349907 S    
O16   Zn4   2.001259 S    
O70   H51   1.013505 S    
N11   H38   1.044577 S    
C168  O79   1.221819 D    
C11   N11   1.439239 S    
O92   H94   1.013825 S    
C119  C135  1.401345 A    
O80   H56   1.011908 S    
N26   H76   1.045504 S    
C178  O99   1.223022 D    
C57   N1    1.366399 A    
C140  C180  1.488886 S    
C35   H19   1.087235 S    
C163  O69   1.222918 D    
C44   C132  1.475542 S    
C172  O88   1.397192 S    
C141  C181  1.488885 S    
C78   N18   1.433447 S    
O34   C46   1.273461 A    
C149  C165  1.486880 S    
N14   H43   1.045605 S    
N10   H36   1.044552 S    
C175  O94   1.397560 S    
O46   C56   1.279838 A    
N12   H39   1.045604 S    
C1    C34   1.436703 S    
C97   C103  1.407316 A    
C2    C35   1.437555 S    
C116  C124  1.407840 A    
C115  C123  1.408069 A    
C85   H25   1.083810 S    
O18   C42   1.280328 A    
C30   C38   1.335687 D    
C166  O76   1.396077 S    
O32   Zn12  1.999565 S    
C60   N2    1.366427 A    
O94   H95   1.013862 S    
C88   H28   1.083789 S    
C27   H11   1.086851 S    
C176  O96   1.397556 S    
C69   C75   1.417315 A    
C99   C103  1.407312 A    
O30   C50   1.276577 A    
C70   C76   1.417215 A    
C43   C131  1.475917 S    
O15   C7    1.275067 A    
C68   C74   1.417329 A    
O16   C8    1.272229 A    
O1    Zn1   1.999954 S    
N27   H78   1.044569 S    
O17   C41   1.282414 A    
O24   Zn12  2.014967 S    
C62   O54   1.348959 S    
C14   N14   1.439325 S    
C181  O106  1.398347 S    
O22   Zn10  2.014007 S    
O13   C5    1.275064 A    
C118  C136  1.401431 A    
O102  H99   1.013802 S    
C83   C87   1.397256 A    
C124  C172  1.484278 S    
C7    C40   1.436796 S    
O29   Zn9   2.003507 S    
O98   H97   1.013803 S    
C64   C70   1.407415 A    
O35   C47   1.272737 A    
C61   N3    1.366430 A    
C62   N4    1.366429 A    
O9    C1    1.274960 A    
N19   H62   1.045699 S    
N24   H72   1.045705 S    
N9    H34   1.044567 S    
C71   C75   1.417325 A    
C114  C122  1.408797 A    
C116  C134  1.402969 A    
C108  N6    1.368260 A    
C63   C69   1.406890 A    
C31   H15   1.087128 S    
O31   Zn11  2.003507 S    
O27   Zn7   2.003507 S    
N29   H81   1.045457 S    
Zn9   O45   2.014496 S    
C13   C29   1.463092 S    
O31   C51   1.273853 A    
C125  C173  1.486282 S    
O2    C2    1.283598 A    
C16   C32   1.466840 S    
C21   C49   1.444334 S    
C120  C128  1.408112 A    
O112  H104  1.013816 S    
C114  C134  1.403333 A    
C107  O59   1.349903 S    
C184  O111  1.223025 D    
C169  O81   1.223167 D    
C9    C25   1.468006 S    
C121  C169  1.486494 S    
N13   H42   1.044960 S    
C11   C19   1.346181 D    
C109  N7    1.367927 A    
C12   C20   1.346214 D    
C98   C104  1.407310 A    
C165  O73   1.222909 D    
C137  C177  1.488897 S    
O108  H102  1.013796 S    
N8    C136  1.434700 S    
C179  O102  1.398347 S    
C182  O107  1.223009 D    
N6    C134  1.435672 S    
C113  N25   1.435737 S    
O14   Zn4   2.002222 S    
N21   H65   1.045719 S    
C152  C168  1.476172 S    
C17   H1    1.087340 S    
Zn6   O42   2.015004 S    
O84   H90   1.013909 S    
C120  N32   1.435724 S    
