data_mof_unit_13758.cif
_audit_creation_date              2012-12-10T18:37:11-0500
_audit_creation_method            fapswitch 2.2
_symmetry_space_group_name_H-M    P1
_symmetry_Int_Tables_number       1
_space_group_crystal_system       triclinic
_cell_length_a                    14.921589
_cell_length_b                    15.484572
_cell_length_c                    23.453579
_cell_angle_alpha                 90.146682
_cell_angle_beta                  104.706887
_cell_angle_gamma                 81.758822
_cell_volume                      5184.14281533

loop_
_atom_site_label
_atom_site_type_symbol
_atom_type_description
_atom_site_fract_x
_atom_site_fract_y
_atom_site_fract_z
_atom_type_partial_charge
C1    C     C_R   0.441326 0.661987 0.488559 0.926151
C2    C     C_R   0.424155 0.477922 0.280075 -0.095422
C3    C     C_R   0.431081 0.530631 0.755082 0.246505
C4    C     C_R   0.428364 0.485749 0.220767 0.241312
C5    C     C_R   0.518657 0.500160 0.794099 0.258507
C6    C     C_R   0.506754 0.514822 0.208336 0.265373
C7    C     C_R   0.405045 0.754550 0.475674 -0.080572
C8    C     C_R   0.594965 0.245627 0.505582 -0.160653
C9    C     C_R   0.286078 0.878619 0.475590 -0.148858
C10   C     C_R   0.714560 0.122384 0.544010 -0.186536
C11   C     C_R   0.314966 0.788651 0.480186 -0.206431
C12   C     C_R   0.558549 0.338072 0.506090 0.850826
C13   C     C_R   0.684997 0.212206 0.539642 -0.179255
C14   C     C_R   0.463510 0.811004 0.462438 -0.083765
C15   C     C_R   0.537277 0.188967 0.473131 -0.076304
C16   C     C_R   0.500365 0.501954 0.610473 0.859679
C17   C     C_R   0.499075 0.499595 0.388996 0.896630
C18   C     C_R   0.443926 0.899900 0.473503 0.006036
C19   C     C_R   0.557298 0.100093 0.490309 0.092401
C20   C     C_R   0.350957 0.934906 0.473683 0.145385
C21   C     C_R   0.650177 0.065710 0.520798 0.135615
C22   C     C_R   0.514119 0.954416 0.486173 0.040652
C23   C     C_R   0.596720 0.471623 0.773088 -0.143998
C24   C     C_R   0.487099 0.045663 0.481332 0.120600
C25   C     C_R   0.391972 0.080143 0.475283 -0.121338
C26   C     C_R   0.609324 0.920350 0.510830 -0.252881
C27   C     C_R   0.325379 0.025166 0.473562 -0.204504
C28   C     C_R   0.675893 0.975730 0.529578 -0.196295
C29   C     C_R   0.841069 0.635563 0.592862 0.109631
C30   C     C_R   0.155050 0.364736 0.410944 0.164872
C31   C     C_R   0.752943 0.608801 0.577379 -0.028968
C32   C     C_R   0.243597 0.390519 0.423534 -0.044532
C33   C     C_R   0.796277 0.513869 0.506909 0.018511
C34   C     C_R   0.577784 0.539702 0.253257 -0.167423
C35   C     C_R   0.207510 0.485103 0.496253 -0.055345
C36   C     C_R   0.889712 0.529746 0.525205 -0.006357
C37   C     C_R   0.114312 0.468216 0.482344 -0.062805
C38   C     C_R   0.909813 0.599732 0.563393 0.001972
C39   C     C_R   0.092606 0.397093 0.445545 0.105886
C40   C     C_R   0.534720 0.434130 0.125401 0.551791
C41   C     C_R   0.525048 0.579809 0.882754 0.555169
C42   C     C_R   0.961726 0.480146 0.504285 0.078867
C43   C     C_R   0.044587 0.516334 0.506471 -0.034279
C44   C     C_R   0.053977 0.599798 0.531728 -0.043800
C45   C     C_R   0.589143 0.473197 0.713180 -0.209497
C46   C     C_R   0.954066 0.394554 0.482563 -0.124336
C47   C     C_R   0.993777 0.634653 0.566781 -0.050447
C48   C     C_R   0.014212 0.356947 0.448501 -0.107135
C49   C     C_R   0.512744 0.590098 0.119870 0.495861
C50   C     C_R   0.541309 0.424011 0.887139 0.499941
C51   C     C_R   0.522417 0.589920 0.061684 -0.051776
C52   C     C_R   0.542764 0.423630 0.947400 -0.050683
C53   C     C_R   0.532948 0.508434 0.034623 -0.062573
C54   C     C_R   0.534773 0.505041 0.974889 -0.062551
C55   C     C_R   0.540432 0.430191 0.067025 -0.034290
C56   C     C_R   0.573278 0.534217 0.311125 -0.165074
C57   C     C_R   0.527126 0.583353 0.942479 -0.034496
C58   C     C_R   0.519234 0.667829 0.029143 0.219010
C59   C     C_R   0.550703 0.345475 0.980858 0.215304
C60   C     C_R   0.520568 0.663595 0.969896 -0.231134
C61   C     C_R   0.551166 0.349730 0.040370 -0.229717
C62   C     C_3   0.606369 0.773316 0.084425 -0.672251
C63   C     C_3   0.465781 0.233715 0.932396 -0.669711
C64   C     C_2   0.013423 0.713763 0.600510 0.597130
C65   C     C_2   0.002463 0.268899 0.424871 0.453821
C66   C     C_3   0.809523 0.781723 0.626129 -0.775096
C67   C     C_R   0.503345 0.503807 0.673213 -0.149258
C68   C     C_3   0.063152 0.354373 0.311165 -0.748120
C69   C     C_2   0.116338 0.656229 0.514290 0.401978
C70   C     C_2   0.895320 0.337587 0.503615 0.389779
C71   C     C_2   0.334155 0.572860 0.651400 0.422529
C72   C     C_2   0.345603 0.440623 0.293460 0.427467
C73   C     C_3   0.303750 0.496423 0.793496 -0.698406
C74   C     C_3   0.290583 0.529647 0.140733 -0.688068
C75   C     C_2   0.469627 0.220079 0.415668 0.363449
C76   C     C_2   0.531428 0.782342 0.426360 0.418213
C77   C     C_R   0.497859 0.502644 0.325808 -0.150315
C78   C     C_R   0.423127 0.534086 0.693694 -0.109749
H1    H     H_    0.215315 0.904111 0.477303 0.170181
H2    H     H_    0.556663 0.289327 0.065109 0.192272
H3    H     H_    0.663738 0.448682 0.803540 0.160357
H4    H     H_    0.637930 0.561788 0.243217 0.154050
H5    H     H_    0.650711 0.449744 0.697919 0.175779
H6    H     H_    0.630292 0.554426 0.344561 0.188615
H7    H     H_    0.254151 0.053248 0.472617 0.185949
H8    H     H_    0.747176 0.948586 0.551700 0.160057
H9    H     H_    0.732008 0.255288 0.562897 0.204874
H10   H     H_    0.267293 0.745842 0.487089 0.199713
H11   H     H_    0.474609 0.800709 0.027179 0.221865
H12   H     H_    0.785169 0.097266 0.568956 0.162108
H13   H     H_    0.597334 0.836091 0.106745 0.242533
H14   H     H_    0.647351 0.780608 0.051665 0.212482
H15   H     H_    0.645793 0.722195 0.118257 0.252620
H16   H     H_    0.603263 0.214635 0.982069 0.221036
H17   H     H_    0.475079 0.171385 0.909623 0.241589
H18   H     H_    0.418212 0.283063 0.900123 0.253207
H19   H     H_    0.433270 0.223064 0.969026 0.212473
H20   H     H_    0.041545 0.708210 0.648003 0.071668
H21   H     H_    0.934543 0.256685 0.398769 0.037182
H22   H     H_    0.854653 0.669333 0.679044 0.233192
H23   H     H_    0.369667 0.149617 0.476591 0.160976
H24   H     H_    0.837876 0.825519 0.661612 0.254310
H25   H     H_    0.733898 0.782278 0.623035 0.226137
H26   H     H_    0.817867 0.806914 0.583815 0.269314
H27   H     H_    0.184769 0.272060 0.351704 0.248133
H28   H     H_    0.043257 0.306383 0.276682 0.248197
H29   H     H_    0.095443 0.404840 0.293104 0.266959
H30   H     H_    0.998532 0.385679 0.322631 0.228221
H31   H     H_    0.124614 0.654654 0.469616 0.056485
H32   H     H_    0.861288 0.290186 0.475114 0.044505
H33   H     H_    0.336216 0.611053 0.613155 0.095171
H34   H     H_    0.631622 0.851120 0.520339 0.148778
H35   H     H_    0.360144 0.385684 0.324408 0.056614
H36   H     H_    0.311502 0.617543 0.757676 0.265740
H37   H     H_    0.248441 0.527117 0.814198 0.230964
H38   H     H_    0.351561 0.446823 0.825297 0.234576
H39   H     H_    0.270301 0.463668 0.753117 0.275095
H40   H     H_    0.328035 0.406742 0.182866 0.255433
H41   H     H_    0.241828 0.502992 0.103228 0.229511
H42   H     H_    0.326205 0.577119 0.122649 0.246487
H43   H     H_    0.249472 0.563883 0.169655 0.273129
H44   H     H_    0.455279 0.288594 0.402511 0.061192
H45   H     H_    0.234157 0.526033 0.531887 0.167041
H46   H     H_    0.577895 0.825586 0.417793 0.083146
H47   H     H_    0.773828 0.470547 0.471633 0.110874
H48   H     H_    0.293729 0.364159 0.399718 0.120027
H49   H     H_    0.699895 0.634448 0.599498 0.143656
H50   H     H_    0.516688 0.723892 0.945433 0.190500
N1    N     N_R   0.518187 0.513084 0.149714 -0.347220
N2    N     N_2   0.358069 0.459054 0.173371 -0.293535
N3    N     N_R   0.529433 0.501305 0.856304 -0.346903
N4    N     N_R   0.731690 0.552740 0.533440 -0.114903
N5    N     N_R   0.268310 0.447260 0.466560 -0.117268
N6    N     N_2   0.515399 0.750878 0.055295 -0.250663
N7    N     N_2   0.555974 0.262153 0.955173 -0.251625
N8    N     N_2   0.860320 0.694324 0.639596 -0.332954
N9    N     N_2   0.129033 0.310024 0.362400 -0.273483
N10   N     N_2   0.354269 0.562706 0.778917 -0.290435
O1    O     O_R   0.383120 0.605620 0.483150 -0.625974
O2    O     O_2   0.517967 0.654188 0.850952 -0.564768
O3    O     O_2   0.495430 0.665987 0.146220 -0.520618
O4    O     O_2   0.550315 0.348477 0.858942 -0.528269
O5    O     O_2   0.997050 0.785402 0.575344 -0.555654
O6    O     O_2   0.067440 0.208699 0.436742 -0.547702
O7    O     O_2   0.161436 0.701862 0.549660 -0.567220
O8    O     O_2   0.887139 0.341357 0.554111 -0.554464
O9    O     O_2   0.258147 0.560819 0.657749 -0.576680
O10   O     O_2   0.264438 0.470898 0.269971 -0.580749
O11   O     O_2   0.434363 0.168885 0.380193 -0.562726
O12   O     O_R   0.616880 0.394380 0.516850 -0.600379
O13   O     O_2   0.531267 0.712887 0.401617 -0.557303
O14   O     O_R   0.531890 0.639510 0.504600 -0.592630
O15   O     O_R   0.468110 0.360490 0.495400 -0.624184
O16   O     O_R   0.425590 0.483070 0.573110 -0.614989
O17   O     O_R   0.574410 0.516930 0.426890 -0.595511
O18   O     O_R   0.574360 0.516970 0.594570 -0.619437
O19   O     O_R   0.425640 0.483030 0.405430 -0.634349
O20   O     O_2   0.544588 0.359685 0.157710 -0.565256
Zn1   Zn    Zn3+2 0.400660 0.477370 0.485670 0.961097
Zn2   Zn    Zn3+2 0.599340 0.522630 0.514330 0.979927

loop_
_geom_bond_atom_site_label_1
_geom_bond_atom_site_label_2
_ccdc_geom_bond_type
C71   O9    D    
C40   N1    A    
O14   Zn2   S    
C34   C56   A    
C8    C13   A    
C23   C45   A    
C75   H44   S    
C69   O7    D    
C14   C18   A    
C36   C42   A    
C31   H49   S    
C12   O15   A    
C35   N5    A    
C53   C54   A    
C58   N6    S    
C15   C19   A    
C74   H41   S    
N4    Zn2   S    
C73   H38   S    
O12   Zn2   S    
C40   O20   S    
C35   C37   A    
C3    N10   S    
C42   C46   A    
C32   N5    A    
C73   N10   S    
C61   H2    S    
C58   C60   A    
C63   H17   S    
C33   C36   A    
C59   N7    S    
C1    O14   A    
C9    H1    S    
C32   H48   S    
C27   H7    S    
C66   H24   S    
C41   O2    S    
C70   H32   S    
C69   H31   S    
C7    C14   A    
C49   C51   A    
C71   H33   S    
C29   C38   A    
C16   O18   A    
C50   C52   A    
C70   O8    D    
C68   H29   S    
C48   C65   S    
C17   O19   A    
C1    O1    A    
C44   C47   A    
C64   H20   S    
O1    Zn1   S    
O19   Zn1   S    
C30   N9    S    
C18   C22   A    
C68   N9    S    
C45   H5    S    
C67   C78   A    
C68   H28   S    
C6    N1    S    
C2    C72   S    
C33   H47   S    
C52   C54   A    
C29   N8    S    
C56   H6    S    
C53   C55   A    
C10   C21   A    
C37   C39   A    
C46   C48   A    
C59   C61   A    
C73   H39   S    
C76   H46   S    
C66   H26   S    
O18   Zn2   S    
C24   C25   A    
C65   H21   S    
C4    C6    A    
C47   C64   S    
C16   C67   S    
C65   O6    D    
C57   C60   A    
C4    N2    S    
C76   O13   D    
C72   O10   D    
C16   O16   A    
C49   N1    A    
C72   H35   S    
C56   C77   A    
C6    C34   A    
C62   H14   S    
N5    Zn1   S    
C14   C76   S    
C37   C43   A    
C7    C11   A    
C43   C44   A    
C45   C67   A    
C31   N4    A    
H40   N2    S    
C52   C59   A    
C12   O12   A    
C9    C20   A    
C5    C23   A    
C60   H50   S    
C11   H10   S    
C8    C12   S    
C40   C55   A    
C62   H13   S    
C13   H9    S    
C17   C77   S    
H16   N7    S    
C44   C69   S    
C51   C58   A    
C9    C11   A    
C38   C47   A    
C66   N8    S    
C33   N4    A    
C20   C27   A    
C21   C28   A    
C8    C15   A    
C74   N2    S    
C28   H8    S    
C22   C24   A    
C42   C43   A    
C55   C61   A    
C17   O17   A    
C26   H34   S    
O15   Zn1   S    
C41   N3    A    
C15   C75   S    
C34   H4    S    
H11   N6    S    
C23   H3    S    
C19   C21   A    
O17   Zn2   S    
C1    C7    S    
C66   H25   S    
C3    C5    A    
C10   C13   A    
C64   O5    D    
C49   O3    S    
C25   C27   A    
C74   H42   S    
C26   C28   A    
C73   H37   S    
C62   N6    S    
C36   C38   A    
C19   C24   A    
C41   C57   A    
O16   Zn1   S    
C29   C31   A    
C2    C77   A    
C30   C32   A    
C25   H23   S    
C75   O11   D    
C2    C4    A    
C63   H18   S    
C35   H45   S    
C30   C39   A    
C18   C20   A    
H36   N10   S    
C46   C70   S    
C50   N3    A    
H27   N9    S    
C50   O4    S    
C5    N3    S    
C74   H43   S    
C10   H12   S    
C63   H19   S    
C22   C26   A    
C62   H15   S    
C68   H30   S    
C51   C53   A    
C3    C78   A    
C71   C78   S    
H22   N8    S    
C63   N7    S    
C39   C48   A    
C54   C57   A    
