data_mof_unit_46706.cif
_audit_creation_date              2012-12-11T20:21:44-0500
_audit_creation_method            fapswitch 2.2
_symmetry_space_group_name_H-M    P1
_symmetry_Int_Tables_number       1
_space_group_crystal_system       triclinic
_cell_length_a                    8.240053
_cell_length_b                    17.434716
_cell_length_c                    26.987266
_cell_angle_alpha                 99.952792
_cell_angle_beta                  92.464284
_cell_angle_gamma                 81.207535
_cell_volume                      3773.30005031

loop_
_atom_site_label
_atom_site_type_symbol
_atom_type_description
_atom_site_fract_x
_atom_site_fract_y
_atom_site_fract_z
_atom_type_partial_charge
Ba1   Ba    Ba6+2 0.860160 0.462360 0.521850 1.658727
Ba2   Ba    Ba6+2 0.329680 0.537570 0.478140 1.663122
C1    C     C_3   0.639151 0.194618 0.653408 -0.378567
C2    C     C_R   0.863368 0.562874 0.174592 0.569211
C3    C     C_2   0.749226 0.540803 0.273359 -0.083857
C4    C     C_3   0.151955 0.259082 0.647017 0.311132
C5    C     C_3   0.731997 0.572182 0.328775 -0.059010
C6    C     C_1   0.986111 0.485283 0.341465 0.027740
C7    C     C_2   0.027956 0.483414 0.293642 -0.106183
C8    C     C_2   0.900580 0.509296 0.255272 0.176004
C9    C     C_R   0.017544 0.500318 0.099225 -0.080794
C10   C     C_R   0.100923 0.444463 0.127109 -0.035701
C11   C     C_R   0.227714 0.388350 0.103820 -0.058023
C12   C     C_3   0.627802 0.272699 0.634676 0.365933
C13   C     C_R   0.895042 0.558543 0.123053 -0.022569
C14   C     C_2   0.844614 0.523374 0.360034 -0.296491
C15   C     C_2   0.353940 0.479388 0.637925 -0.284032
C16   C     C_3   0.090719 0.233360 0.692931 -0.356724
C17   C     C_R   0.226207 0.440151 0.973189 0.019501
C18   C     C_R   0.007302 0.553187 0.968624 0.020542
C19   C     C_R   0.136626 0.496163 0.945514 0.049112
C20   C     C_R   0.353498 0.384760 0.948128 -0.099345
C21   C     C_R   0.389536 0.383729 0.897956 -0.061557
C22   C     C_R   0.302715 0.438555 0.870313 -0.034290
C23   C     C_3   0.489263 0.670927 0.632841 0.287812
C24   C     C_R   0.177343 0.495443 0.894193 -0.077913
C25   C     C_R   0.093537 0.552013 0.866849 -0.031007
C26   C     C_R   0.139591 0.552588 0.816944 0.586146
C27   C     C_R   0.339395 0.437642 0.819310 0.586648
C28   C     C_3   0.219879 0.299527 0.412328 0.302197
C29   C     C_2   0.458840 0.488812 0.726947 -0.078000
C30   C     C_3   0.499711 0.491198 0.672801 -0.062954
C31   C     C_1   0.206621 0.509188 0.654653 0.083932
C32   C     C_2   0.168243 0.503730 0.701252 -0.106484
C33   C     C_2   0.300703 0.494730 0.740886 0.199160
C34   C     C_3   0.476637 0.702882 0.688941 -0.375118
C35   C     C_R   0.186112 0.441292 0.024576 0.019605
C36   C     C_R   0.057049 0.498513 0.047656 0.048657
C37   C     C_R   0.967290 0.554336 0.019875 0.019933
C38   C     C_R   0.270598 0.387178 0.054134 -0.098361
C39   C     C_R   0.806754 0.612633 0.095124 -0.057117
C40   C     C_3   0.243297 0.210502 0.398797 -0.347172
C41   C     C_R   0.923108 0.607797 0.939438 -0.098859
C42   C     C_R   0.966202 0.607478 0.890076 -0.061247
C43   C     C_R   0.840203 0.610085 0.044775 -0.102243
C44   C     C_2   0.449703 0.278261 0.515494 -0.249814
C45   C     C_3   0.021401 0.694530 0.337139 0.349465
C46   C     C_3   0.374919 0.225528 0.544240 -0.032847
C47   C     C_2   0.418032 0.139674 0.523158 -0.169333
C48   C     C_2   0.545263 0.114418 0.491548 -0.045759
C49   C     C_2   0.630956 0.173713 0.473462 -0.081733
C50   C     C_1   0.573150 0.249739 0.484558 0.033370
C51   C     C_R   0.779092 0.858898 0.461057 -0.075588
C52   C     C_3   0.929137 0.712731 0.628045 0.275388
C53   C     C_R   0.834650 0.778158 0.453393 -0.008153
C54   C     C_R   0.611935 0.758290 0.504327 0.025801
C55   C     C_R   0.556600 0.839028 0.511722 -0.132697
C56   C     C_3   0.038784 0.711875 0.284565 -0.345565
C57   C     C_R   0.637252 0.889763 0.489477 0.037037
C58   C     C_2   0.599922 0.029320 0.474189 0.574525
C59   C     C_2   0.584547 0.975380 0.503544 -0.112797
C60   C     C_R   0.744372 0.727578 0.472529 -0.235898
C61   C     C_3   0.901478 0.789622 0.666892 -0.362914
C62   C     C_3   0.696339 0.363692 0.369352 0.308182
C63   C     C_3   0.692599 0.345604 0.312278 -0.349170
C64   C     C_1   0.971035 0.731721 0.580405 0.191556
C65   C     C_3   0.483091 0.743452 0.362461 0.367214
C66   C     C_3   0.425792 0.817908 0.340838 -0.338517
C67   C     C_R   0.055841 0.445683 0.177643 0.598821
F1    F     F_    0.667481 0.007113 0.427791 -0.725975
H1    H     H_    0.702872 0.262124 0.600141 0.069635
H2    H     H_    0.603896 0.416306 0.381503 0.072965
H3    H     H_    0.769999 0.167657 0.654652 0.121585
H4    H     H_    0.788404 0.295051 0.298754 0.131755
H5    H     H_    0.715835 0.397973 0.296919 0.064871
H6    H     H_    0.570580 0.331093 0.298534 0.139907
H7    H     H_    0.497312 0.294458 0.626474 -0.074825
H8    H     H_    0.570915 0.153752 0.627491 0.063990
H9    H     H_    0.367124 0.656549 0.618882 0.065930
H10   H     H_    0.580406 0.616377 0.627207 0.018489
H11   H     H_    0.387134 0.758099 0.695306 0.137609
H12   H     H_    0.333554 0.190351 0.368109 0.131562
H13   H     H_    0.433807 0.659175 0.708874 0.079413
H14   H     H_    0.598815 0.715179 0.704594 0.111765
H15   H     H_    0.587242 0.203117 0.691619 0.143272
H16   H     H_    0.159036 0.257563 0.727202 0.093782
H17   H     H_    0.082411 0.633695 0.338870 0.051592
H18   H     H_    0.888851 0.700259 0.344490 -0.062442
H19   H     H_    0.169570 0.702022 0.274093 0.151207
H20   H     H_    0.972693 0.672372 0.257157 0.123370
H21   H     H_    0.985919 0.774040 0.282737 0.127629
H22   H     H_    0.618838 0.732968 0.361214 -0.072723
H23   H     H_    0.287829 0.183854 0.432424 0.085584
H24   H     H_    0.443574 0.753070 0.402182 0.069670
H25   H     H_    0.484494 0.867596 0.362848 0.115089
H26   H     H_    0.287568 0.834295 0.343197 0.155634
H27   H     H_    0.132268 0.324978 0.652592 0.049921
H28   H     H_    0.463202 0.807979 0.300358 0.125330
H29   H     H_    0.155252 0.473552 0.283552 0.145629
H30   H     H_    0.296675 0.345255 0.124296 0.121814
H31   H     H_    0.557246 0.486406 0.754872 0.106912
H32   H     H_    0.488054 0.339678 0.880916 0.120634
H33   H     H_    0.428761 0.340817 0.966141 0.068962
H34   H     H_    0.124673 0.190794 0.386376 0.139237
H35   H     H_    0.371279 0.342521 0.040087 0.069374
H36   H     H_    0.645549 0.554307 0.248601 0.134090
H37   H     H_    0.708918 0.657345 0.112092 0.123747
H38   H     H_    0.823013 0.652570 0.953516 0.068755
H39   H     H_    0.285190 0.235835 0.644571 -0.026391
H40   H     H_    0.897655 0.651081 0.869898 0.118689
H41   H     H_    0.040551 0.512926 0.712717 0.146060
H42   H     H_    0.763476 0.653585 0.026707 0.069238
H43   H     H_    0.820348 0.531547 0.399425 0.074461
H44   H     H_    0.371169 0.453159 0.598648 0.072441
H45   H     H_    0.817634 0.683361 0.624976 0.047785
H46   H     H_    0.529903 0.994257 0.540399 0.009247
H47   H     H_    0.739602 0.153685 0.450414 0.130530
H48   H     H_    0.854272 0.897523 0.448751 0.141273
H49   H     H_    0.348531 0.098911 0.535906 0.074868
H50   H     H_    0.957805 0.255813 0.698221 0.165836
H51   H     H_    0.455141 0.862871 0.536780 0.085652
H52   H     H_    0.411989 0.341008 0.525032 0.067214
H53   H     H_    0.790447 0.665436 0.468527 0.068357
H54   H     H_    0.110241 0.167950 0.688289 0.110557
H55   H     H_    0.339162 0.318862 0.422503 -0.000083
H56   H     H_    0.863341 0.777217 0.703828 0.127099
H57   H     H_    0.137657 0.317134 0.445075 0.085348
H58   H     H_    0.802851 0.833333 0.653757 0.082336
H59   H     H_    0.017520 0.816617 0.672821 0.120808
H60   H     H_    0.819356 0.376305 0.382223 0.006081
N1    N     N_R   0.939433 0.505354 0.201761 -0.420855
N2    N     N_R   0.259227 0.494745 0.793127 -0.424196
N3    N     N_1   0.013684 0.744573 0.542555 -0.260718
O1    O     O_2   0.906370 0.542040 0.619810 -0.486306
O2    O     O_2   0.171345 0.783233 0.466658 -0.462143
O3    O     O_3   0.096349 0.748343 0.371739 -0.589560
O4    O     O_3   0.138370 0.541980 0.559630 -0.477693
O5    O     O_3   0.572820 0.404940 0.471170 -0.496434
O6    O     O_2   0.345130 0.693150 0.532000 -0.428006
O7    O     O_3   0.538541 0.728100 0.608331 -0.657142
O8    O     O_2   0.416521 0.529168 0.325251 -0.493785
O9    O     O_3   0.414505 0.680429 0.334163 -0.578518
O10   O     O_2   0.118466 0.392587 0.199627 -0.596114
O11   O     O_2   0.441983 0.385490 0.798179 -0.593189
O12   O     O_3   0.662492 0.298077 0.388058 -0.627310
O13   O     O_2   0.769843 0.619533 0.195344 -0.618776
O14   O     O_2   0.075854 0.605867 0.795136 -0.602491
O15   O     O_3   0.686580 0.398330 0.583860 -0.485406
O16   O     O_2   0.842187 0.443181 0.668923 -0.484876
O17   O     O_3   0.066373 0.664333 0.642343 -0.645564
O18   O     O_3   0.687606 0.328066 0.671988 -0.583370
O19   O     O_2   0.844570 0.306830 0.467970 -0.458133
O20   O     O_3   0.101900 0.357890 0.557750 -0.484071
O21   O     O_2   0.056383 0.217882 0.505641 -0.476989
O22   O     O_3   0.067183 0.227757 0.603645 -0.583283
O23   O     O_2   0.283330 0.457940 0.380160 -0.455555
O24   O     O_3   0.051340 0.457960 0.440360 -0.500107
O25   O     O_3   0.503130 0.601610 0.416130 -0.480072
O26   O     O_3   0.153822 0.331657 0.370569 -0.621015
O27   O     O_3   0.616890 0.595000 0.528820 -0.485096
O28   O     O_3   0.087820 0.642040 0.442240 -0.466245
P1    P     P_3+3 0.071770 0.565500 0.613330 0.996143
P2    P     P_3+3 0.664870 0.318630 0.453960 0.986655
P3    P     P_3+3 0.149725 0.255887 0.552037 0.956153
P4    P     P_3+3 0.117940 0.434440 0.386660 0.996429
P5    P     P_3+3 0.046865 0.739436 0.432458 0.993910
P6    P     P_3+3 0.677711 0.416681 0.649406 0.989501
P7    P     P_3+3 0.532972 0.695180 0.543413 0.944767
P8    P     P_3+3 0.516789 0.593297 0.350989 0.955229

loop_
_geom_bond_atom_site_label_1
_geom_bond_atom_site_label_2
_ccdc_geom_bond_type
O7    P7    S    
C10   C67   A    
O19   P2    D    
C62   O12   S    
C1    H15   S    
C23   H10   S    
C12   H1    S    
O16   P6    D    
C19   C24   A    
C14   H43   S    
C51   C57   A    
C43   H42   S    
C52   O17   S    
C47   H49   S    
C24   C25   A    
C16   H16   S    
C63   H6    S    
Ba2   O6    S    
C29   H31   S    
O21   P3    D    
C17   C19   A    
C22   C24   A    
C32   C33   S    
C35   C38   A    
O4    P1    S    
C45   O3    S    
C61   H59   S    
C55   C57   A    
C21   H32   S    
C52   C61   S    
C34   H13   S    
C40   H23   S    
C53   C60   A    
C44   C50   D    
C54   C55   A    
Ba1   O19   S    
Ba1   Ba2   S    
C12   H7    S    
C22   C27   A    
C11   C38   A    
C17   C35   A    
C34   H14   S    
C8    N1    S    
C9    C13   A    
C25   C42   A    
C6    C7    D    
C40   H12   S    
C12   O18   S    
C65   H24   S    
C21   C22   A    
O5    P2    S    
C7    C8    S    
C4    O22   S    
C67   N1    Am   
C37   C43   A    
C62   H2    S    
C28   H55   S    
C7    H29   S    
C32   H41   S    
C15   C31   D    
O17   P1    S    
Ba2   O28   S    
C60   H53   S    
C15   H44   S    
C48   C49   S    
C2    N1    Am   
C3    H36   S    
C51   C53   A    
C28   O26   S    
C4    C16   S    
C44   C46   S    
C57   C59   S    
C66   H25   S    
O20   P3    S    
C49   C50   D    
Ba2   O5    S    
C4    H27   S    
C23   O7    S    
C13   C39   A    
O24   P4    S    
C3    C5    S    
C18   C37   A    
C51   H48   S    
O12   P2    S    
C27   O11   D    
C63   H4    S    
C65   C66   S    
C58   C59   D    
C26   N2    Am   
C45   H17   S    
C9    C36   A    
C41   C42   A    
C35   C36   A    
C64   N3    T    
C29   C30   S    
C58   F1    S    
C34   H11   S    
Ba2   O25   S    
C2    O13   D    
C52   H45   S    
C54   P7    S    
C59   H46   S    
O8    P8    D    
C31   C32   D    
C66   H26   S    
C18   C19   A    
Ba1   O20   S    
C56   H20   S    
Ba2   P4    S    
C1    C12   S    
O9    P8    S    
C46   P3    S    
Ba2   O27   S    
C46   C47   S    
C62   H60   S    
Ba1   P1    S    
C47   C48   D    
C5    P8    S    
C4    H39   S    
C54   C60   A    
O26   P4    S    
Ba1   O1    S    
C16   H50   S    
C18   C41   A    
Ba1   O4    S    
C56   H21   S    
C15   C30   S    
C28   H57   S    
C5    C14   S    
C26   O14   D    
Ba2   O23   S    
C39   H37   S    
C23   H9    S    
Ba2   O4    S    
Ba1   O27   S    
C44   H52   S    
C61   H58   S    
C40   H34   S    
C9    C10   A    
O25   P8    S    
C52   C64   S    
O22   P3    S    
C67   O10   D    
C63   H5    S    
C48   C58   S    
C45   H18   S    
C2    C13   A    
Ba1   O24   S    
C31   P1    S    
C3    C8    D    
C62   C63   S    
C45   C56   S    
C1    H8    S    
C36   C37   A    
O3    P5    S    
O23   P4    D    
C11   H30   S    
Ba2   O24   S    
O18   P6    S    
C65   H22   S    
C49   H47   S    
O2    P5    D    
C29   C33   D    
C41   H38   S    
O27   P7    S    
O6    P7    D    
C1    H3    S    
C56   H19   S    
C66   H28   S    
C61   H56   S    
C6    P4    S    
C20   H33   S    
C23   C34   S    
C55   H51   S    
C27   N2    Am   
O1    P1    D    
C10   C11   A    
Ba1   P2    S    
C6    C14   D    
C17   C20   A    
C30   P6    S    
C25   C26   A    
O15   P6    S    
C39   C43   A    
C20   C21   A    
C28   C40   S    
Ba1   O15   S    
C53   P5    S    
C50   P2    S    
C65   O9    S    
C33   N2    S    
O28   P5    S    
Ba1   O5    S    
C16   H54   S    
C38   H35   S    
C42   H40   S    
