data_mof_unit_25137.cif
_audit_creation_date              2012-12-11T15:50:47-0500
_audit_creation_method            fapswitch 2.2
_symmetry_space_group_name_H-M    P1
_symmetry_Int_Tables_number       1
_space_group_crystal_system       triclinic
_cell_length_a                    18.931203
_cell_length_b                    11.032189
_cell_length_c                    18.741692
_cell_angle_alpha                 89.910539
_cell_angle_beta                  90.971669
_cell_angle_gamma                 89.950478
_cell_volume                      3913.68209746

loop_
_atom_site_label
_atom_site_type_symbol
_atom_type_description
_atom_site_fract_x
_atom_site_fract_y
_atom_site_fract_z
_atom_type_partial_charge
C1    C     C_R   0.275392 0.034117 0.856569 0.558274
C2    C     C_R   0.725528 0.036992 0.144019 0.563693
C3    C     C_R   0.775396 0.534107 0.856573 0.556936
C4    C     C_R   0.225526 0.536987 0.144017 0.566718
C5    C     C_3   0.542979 0.748309 0.968000 -0.156805
C6    C     C_3   0.486665 0.719777 0.024225 -0.161558
C7    C     C_3   0.042967 0.248297 0.968005 -0.156607
C8    C     C_3   0.986653 0.219783 0.024231 -0.161643
C9    C     C_R   0.235796 0.556929 0.067839 0.084073
C10   C     C_R   0.765887 0.551367 0.932641 0.052994
C11   C     C_R   0.735800 0.056939 0.067841 0.084400
C12   C     C_R   0.265879 0.051388 0.932635 0.052837
C13   C     C_R   0.284599 0.487705 0.030045 0.097912
C14   C     C_R   0.719916 0.478791 0.972240 0.085322
C15   C     C_R   0.784597 0.987704 0.030045 0.098235
C16   C     C_R   0.219915 0.978802 0.972236 0.084989
C17   C     C_R   0.290318 0.499764 0.956736 0.045507
C18   C     C_R   0.712944 0.497471 0.044720 0.025861
C19   C     C_R   0.790316 0.999766 0.956737 0.045407
C20   C     C_R   0.212944 0.997482 0.044716 0.026401
C21   C     C_R   0.183126 0.615158 0.953801 -0.106243
C22   C     C_R   0.814409 0.627331 0.044045 -0.143337
C23   C     C_R   0.683129 0.115173 0.953804 -0.106167
C24   C     C_R   0.314398 0.127366 0.044036 -0.143847
C25   C     C_R   0.181598 0.614320 0.027885 -0.070829
C26   C     C_R   0.817496 0.617547 0.970655 -0.128836
C27   C     C_R   0.681605 0.114341 0.027888 -0.070810
C28   C     C_R   0.317483 0.117585 0.970646 -0.128817
C29   C     C_3   0.362042 0.475904 0.040805 -0.282364
C30   C     C_3   0.643378 0.450319 0.962865 -0.275825
C31   C     C_3   0.862038 0.975880 0.040805 -0.282348
C32   C     C_3   0.143379 0.950311 0.962865 -0.276076
C33   C     C_3   0.368771 0.488007 0.960086 -0.268936
C34   C     C_3   0.635298 0.476048 0.042285 -0.280051
C35   C     C_3   0.868768 0.987998 0.960087 -0.268846
C36   C     C_3   0.135300 0.976039 0.042285 -0.279794
C37   C     C_R   0.243459 0.574462 0.918208 0.049296
C38   C     C_R   0.756586 0.579579 0.081056 0.033829
C39   C     C_R   0.743460 0.074468 0.918210 0.049397
C40   C     C_R   0.256582 0.079598 0.081050 0.033493
C41   C     C_R   0.519347 0.829662 0.430993 0.019062
C42   C     C_R   0.507941 0.828110 0.580241 0.033621
C43   C     C_R   0.003135 0.337452 0.424106 0.004050
C44   C     C_R   0.989919 0.326229 0.572931 0.054630
C45   C     C_R   0.470413 0.822303 0.855149 0.570059
C46   C     C_R   0.531364 0.821427 0.143762 0.576735
C47   C     C_R   0.970410 0.322303 0.855151 0.569303
C48   C     C_R   0.031362 0.321427 0.143764 0.576890
C49   C     C_R   0.522168 0.721837 0.469352 0.027061
C50   C     C_R   0.517412 0.720172 0.542113 0.010884
C51   C     C_R   0.962788 0.246596 0.454976 0.015264
C52   C     C_R   0.958158 0.240384 0.527876 0.061969
C53   C     C_R   0.519134 0.938305 0.544386 -0.083774
C54   C     C_R   0.523282 0.939080 0.469525 -0.097030
C55   C     C_R   0.023853 0.425479 0.542384 -0.083397
C56   C     C_R   0.030332 0.431053 0.468215 -0.125048
C57   C     C_3   0.480416 0.608680 0.459164 -0.269744
C58   C     C_3   0.475230 0.604961 0.539480 -0.260957
C59   C     C_3   0.964291 0.111415 0.447621 -0.276328
C60   C     C_3   0.964254 0.105443 0.528359 -0.272930
C61   C     C_R   0.254509 0.592465 0.420257 0.020533
C62   C     C_R   0.749086 0.609460 0.582633 0.029057
C63   C     C_R   0.750932 0.084086 0.423039 0.028202
C64   C     C_R   0.248027 0.113528 0.582950 0.043236
C65   C     C_R   0.225290 0.694797 0.451591 0.031910
C66   C     C_R   0.799628 0.675841 0.545024 0.020540
C67   C     C_R   0.723454 0.188129 0.453736 0.021323
C68   C     C_R   0.300082 0.176396 0.545984 0.032637
C69   C     C_R   0.225858 0.704268 0.523944 0.002841
C70   C     C_R   0.794771 0.683856 0.472749 -0.037822
C71   C     C_R   0.723235 0.197344 0.526131 -0.001734
C72   C     C_R   0.290261 0.209544 0.476196 -0.042354
C73   C     C_R   0.296109 0.524142 0.536948 -0.180778
C74   C     C_R   0.681178 0.587710 0.473553 -0.159449
C75   C     C_R   0.787120 0.010302 0.540466 -0.175710
C76   C     C_R   0.170425 0.137113 0.479791 -0.164915
C77   C     C_R   0.297415 0.515339 0.462923 -0.176250
C78   C     C_R   0.685058 0.581405 0.548113 -0.173845
C79   C     C_R   0.787992 0.000022 0.466654 -0.170104
C80   C     C_R   0.180324 0.104670 0.551924 -0.182439
C81   C     C_3   0.158304 0.767714 0.444726 0.236940
C82   C     C_3   0.879029 0.668742 0.541180 0.256420
C83   C     C_3   0.655177 0.257316 0.446523 0.237014
C84   C     C_3   0.374946 0.139676 0.533655 0.240828
C85   C     C_3   0.158477 0.773803 0.525711 -0.202643
C86   C     C_3   0.872336 0.679842 0.461246 -0.185469
C87   C     C_3   0.653787 0.260547 0.527193 -0.202378
C88   C     C_3   0.365196 0.180443 0.457714 -0.190696
C89   C     C_R   0.259769 0.633680 0.850576 0.575398
C90   C     C_R   0.740108 0.635014 0.149189 0.572395
C91   C     C_R   0.759769 0.133681 0.850576 0.574714
C92   C     C_R   0.240107 0.135018 0.149188 0.580198
C93   C     C_R   0.255185 0.614518 0.567999 0.026824
C94   C     C_R   0.740180 0.627694 0.435318 0.024820
C95   C     C_R   0.751105 0.106882 0.570494 0.034273
C96   C     C_R   0.227945 0.179005 0.439940 0.020241
C97   C     C_R   0.270569 0.049140 0.647225 0.587362
C98   C     C_R   0.728965 0.045387 0.353588 0.557156
C99   C     C_R   0.770635 0.549501 0.647802 0.576052
C100  C     C_R   0.229653 0.547154 0.352810 0.548855
C101  C     C_R   0.471437 0.823067 0.648029 0.569153
C102  C     C_R   0.533670 0.823220 0.355140 0.538767
C103  C     C_R   0.970017 0.322782 0.647113 0.552356
C104  C     C_R   0.030802 0.323993 0.353129 0.527020
C105  C     C_R   0.260354 0.639743 0.642642 0.545136
C106  C     C_R   0.737685 0.645208 0.359441 0.542763
C107  C     C_R   0.759374 0.137066 0.643972 0.542501
C108  C     C_R   0.224943 0.192425 0.362782 0.564107
C109  C     C_3   0.460468 0.915380 0.030600 -0.145585
C110  C     C_3   0.517218 0.943179 0.973573 -0.151278
C111  C     C_3   0.960472 0.415390 0.030603 -0.145933
C112  C     C_3   0.017223 0.443172 0.973575 -0.151057
C113  C     C_3   0.434820 0.806409 0.986016 0.372011
C114  C     C_3   0.568411 0.855961 0.012739 0.372809
C115  C     C_3   0.934814 0.306423 0.986021 0.371700
C116  C     C_3   0.068409 0.355945 0.012741 0.372967
C117  C     C_3   0.491028 0.833168 0.930033 0.011734
C118  C     C_3   0.512269 0.828563 0.068283 0.013498
C119  C     C_3   0.991023 0.333166 0.930037 0.011718
C120  C     C_3   0.012266 0.328564 0.068286 0.013058
Cr1   Cr    Cr6+3 0.229640 0.835880 0.747370 1.022950
Cr2   Cr    Cr6+3 0.770360 0.835880 0.252630 1.023472
Cr3   Cr    Cr6+3 0.729640 0.335880 0.747370 1.016734
Cr4   Cr    Cr6+3 0.270360 0.335880 0.252630 1.016306
Cr5   Cr    Cr6+3 0.387390 0.989720 0.750850 1.038679
Cr6   Cr    Cr6+3 0.612610 0.989720 0.249150 1.078163
Cr7   Cr    Cr6+3 0.887390 0.489720 0.750850 1.058253
Cr8   Cr    Cr6+3 0.112610 0.489720 0.249150 1.071478
Cr9   Cr    Cr6+3 0.385770 0.677220 0.749340 1.021785
Cr10  Cr    Cr6+3 0.614230 0.677220 0.250660 1.028345
Cr11  Cr    Cr6+3 0.885770 0.177220 0.749340 1.022522
Cr12  Cr    Cr6+3 0.114230 0.177220 0.250660 1.024638
H1    H     H_    0.516295 0.023687 0.572611 0.143680
H2    H     H_    0.525714 0.024525 0.441831 0.215180
H3    H     H_    0.045790 0.496999 0.575503 0.140246
H4    H     H_    0.061891 0.502826 0.446226 0.217856
H5    H     H_    0.012609 0.072800 0.424406 0.162000
H6    H     H_    0.917660 0.060671 0.550729 0.160354
H7    H     H_    0.511899 0.532827 0.437247 0.144928
H8    H     H_    0.420521 0.617843 0.557738 0.186895
H9    H     H_    0.429021 0.625541 0.431344 0.151381
H10   H     H_    0.504076 0.527280 0.564158 0.121899
H11   H     H_    0.914973 0.076925 0.422260 0.144864
H12   H     H_    0.015283 0.073770 0.551772 0.124655
H13   H     H_    0.326109 0.440860 0.439888 0.143258
H14   H     H_    0.641559 0.543598 0.577477 0.115848
H15   H     H_    0.812723 0.921279 0.444138 0.142134
H16   H     H_    0.137667 0.063378 0.580893 0.108039
H17   H     H_    0.166100 0.857118 0.418554 0.132536
H18   H     H_    0.906877 0.745618 0.567624 0.101111
H19   H     H_    0.661959 0.347248 0.420977 0.114335
H20   H     H_    0.414630 0.192222 0.565141 0.102278
H21   H     H_    0.115004 0.721551 0.550470 0.162551
H22   H     H_    0.889122 0.597331 0.431919 0.184143
H23   H     H_    0.611607 0.203446 0.550572 0.153024
H24   H     H_    0.370306 0.104856 0.418896 0.198104
H25   H     H_    0.427021 0.981050 0.059108 0.122496
H26   H     H_    0.530648 0.033457 0.951515 0.106515
H27   H     H_    0.927035 0.481069 0.059115 0.121973
H28   H     H_    0.030658 0.533446 0.951515 0.106690
H29   H     H_    0.579247 0.689855 0.938597 0.119208
H30   H     H_    0.480561 0.627589 0.045868 0.111041
H31   H     H_    0.079224 0.189824 0.938604 0.119206
H32   H     H_    0.980545 0.127600 0.045879 0.111164
H33   H     H_    0.140169 0.659098 0.925184 0.106492
H34   H     H_    0.854220 0.682405 0.070287 0.126288
H35   H     H_    0.640172 0.159115 0.925188 0.106216
H36   H     H_    0.354206 0.182449 0.070275 0.126224
H37   H     H_    0.136846 0.656294 0.053306 0.123490
H38   H     H_    0.859991 0.664186 0.944083 0.130684
H39   H     H_    0.636856 0.156323 0.053310 0.123270
H40   H     H_    0.359972 0.164236 0.944072 0.130762
H41   H     H_    0.877635 0.885409 0.061431 0.132099
H42   H     H_    0.134544 0.854112 0.949621 0.139220
H43   H     H_    0.377649 0.385443 0.061439 0.131958
H44   H     H_    0.634534 0.354124 0.949620 0.139107
H45   H     H_    0.381851 0.552901 0.073057 0.144393
H46   H     H_    0.615692 0.512283 0.925696 0.121824
H47   H     H_    0.881854 0.052862 0.073065 0.144117
H48   H     H_    0.115686 0.012266 0.925696 0.121956
H49   H     H_    0.396697 0.570625 0.942654 0.214748
H50   H     H_    0.604780 0.559479 0.053502 0.172984
H51   H     H_    0.896697 0.070617 0.942662 0.214802
H52   H     H_    0.104774 0.059462 0.053503 0.172688
O1    O     O_R   0.214300 0.709080 0.827500 -0.530397
O2    O     O_R   0.785700 0.709080 0.172500 -0.525528
O3    O     O_R   0.714300 0.209080 0.827500 -0.531131
O4    O     O_R   0.285700 0.209080 0.172500 -0.523004
O5    O     O_R   0.445900 0.919370 0.676500 -0.473915
O6    O     O_R   0.554100 0.919370 0.323500 -0.491090
O7    O     O_R   0.945900 0.419370 0.676500 -0.446308
O8    O     O_R   0.054100 0.419370 0.323500 -0.495491
O9    O     O_R   0.456660 0.717710 0.669820 -0.537836
O10   O     O_R   0.543340 0.717710 0.330180 -0.524277
O11   O     O_R   0.956660 0.217710 0.669820 -0.539884
O12   O     O_R   0.043340 0.217710 0.330180 -0.538569
O13   O     O_R   0.320590 0.625770 0.672930 -0.513703
O14   O     O_R   0.679410 0.625770 0.327070 -0.513858
O15   O     O_R   0.820590 0.125770 0.672930 -0.509781
O16   O     O_R   0.179410 0.125770 0.327070 -0.508018
O17   O     O_3   0.334270 0.834280 0.749190 -0.239774
O18   O     O_3   0.665730 0.834280 0.250810 -0.256734
O19   O     O_3   0.834270 0.334280 0.749190 -0.244367
O20   O     O_3   0.165730 0.334280 0.250810 -0.276751
O21   O     O_R   0.236190 0.958390 0.823150 -0.502686
O22   O     O_R   0.763810 0.958390 0.176850 -0.500394
O23   O     O_R   0.736190 0.458390 0.823150 -0.502823
O24   O     O_R   0.263810 0.458390 0.176850 -0.499565
O25   O     O_R   0.332090 0.075280 0.831290 -0.536161
O26   O     O_R   0.667910 0.075280 0.168710 -0.524247
O27   O     O_R   0.832090 0.575280 0.831290 -0.536944
O28   O     O_R   0.167910 0.575280 0.168710 -0.520839
O29   O     O_R   0.446280 0.918040 0.826620 -0.504152
O30   O     O_R   0.553720 0.918040 0.173380 -0.487795
O31   O     O_R   0.946280 0.418040 0.826620 -0.504367
O32   O     O_R   0.053720 0.418040 0.173380 -0.485896
O33   O     O_R   0.457080 0.716270 0.831760 -0.520633
O34   O     O_R   0.542920 0.716270 0.168240 -0.527125
O35   O     O_R   0.957080 0.216270 0.831760 -0.520507
O36   O     O_R   0.042920 0.216270 0.168240 -0.526077
O37   O     O_R   0.320980 0.624440 0.823040 -0.488312
O38   O     O_R   0.679020 0.624440 0.176960 -0.492823
O39   O     O_R   0.820980 0.124440 0.823040 -0.488553
O40   O     O_R   0.179020 0.124440 0.176960 -0.488238
O41   O     O_R   0.213880 0.710510 0.665560 -0.528556
O42   O     O_R   0.786120 0.710510 0.334440 -0.525137
O43   O     O_R   0.713880 0.210510 0.665560 -0.530898
O44   O     O_R   0.286120 0.210510 0.334440 -0.527860
O45   O     O_R   0.235800 0.959720 0.673040 -0.512415
O46   O     O_R   0.764200 0.959720 0.326960 -0.531936
O47   O     O_R   0.735800 0.459720 0.673040 -0.517431
O48   O     O_R   0.264200 0.459720 0.326960 -0.543503
O49   O     O_R   0.331670 0.076720 0.669350 -0.493424
O50   O     O_R   0.668330 0.076720 0.330650 -0.434390
O51   O     O_R   0.831670 0.576720 0.669350 -0.463802
O52   O     O_R   0.168330 0.576720 0.330650 -0.440083
F1    F     F_    0.364321 0.783530 0.970937 -0.650872
F2    F     F_    0.638918 0.871630 0.028988 -0.651907
F3    F     F_    0.864314 0.283554 0.970944 -0.651107
F4    F     F_    0.138918 0.371600 0.028989 -0.652015
H53   H     H_    0.325768 0.459981 0.569476 0.114892
H54   H     H_    0.633991 0.556941 0.446070 0.134466
H55   H     H_    0.813657 0.943284 0.573670 0.103705
H56   H     H_    0.120270 0.120809 0.454003 0.131877
F5    F     F_    0.100453 0.704560 0.418782 -0.644526
F6    F     F_    0.904475 0.556036 0.559678 -0.624354
F7    F     F_    0.598768 0.192465 0.419164 -0.651514
F8    F     F_    0.381931 0.015039 0.537921 -0.638563
H57   H     H_    0.166532 0.866100 0.546878 0.119138
H58   H     H_    0.893905 0.766345 0.440563 0.101452
H59   H     H_    0.658385 0.351742 0.550022 0.111504
H60   H     H_    0.396586 0.262521 0.445055 0.091593
H61   H     H_    0.387023 0.403064 0.934433 0.114932
H62   H     H_    0.620034 0.394772 0.073528 0.129966
H63   H     H_    0.887017 0.903058 0.934428 0.115223
H64   H     H_    0.120044 0.894760 0.073528 0.131081

loop_
_geom_bond_atom_site_label_1
_geom_bond_atom_site_label_2
_ccdc_geom_bond_type
Cr8   O52   S    
C83   C87   S    
C55   C56   A    
C48   O32   A    
C15   C19   A    
C67   C83   S    
C114  F2    S    
C46   O34   A    
C27   H39   S    
C5    C114  S    
C45   O33   A    
C34   H62   S    
C14   C18   A    
C111  C112  S    
C73   C93   A    
C43   C56   A    
C109  H25   S    
C103  O7    A    
C9    C25   A    
C7    C8    S    
C48   C120  S    
C63   C79   A    
C53   C54   A    
Cr6   O18   S    
C87   H59   S    
C105  O13   A    
C107  O15   A    
Cr5   O17   S    
C36   H64   S    
C75   C79   A    
C17   C33   S    
C12   C28   A    
C64   C68   A    
C13   C29   S    
C76   H56   S    
C29   H43   S    
C90   O38   A    
C63   C98   S    
C69   C93   A    
C42   C53   A    
C89   O37   A    
C5    C6    S    
C20   C40   A    
C71   C95   A    
Cr1   O41   S    
Cr2   O2    S    
Cr3   O43   S    
C59   H5    S    
C35   H51   S    
C86   H58   S    
C54   H2    S    
C29   C33   S    
Cr12  O16   S    
C49   C57   S    
C41   C102  S    
C46   C118  S    
Cr11  O35   S    
Cr8   O20   S    
C39   C91   S    
Cr6   O6    S    
C9    C13   A    
C43   C104  S    
Cr9   O33   S    
C52   C60   S    
C8    C115  S    
C93   C105  S    
C98   O46   A    
C11   C15   A    
C28   H40   S    
C85   H57   S    
C97   O45   A    
C12   C16   A    
C61   C77   A    
C46   O30   A    
C7    C119  S    
C47   O31   A    
C22   C38   A    
Cr5   O29   S    
C76   C80   A    
C106  O42   A    
C36   H52   S    
Cr1   O21   S    
Cr11  O19   S    
C110  C114  S    
Cr10  O18   S    
C1    O25   A    
C109  C113  S    
C106  O14   A    
Cr9   O17   S    
C10   C26   A    
C113  F1    S    
C32   C36   S    
C96   C108  S    
C59   H11   S    
C59   C60   S    
C29   H45   S    
Cr4   O24   S    
C35   H63   S    
C64   C80   A    
Cr6   O30   S    
C85   H21   S    
C1    C12   S    
C103  O11   A    
C33   H49   S    
C14   C30   S    
Cr6   O50   S    
C2    C11   S    
C102  O10   A    
C110  C117  S    
C30   H44   S    
Cr4   O44   S    
C44   C103  S    
C101  O9    A    
C109  C118  S    
C4    O24   A    
C83   H19   S    
C23   C27   A    
C81   H17   S    
C3    O27   A    
Cr2   O46   S    
C63   C67   A    
C2    O26   A    
Cr5   O5    S    
C62   C66   A    
C75   C95   A    
C51   C52   A    
C68   C84   S    
C6    H30   S    
C92   O40   A    
Cr10  O38   S    
C53   H1    S    
C68   C72   A    
Cr1   O45   S    
Cr9   O37   S    
C8    H32   S    
C55   H3    S    
Cr4   O4    S    
C30   C34   S    
C20   C36   S    
C79   H15   S    
C108  O44   A    
C31   H47   S    
C32   H42   S    
C82   C86   S    
C47   O35   A    
Cr7   O7    S    
C116  C120  S    
C115  C119  S    
C5    C117  S    
C111  C120  S    
Cr8   O8    S    
Cr7   O19   S    
C72   C96   A    
C7    C116  S    
C108  O16   A    
C80   H16   S    
Cr11  O15   S    
C6    C113  S    
C94   C106  S    
C81   F5    S    
C76   C96   A    
C66   C82   S    
C99   O51   A    
C38   C90   S    
C58   H10   S    
C13   C17   A    
C65   C81   S    
C98   O50   A    
C11   C27   A    
C16   C20   A    
C97   O49   A    
C73   H53   S    
C30   H46   S    
C50   C58   S    
Cr3   O47   S    
Cr2   O22   S    
C102  O6    A    
C82   H18   S    
C40   C92   S    
C41   C54   A    
C18   C34   S    
Cr4   O48   S    
Cr12  O20   S    
C19   C39   A    
C42   C50   A    
C71   C87   S    
C84   H20   S    
C111  C115  S    
Cr7   O27   S    
C64   C97   S    
Cr8   O32   S    
C56   H4    S    
C104  O12   A    
C105  O41   A    
C75   H55   S    
Cr6   O26   S    
C74   H54   S    
C23   H35   S    
C100  O52   A    
C61   C100  S    
C51   C59   S    
C17   C37   A    
C91   O39   A    
C70   C86   S    
C42   C101  S    
C77   H13   S    
C112  C116  S    
C22   C26   A    
C69   C85   S    
C8    C120  S    
C104  O8    A    
C48   O36   A    
C113  C117  S    
C25   H37   S    
Cr10  O34   S    
C65   C69   A    
C21   C25   A    
C114  C118  S    
Cr5   O25   S    
C99   O47   A    
C112  H28   S    
C70   C94   A    
Cr12  O40   S    
Cr8   O28   S    
C89   O1    A    
C62   C78   A    
Cr11  O11   S    
C24   C28   A    
C111  H27   S    
Cr10  O10   S    
C110  H26   S    
C44   C52   A    
C112  C119  S    
Cr9   O9    S    
Cr7   O51   S    
C92   O4    A    
C15   C31   S    
C24   H36   S    
C87   H23   S    
C37   C89   S    
C16   C32   S    
C41   C49   A    
C90   O2    A    
C116  F4    S    
C101  O5    A    
C4    O28   A    
C57   H9    S    
C72   C88   S    
C3    O23   A    
C5    H29   S    
Cr2   O18   S    
C33   H61   S    
C60   H6    S    
C18   C38   A    
Cr1   O17   S    
C3    C10   S    
C19   C35   S    
C109  C110  S    
C60   H12   S    
C115  F3    S    
Cr4   O20   S    
C44   C55   A    
Cr7   O31   S    
C57   C58   S    
C66   C70   A    
C84   C88   S    
C7    H31   S    
C43   C51   A    
C23   C39   A    
C31   C35   S    
C47   C119  S    
C1    O21   A    
C24   C40   A    
C95   C107  S    
C34   H50   S    
C67   C71   A    
C86   H22   S    
C45   O29   A    
C81   C85   S    
C45   C117  S    
C57   H7    S    
Cr5   O49   S    
C84   F8    S    
C78   H14   S    
C21   H33   S    
Cr1   O1    S    
C62   C99   S    
C22   H34   S    
C61   C65   A    
C107  O43   A    
Cr3   O23   S    
C21   C37   A    
C26   H38   S    
C31   H41   S    
C49   C50   A    
C74   C78   A    
C83   F7    S    
C74   C94   A    
Cr12  O12   S    
C73   C77   A    
C2    O22   A    
C32   H48   S    
C100  O48   A    
Cr11  O39   S    
C88   H24   S    
C58   H8    S    
Cr3   O19   S    
Cr12  O36   S    
C4    C9    S    
Cr10  O14   S    
C82   F6    S    
C91   O3    A    
C6    C118  S    
Cr9   O13   S    
C88   H60   S    
C10   C14   A    
Cr3   O3    S    
Cr2   O42   S    
