data_mof_unit_53240.cif
_audit_creation_date              2012-12-10T17:07:09-0500
_audit_creation_method            fapswitch 2.2
_symmetry_space_group_name_H-M    P1
_symmetry_Int_Tables_number       1
_space_group_crystal_system       triclinic
_cell_length_a                    18.312865
_cell_length_b                    18.243981
_cell_length_c                    18.342024
_cell_angle_alpha                 120.018209
_cell_angle_beta                  120.105667
_cell_angle_gamma                 60.344626
_cell_volume                      4340.2693238

loop_
_atom_site_label
_atom_site_type_symbol
_atom_type_description
_atom_site_fract_x
_atom_site_fract_y
_atom_site_fract_z
_atom_type_partial_charge
Br1   Br    Br    0.658586 0.963689 0.275181 -0.027799
Br2   Br    Br    0.710245 0.035440 0.528243 -0.047579
Br3   Br    Br    0.244180 0.545877 0.113835 0.004097
Br4   Br    Br    0.156718 0.092988 0.786863 0.002387
Br5   Br    Br    0.623077 0.580934 0.711463 -0.009488
Br6   Br    Br    0.957354 0.297914 0.786425 0.019017
C1    C     C_R   0.139747 0.864468 0.644839 0.535196
C2    C     C_R   0.691762 0.468050 0.733525 0.017547
C3    C     C_R   0.782297 0.428320 0.738853 -0.011782
C4    C     C_R   0.861486 0.139970 0.360115 0.508520
C5    C     C_R   0.828215 0.339303 0.739167 0.105597
C6    C     C_R   0.919931 0.273719 0.380277 -0.062263
C7    C     C_R   0.946107 0.339548 0.391534 -0.100268
C8    C     C_R   0.891685 0.393553 0.338418 -0.109468
C9    C     C_R   0.811079 0.381634 0.273160 -0.074177
C10   C     C_R   0.781550 0.316828 0.261895 0.025363
C11   C     C_R   0.837031 0.262263 0.316566 0.030611
C12   C     C_R   0.743497 0.161184 0.832460 0.022482
C13   C     C_R   0.809400 0.195886 0.304213 0.004188
C14   C     C_R   0.730034 0.182025 0.237837 -0.104288
C15   C     C_R   0.673606 0.235877 0.184373 -0.009230
C16   C     C_R   0.139826 0.140052 0.641698 0.497388
C17   C     C_R   0.699247 0.303808 0.196411 -0.004683
C18   C     C_R   0.938968 0.669712 0.328508 -0.086672
C19   C     C_R   0.977026 0.577443 0.310983 -0.099693
C20   C     C_R   0.923616 0.522798 0.255405 -0.117908
C21   C     C_R   0.831624 0.560151 0.218009 -0.090852
C22   C     C_R   0.791756 0.653398 0.234629 0.022878
C23   C     C_R   0.734973 0.208907 0.785173 0.025604
C24   C     C_R   0.846076 0.708873 0.290081 0.010687
C25   C     C_R   0.806221 0.801741 0.303827 0.028395
C26   C     C_R   0.714637 0.838563 0.261444 0.016263
C27   C     C_R   0.661839 0.783864 0.207785 -0.096790
C28   C     C_R   0.859775 0.860378 0.360080 0.497467
C29   C     C_R   0.699268 0.692623 0.195487 0.020740
C30   C     C_R   0.070433 0.834162 0.747169 0.006029
C31   C     C_R   0.028410 0.787134 0.748263 -0.044958
C32   C     C_R   0.072786 0.696327 0.739930 -0.053947
C33   C     C_R   0.162346 0.655672 0.744844 0.017903
C34   C     C_R   0.761832 0.158333 0.710082 -0.021223
C35   C     C_R   0.208063 0.707944 0.758548 -0.038393
C36   C     C_R   0.156646 0.787563 0.737936 0.030148
C37   C     C_R   0.194852 0.815244 0.708633 0.051405
C38   C     C_R   0.287709 0.783798 0.730242 -0.141940
C39   C     C_R   0.341237 0.724192 0.777041 -0.113181
C40   C     C_R   0.139714 0.860148 0.359768 0.526471
C41   C     C_R   0.302480 0.685868 0.792441 0.009849
C42   C     C_R   0.245036 0.936418 0.350318 0.040794
C43   C     C_R   0.310187 0.962882 0.360070 -0.152922
C44   C     C_R   0.372275 0.904350 0.316304 0.022262
C45   C     C_R   0.694837 0.303129 0.801873 0.011814
C46   C     C_R   0.368446 0.818158 0.260665 -0.063304
C47   C     C_R   0.307449 0.786732 0.253462 -0.035320
C48   C     C_R   0.247305 0.844800 0.302213 0.024944
C49   C     C_R   0.193933 0.808189 0.301923 0.000749
C50   C     C_R   0.195176 0.718718 0.248939 -0.015553
C51   C     C_R   0.248092 0.665543 0.193995 0.051752
C52   C     C_R   0.859380 0.140262 0.639717 0.523680
C53   C     C_R   0.304513 0.698885 0.197040 0.006731
C54   C     C_R   0.233715 0.162410 0.839332 0.035619
C55   C     C_R   0.282410 0.173700 0.930035 -0.091708
C56   C     C_R   0.707879 0.340963 0.759281 -0.080864
C57   C     C_R   0.337061 0.226501 0.979904 -0.102762
C58   C     C_R   0.344074 0.269302 0.940106 -0.086003
C59   C     C_R   0.297344 0.258794 0.848457 0.019235
C60   C     C_R   0.241348 0.204194 0.795911 0.024106
C61   C     C_R   0.195165 0.196443 0.703746 0.038539
C62   C     C_R   0.201674 0.243583 0.667456 -0.130895
C63   C     C_R   0.255474 0.296828 0.719510 -0.109346
C64   C     C_R   0.747372 0.074320 0.657191 0.002786
C65   C     C_R   0.303979 0.303749 0.808808 0.045641
C66   C     C_R   0.640140 0.639722 0.139807 0.500155
C67   C     C_R   0.781695 0.291313 0.731089 -0.033679
C68   C     C_R   0.360039 0.359975 0.859789 0.489091
C69   C     C_R   0.640657 0.359993 0.140041 0.476483
C70   C     C_R   0.359684 0.635789 0.855384 0.500109
C71   C     C_R   0.360120 0.640762 0.140191 0.496584
C72   C     C_R   0.639974 0.359713 0.859579 0.530362
C73   C     C_R   0.737431 0.031245 0.696146 -0.014797
C74   C     C_R   0.743048 0.072631 0.786300 -0.141509
C75   C     C_2   0.826937 0.479019 0.740929 0.256346
C76   C     C_2   0.586185 0.222828 0.119456 0.244262
C77   C     C_2   0.030921 0.933035 0.768730 0.260859
C78   C     C_R   0.801169 0.196728 0.693893 0.008069
C79   C     C_2   0.939478 0.830969 0.759424 0.237112
C80   C     C_2   0.202779 0.556927 0.723208 0.265473
C81   C     C_2   0.142041 0.680600 0.252865 0.237218
C82   C     C_2   0.172751 0.010338 0.384809 0.235111
C83   C     C_2   0.724469 0.942378 0.644774 0.248329
C84   C     C_2   0.438962 0.935617 0.327043 0.238765
C85   C     C_2   0.768516 0.194398 0.931209 0.283177
C86   C     C_2   0.554841 0.451517 0.719793 0.282539
C87   C     C_R   0.653241 0.423788 0.743398 0.038670
H1    H     H_    0.965926 0.231565 0.421270 0.144572
H2    H     H_    0.319275 0.806307 0.712258 0.159332
H3    H     H_    0.038343 0.657639 0.732566 0.216546
H4    H     H_    0.412995 0.707243 0.799989 0.191127
H5    H     H_    0.309944 0.031426 0.399023 0.086400
H6    H     H_    0.414344 0.775950 0.223757 0.174198
H7    H     H_    0.165627 0.237973 0.597545 0.111222
H8    H     H_    0.276830 0.142185 0.962955 0.141543
H9    H     H_    0.373325 0.235350 0.050312 0.155732
H10   H     H_    0.385715 0.311611 0.982194 0.110275
H11   H     H_    0.260470 0.331781 0.689585 0.147188
H12   H     H_    0.009340 0.348077 0.441094 0.128030
H13   H     H_    0.746329 0.036272 0.820473 0.160909
H14   H     H_    0.710632 0.130560 0.230261 0.177315
H15   H     H_    0.805659 0.551500 0.769016 0.131219
H16   H     H_    0.534475 0.272191 0.087855 0.109493
H17   H     H_    0.959274 0.965206 0.745856 0.102593
H18   H     H_    0.907809 0.902754 0.777346 0.097208
H19   H     H_    0.265680 0.522047 0.710724 0.092650
H20   H     H_    0.075482 0.720631 0.256420 0.123503
H21   H     H_    0.189211 0.058629 0.451537 0.083853
H22   H     H_    0.731853 0.904116 0.579415 0.130524
H23   H     H_    0.912498 0.444437 0.347429 0.123043
H24   H     H_    0.439046 0.003726 0.368730 0.111134
H25   H     H_    0.762777 0.161732 0.963041 0.112905
H26   H     H_    0.525441 0.402675 0.700617 0.076849
H27   H     H_    0.773235 0.423266 0.231631 0.135820
H28   H     H_    0.982989 0.709670 0.371219 0.114713
H29   H     H_    0.048344 0.548150 0.340114 0.136734
H30   H     H_    0.953625 0.451109 0.241133 0.127480
H31   H     H_    0.792389 0.515438 0.175034 0.116430
H32   H     H_    0.591001 0.812681 0.175609 0.163922
O1    O     O_3   0.000000 0.000000 0.500000 -0.455028
O2    O     O_R   0.323460 0.615830 0.884170 -0.540176
O3    O     O_R   0.444880 0.615840 0.176480 -0.541207
O4    O     O_R   0.055060 0.884200 0.615800 -0.547379
O5    O     O_R   0.615800 0.444940 0.884180 -0.532320
O6    O     O_R   0.323440 0.615840 0.055040 -0.523270
O7    O     O_R   0.615780 0.323500 0.884180 -0.529814
O8    O     O_R   0.615760 0.323500 0.055050 -0.546699
O9    O     O_R   0.444910 0.615830 0.884180 -0.516917
O10   O     O_R   0.615780 0.615830 0.176490 -0.530850
O11   O     O_R   0.323430 0.444950 0.884170 -0.506507
O12   O     O_R   0.055100 0.176520 0.615800 -0.519784
O13   O     O_R   0.884210 0.176520 0.444920 -0.539508
O14   O     O_R   0.176540 0.055080 0.615800 -0.543412
O15   O     O_R   0.884190 0.884200 0.323480 -0.541704
O16   O     O_R   0.176540 0.884190 0.444930 -0.539219
O17   O     O_R   0.884180 0.055090 0.615790 -0.542430
O18   O     O_R   0.055100 0.884190 0.323490 -0.516913
O19   O     O_R   0.884190 0.176530 0.615790 -0.527528
O20   O     O_2   0.886424 0.440746 0.709166 -0.456161
O21   O     O_2   0.570402 0.156695 0.100998 -0.506785
O22   O     O_2   0.078830 0.979794 0.812911 -0.497510
O23   O     O_R   0.884180 0.884200 0.444920 -0.546730
O24   O     O_2   0.900446 0.786931 0.750012 -0.445092
O25   O     O_2   0.165912 0.513289 0.718069 -0.506600
O26   O     O_2   0.173473 0.605090 0.255781 -0.490039
O27   O     O_2   0.094680 0.022016 0.336602 -0.499924
O28   O     O_2   0.705446 0.910385 0.675091 -0.448595
O29   O     O_2   0.494805 0.885898 0.290073 -0.521820
O30   O     O_2   0.798838 0.256264 0.978163 -0.500934
O31   O     O_2   0.505839 0.527977 0.723104 -0.502239
O32   O     O_R   0.176510 0.884190 0.615800 -0.543613
O33   O     O_R   0.884210 0.055080 0.323480 -0.508963
O34   O     O_3   0.499970 0.500030 0.999970 -0.457734
O35   O     O_R   0.615800 0.615830 0.055050 -0.533970
O36   O     O_R   0.444880 0.323510 0.884180 -0.555003
O37   O     O_R   0.615760 0.444950 0.176490 -0.541368
Zn1   Zn    Zn3+2 0.956630 0.130130 0.543370 0.990433
Zn2   Zn    Zn3+2 0.130140 0.956620 0.543380 0.962731
Zn3   Zn    Zn3+2 0.956630 0.956620 0.369870 0.984687
Zn4   Zn    Zn3+2 0.956610 0.956630 0.543370 0.942384
Zn5   Zn    Zn3+2 0.543340 0.369890 0.956600 0.940554
Zn6   Zn    Zn3+2 0.543340 0.543410 0.130100 0.953841
Zn7   Zn    Zn3+2 0.369830 0.543410 0.956590 0.971883
Zn8   Zn    Zn3+2 0.543370 0.543400 0.956600 0.974422

loop_
_geom_bond_atom_site_label_1
_geom_bond_atom_site_label_2
_ccdc_geom_bond_type
C2    C3    A    
C58   H10   S    
C49   C50   A    
C83   H22   S    
O34   Zn8   S    
O23   Zn4   S    
C35   C36   A    
C34   C78   A    
C30   C36   A    
C13   C14   A    
O7    Zn5   S    
O1    Zn3   S    
C18   H28   S    
C53   C71   S    
C62   H7    S    
C47   C53   A    
C33   C35   A    
C47   C48   A    
O34   Zn6   S    
C42   C48   A    
C6    C7    A    
C16   O12   A    
C20   C21   A    
C34   C64   A    
O4    Zn4   S    
C69   O37   A    
C12   C85   S    
C31   C79   S    
O14   Zn2   S    
C86   H26   S    
C41   C70   S    
C80   O25   D    
C32   C33   A    
C51   C53   A    
C30   C77   S    
C9    C10   A    
C74   H13   S    
C9    H27   S    
C55   C57   A    
C71   O6    A    
C28   O15   A    
C63   C65   A    
C72   O7    A    
O18   Zn3   S    
C11   C13   A    
C43   H5    S    
C28   O23   A    
C44   C84   S    
C22   C29   A    
C62   C63   A    
C68   O11   A    
C6    C11   A    
C30   C31   A    
C44   C46   A    
O10   Zn6   S    
C42   C82   S    
C56   C67   A    
O13   Zn1   S    
C1    C37   S    
C84   O29   D    
C19   H29   S    
C4    O33   A    
C67   C78   A    
C14   H14   S    
C60   C61   A    
C75   H15   S    
C54   C60   A    
C81   O26   D    
C7    C8    A    
C50   C81   S    
C82   O27   D    
C6    H1    S    
C45   C56   A    
C57   H9    S    
O1    Zn2   S    
C76   O21   D    
C40   O16   A    
C79   O24   D    
C39   C41   A    
C85   H25   S    
C38   C39   A    
C81   H20   S    
C61   C62   A    
C76   H16   S    
C18   C19   A    
C7    H12   S    
C5    C67   A    
Br6   C5    S    
O12   Zn1   S    
C70   O9    A    
C10   C11   A    
C66   O10   A    
C79   H18   S    
C19   C20   A    
C59   C65   A    
C16   O14   A    
Br1   C26   S    
C57   C58   A    
C54   C55   A    
C40   C49   S    
C55   H8    S    
C37   C38   A    
C84   H24   S    
C85   O30   D    
C31   C32   A    
C52   C78   S    
O17   Zn4   S    
C52   O17   A    
C83   O28   D    
C25   C26   A    
C4    C13   S    
Br4   C54   S    
C27   H32   S    
C35   C41   A    
C77   H17   S    
C86   O31   D    
C12   C23   A    
C14   C15   A    
C3    C5    A    
O32   Zn2   S    
O36   Zn5   S    
C71   O3    A    
C77   O22   D    
Br3   C51   S    
C42   C43   A    
C68   O36   A    
C29   C66   S    
C59   C60   A    
C10   C17   A    
C75   O20   D    
C15   C17   A    
O19   Zn1   S    
O9    Zn8   S    
O37   Zn6   S    
Br5   C2    S    
C20   H30   S    
O1    Zn1   S    
C25   C28   S    
C46   C47   A    
C23   C45   A    
C63   H11   S    
O15   Zn3   S    
C50   C51   A    
C48   C49   A    
O6    Zn7   S    
O34   Zn7   S    
C64   C73   A    
C2    C87   A    
C17   C69   S    
O1    Zn4   S    
C65   C68   S    
C21   H31   S    
C69   O8    A    
C40   O18   A    
C1    O32   A    
O2    Zn7   S    
C46   H6    S    
C66   O35   A    
C58   C59   A    
O8    Zn5   S    
C72   O5    A    
C45   C72   S    
C38   H2    S    
C39   H4    S    
C26   C27   A    
C15   C76   S    
C24   C25   A    
O5    Zn8   S    
C8    H23   S    
C23   C34   A    
C22   C24   A    
C86   C87   S    
C27   C29   A    
O34   Zn5   S    
C82   H21   S    
C18   C24   A    
C16   C61   S    
C1    O4    A    
C73   C74   A    
C52   O19   A    
C80   H19   S    
O11   Zn7   S    
O16   Zn2   S    
C12   C74   A    
C43   C44   A    
C36   C37   A    
C56   C87   A    
C32   H3    S    
C21   C22   A    
O3    Zn6   S    
C70   O2    A    
O35   Zn8   S    
C8    C9    A    
C73   C83   S    
C4    O13   A    
C33   C80   S    
Br2   C64   S    
O33   Zn3   S    
C3    C75   S    
