data_mof_unit_12315.cif
_audit_creation_date              2012-12-10T19:00:12-0500
_audit_creation_method            fapswitch 2.2
_symmetry_space_group_name_H-M    P1
_symmetry_Int_Tables_number       1
_space_group_crystal_system       triclinic
_cell_length_a                    9.565803
_cell_length_b                    10.815078
_cell_length_c                    13.457456
_cell_angle_alpha                 90.125903
_cell_angle_beta                  73.423693
_cell_angle_gamma                 89.767705
_cell_volume                      1334.36009224

loop_
_atom_site_label
_atom_site_type_symbol
_atom_type_description
_atom_site_fract_x
_atom_site_fract_y
_atom_site_fract_z
_atom_type_partial_charge
C1    C     C_R   0.500283 0.737521 0.498494 0.806910
C2    C     C_R   0.450569 0.450074 0.972998 0.080645
C3    C     C_R   0.495215 0.443611 0.863679 0.103748
C4    C     C_R   0.555554 0.473667 0.026537 0.011800
C5    C     C_R   0.705254 0.461934 0.972640 0.171484
C6    C     C_R   0.748396 0.432890 0.867538 -0.248935
C7    C     C_R   0.645100 0.422633 0.813906 -0.202170
C8    C     C_R   0.516489 0.513313 0.130828 -0.075855
C9    C     C_R   0.769089 0.490821 0.131775 -0.196659
C10   C     C_R   0.386730 0.451981 0.809865 -0.107331
C11   C     C_R   0.371735 0.936674 0.509312 0.144465
C12   C     C_R   0.424314 0.484779 0.698579 0.790350
C13   C     C_R   0.502340 0.870549 0.489457 -0.098208
C14   C     C_R   0.634952 0.934528 0.456265 -0.206244
C15   C     C_R   0.634946 0.063468 0.456107 -0.213775
C16   C     C_R   0.502651 0.128977 0.489943 -0.092470
C17   C     C_R   0.371823 0.064001 0.509834 0.121806
C18   C     C_3   0.240032 0.070573 0.601805 -0.474815
C19   C     C_3   0.239707 0.930251 0.600816 -0.466471
C20   C     C_R   0.958696 0.446667 0.420393 0.275336
C21   C     C_R   0.896037 0.563234 0.573111 -0.096767
C22   C     C_R   0.044785 0.563172 0.573160 -0.100428
C23   C     C_R   0.500656 0.262341 0.498478 0.790609
C24   C     C_R   0.105673 0.446825 0.420410 0.388014
C25   C     C_3   0.127487 0.315756 0.385339 -0.507602
C26   C     C_3   0.968096 0.314559 0.387286 -0.544519
C27   C     C_R   0.577182 0.505165 0.300273 0.800475
C28   C     C_R   0.810433 0.477569 0.024724 -0.194819
C29   C     C_R   0.621262 0.504898 0.186381 -0.127211
C30   C     C_R   0.241073 0.427493 0.864639 -0.198605
C31   C     C_R   0.203982 0.402519 0.970574 -0.152637
C32   C     C_R   0.305344 0.419942 0.025275 -0.161514
Cu1   Cu    Cu3+1 0.359330 0.500020 0.500010 0.964213
Cu2   Cu    Cu3+1 0.640670 0.499980 0.499990 0.939623
H1    H     H_    0.853003 0.491801 0.171419 0.168407
H2    H     H_    0.738008 0.111035 0.432830 0.156530
H3    H     H_    0.263924 0.110680 0.671354 0.198643
H4    H     H_    0.144150 0.111462 0.582769 0.194908
H5    H     H_    0.262939 0.888540 0.669939 0.196775
H6    H     H_    0.144494 0.890594 0.580281 0.201489
H7    H     H_    0.816145 0.612711 0.633392 0.158038
H8    H     H_    0.075947 0.612526 0.633468 0.145962
H9    H     H_    0.203571 0.307051 0.305936 0.208753
H10   H     H_    0.151598 0.253609 0.443883 0.208917
H11   H     H_    0.951601 0.302545 0.309352 0.202002
H12   H     H_    0.862439 0.417566 0.826581 0.138344
H13   H     H_    0.901676 0.253819 0.448999 0.211128
H14   H     H_    0.924052 0.476574 0.982060 0.134844
H15   H     H_    0.157275 0.423090 0.825029 0.144828
H16   H     H_    0.271602 0.401463 0.107527 0.152870
H17   H     H_    0.096653 0.370234 0.011690 0.136096
H18   H     H_    0.685394 0.389276 0.735368 0.184894
H19   H     H_    0.738245 0.885495 0.434070 0.168408
N1    N     N_R   0.852320 0.499070 0.499340 -0.197552
N2    N     N_R   0.148230 0.499110 0.499340 -0.195502
O1    O     O_R   0.381190 0.680360 0.500000 -0.570077
O2    O     O_R   0.618780 0.680320 0.499990 -0.580839
O3    O     O_R   0.323230 0.500000 0.650990 -0.587444
O4    O     O_R   0.560820 0.499960 0.650980 -0.595118
O5    O     O_R   0.381220 0.319680 0.500010 -0.586972
O6    O     O_R   0.618810 0.319640 0.500000 -0.590160
O7    O     O_R   0.439180 0.500040 0.349020 -0.546135
O8    O     O_R   0.676770 0.500000 0.349010 -0.583255
C33   C     C_2   0.390874 0.599785 0.166917 0.843490
O9    O     O_2   0.279652 0.568597 0.232280 -0.624240
O10   O     O_R   0.399529 0.716790 0.121810 -0.751857
H20   H     H_    0.307593 0.767659 0.150876 0.331382

loop_
_geom_bond_atom_site_label_1
_geom_bond_atom_site_label_2
_ccdc_geom_bond_type
C17   C18   S    
Cu1   N2    S    
Cu2   O2    S    
C2    C4    A    
Cu2   N1    S    
C6    C7    A    
C27   O7    A    
C1    O2    A    
Cu1   O5    S    
C5    C28   A    
C27   C29   S    
C10   C30   A    
C31   C32   A    
C9    C29   A    
C30   C31   A    
C4    C8    A    
C12   O3    A    
C33   O9    D    
C25   H9    S    
Cu1   O1    S    
C2    C3    A    
C18   H4    S    
C22   N2    A    
C3    C10   A    
C22   H8    S    
C13   C14   A    
C24   N2    A    
C23   O5    A    
C11   C13   A    
C32   H16   S    
Cu1   O3    S    
C27   O8    A    
C26   H13   S    
C8    C33   S    
C21   H7    S    
C5    C6    A    
C19   H5    S    
C25   H10   S    
C2    C32   A    
Cu2   O8    S    
C18   H3    S    
C7    H18   S    
Cu1   Cu2   S    
C16   C23   S    
C3    C7    A    
C21   N1    A    
C10   C12   S    
C1    O1    A    
Cu2   O4    S    
C1    C13   S    
C19   H6    S    
C8    C29   A    
C15   C16   A    
C16   C17   A    
C15   H2    S    
C23   O6    A    
C14   H19   S    
O10   H20   S    
C24   C25   S    
C28   H14   S    
C20   N1    A    
C18   C19   S    
C9    H1    S    
C14   C15   A    
C11   C19   S    
C6    H12   S    
C26   H11   S    
C25   C26   S    
C21   C22   A    
C12   O4    A    
Cu1   O7    S    
C30   H15   S    
Cu2   O6    S    
C11   C17   A    
C20   C24   A    
C9    C28   A    
C31   H17   S    
C4    C5    A    
C20   C26   S    
C33   O10   S    
