data_mof_unit_50824.cif
_audit_creation_date              2012-12-10T16:57:10-0500
_audit_creation_method            fapswitch 2.2
_symmetry_space_group_name_H-M    P1
_symmetry_Int_Tables_number       1
_space_group_crystal_system       triclinic
_cell_length_a                    7.763937
_cell_length_b                    8.562244
_cell_length_c                    17.045039
_cell_angle_alpha                 91.73293
_cell_angle_beta                  81.874477
_cell_angle_gamma                 93.855918
_cell_volume                      1118.93704161

loop_
_atom_site_label
_atom_site_type_symbol
_atom_type_description
_atom_site_fract_x
_atom_site_fract_y
_atom_site_fract_z
_atom_type_partial_charge
Br1   Br    Br    0.687461 0.188312 0.271151 -0.350328
Br2   Br    Br    0.312576 0.811692 0.728858 -0.350307
Br3   Br    Br    0.352851 0.846958 0.921382 -0.221482
Br4   Br    Br    0.647177 0.153007 0.078628 -0.221491
C1    C     C_R   0.546246 0.794757 0.497891 0.977380
C2    C     C_R   0.431692 0.591924 0.228241 0.542999
C3    C     C_R   0.592528 0.427095 0.849895 0.577324
C4    C     C_R   0.407440 0.572847 0.150103 0.577323
C5    C     C_R   0.525897 0.555418 0.894158 -0.277652
C6    C     C_R   0.474088 0.444526 0.105845 -0.277658
C7    C     C_R   0.441093 0.669686 0.859428 0.279462
C8    C     C_R   0.558912 0.330277 0.140578 0.279463
C9    C     C_R   0.418225 0.651408 0.779669 0.161148
C10   C     C_R   0.581785 0.348573 0.220335 0.161152
C11   C     C_2   0.532303 0.561451 0.978374 0.034137
C12   C     C_R   0.453754 0.205243 0.502109 0.977384
C13   C     C_2   0.467689 0.438485 0.021628 0.034154
C14   C     C_2   0.570548 0.958357 0.496630 -0.279065
C15   C     C_2   0.429452 0.041642 0.503370 -0.279070
C16   C     C_R   0.480465 0.505163 0.652746 1.040339
C17   C     C_R   0.519534 0.494834 0.347254 1.040332
C18   C     C_R   0.480772 0.518751 0.736758 -0.405278
C19   C     C_R   0.519224 0.481230 0.263243 -0.405274
C20   C     C_R   0.568282 0.408037 0.771756 0.543000
F1    F     F_    0.631621 0.281872 0.729657 -0.579881
F2    F     F_    0.368339 0.718089 0.270336 -0.579878
F3    F     F_    0.319031 0.679804 0.117258 -0.566589
F4    F     F_    0.680919 0.320119 0.882737 -0.566590
H1    H     H_    0.417992 0.331297 0.994468 0.215617
H2    H     H_    0.581998 0.668638 0.005535 0.215605
H3    H     H_    0.703680 0.009695 0.490134 0.188215
H4    H     H_    0.296320 0.990305 0.509866 0.188213
H5    H     H_    0.022695 0.381902 0.440119 0.209940
H6    H     H_    0.977305 0.618098 0.559881 0.209937
N1    N     N_2   0.953500 0.457650 0.478520 -0.154788
N2    N     N_2   0.046500 0.542350 0.521480 -0.154792
O1    O     O_R   0.388470 0.738640 0.505270 -0.603228
O2    O     O_R   0.611530 0.261360 0.494730 -0.603225
O3    O     O_R   0.679650 0.711510 0.491500 -0.635992
O4    O     O_R   0.320350 0.288490 0.508500 -0.635996
O5    O     O_R   0.337210 0.515200 0.623500 -0.587618
O6    O     O_R   0.662790 0.484800 0.376500 -0.587612
O7    O     O_R   0.628380 0.488060 0.609730 -0.601129
O8    O     O_R   0.371620 0.511940 0.390270 -0.601124
Zn1   Zn    Zn3+2 0.305580 0.518120 0.509190 1.036461
Zn2   Zn    Zn3+2 0.694420 0.481880 0.490810 1.036464

loop_
_geom_bond_atom_site_label_1
_geom_bond_atom_site_label_2
_ccdc_geom_bond_type
C10   C19   A    
C11   C13   D    
C14   H3    S    
C1    O1    A    
Br4   C8    S    
C17   O8    A    
C13   H1    S    
O3    Zn2   S    
N1    N2    D    
C1    C14   S    
C1    O3    A    
C16   O5    A    
C5    C11   S    
N2    Zn1   S    
C20   F1    S    
C5    C7    A    
C2    F2    S    
C6    C8    A    
C12   O4    A    
C12   C15   S    
C2    C19   A    
H5    N1    S    
C16   C18   S    
C9    C18   A    
H6    N2    S    
C17   C19   S    
O4    Zn1   S    
O7    Zn2   S    
C18   C20   A    
O2    Zn2   S    
Br3   C7    S    
C15   H4    S    
C6    C13   S    
O1    Zn1   S    
C3    C20   A    
C7    C9    A    
C16   O7    A    
O8    Zn1   S    
C11   H2    S    
C4    C6    A    
C14   C15   D    
O6    Zn2   S    
C12   O2    A    
C3    C5    A    
Br2   C9    S    
O5    Zn1   S    
C4    F3    S    
C2    C4    A    
Br1   C10   S    
N1    Zn2   S    
C3    F4    S    
C17   O6    A    
C8    C10   A    
