data_mof_unit_33020.cif
_audit_creation_date              2012-12-11T14:52:37-0500
_audit_creation_method            fapswitch 2.2
_symmetry_space_group_name_H-M    P1
_symmetry_Int_Tables_number       1
_space_group_crystal_system       triclinic
_cell_length_a                    18.691186
_cell_length_b                    10.956022
_cell_length_c                    18.628389
_cell_angle_alpha                 90.04569
_cell_angle_beta                  91.146024
_cell_angle_gamma                 90.000209
_cell_volume                      3813.97668597

loop_
_atom_site_label
_atom_site_type_symbol
_atom_type_description
_atom_site_fract_x
_atom_site_fract_y
_atom_site_fract_z
_atom_type_partial_charge
C1    C     C_R   0.270442 0.046887 0.852046 0.524815
C2    C     C_R   0.685058 0.568838 0.031150 -0.142492
C3    C     C_3   0.996452 0.329364 0.074125 0.009423
C4    C     C_R   0.809003 0.048393 0.967543 -0.152065
C5    C     C_R   0.184041 0.071477 0.030706 -0.142076
C6    C     C_R   0.308505 0.543222 0.043282 -0.189200
C7    C     C_R   0.693962 0.540027 0.959077 -0.178030
C8    C     C_R   0.806189 0.038099 0.041904 -0.195848
C9    C     C_R   0.193033 0.042403 0.958641 -0.174927
C10   C     C_R   0.253146 0.599830 0.080683 0.004849
C11   C     C_R   0.745643 0.601352 0.918934 0.009814
C12   C     C_R   0.751730 0.096658 0.079476 0.001720
C13   C     C_R   0.729632 0.047235 0.148341 0.518830
C14   C     C_R   0.245192 0.102761 0.918623 0.010074
C15   C     C_R   0.208316 0.684554 0.044579 0.248905
C16   C     C_R   0.783316 0.700730 0.950179 0.262592
C17   C     C_R   0.706391 0.180184 0.043096 0.248140
C18   C     C_R   0.282554 0.202756 0.949729 0.259874
C19   C     C_R   0.208041 0.687414 0.970602 -0.034661
C20   C     C_R   0.777781 0.721944 0.023096 -0.020555
C21   C     C_R   0.705507 0.181404 0.969160 -0.029446
C22   C     C_R   0.276583 0.224867 0.022627 -0.033007
C23   C     C_R   0.258321 0.620427 0.931799 -0.029379
C24   C     C_R   0.770522 0.546610 0.852089 0.524268
C25   C     C_R   0.729685 0.656068 0.064231 -0.020722
C26   C     C_R   0.756192 0.115027 0.930431 -0.029543
C27   C     C_R   0.228784 0.158482 0.063910 -0.026245
C28   C     C_R   0.499916 0.720100 0.536538 -0.143311
C29   C     C_R   0.499755 0.720177 0.463291 -0.143247
C30   C     C_R   0.999864 0.220096 0.536520 -0.143406
C31   C     C_R   0.999704 0.220181 0.463273 -0.142705
C32   C     C_R   0.504681 0.830368 0.425803 0.026781
C33   C     C_R   0.495305 0.830246 0.574203 0.026538
C34   C     C_R   0.004657 0.330373 0.425792 0.028773
C35   C     C_R   0.229884 0.547807 0.148636 0.526757
C36   C     C_R   0.995280 0.330240 0.574191 0.026579
C37   C     C_R   0.503194 0.941824 0.462938 -0.117363
C38   C     C_R   0.497102 0.941769 0.537253 -0.117810
C39   C     C_R   0.003185 0.441827 0.462932 -0.116900
C40   C     C_R   0.997093 0.441767 0.537246 -0.118083
C41   C     C_R   0.443022 0.817858 0.862843 0.561617
C42   C     C_R   0.556924 0.817698 0.137161 0.545857
C43   C     C_R   0.937874 0.317237 0.862099 0.568532
C44   C     C_R   0.026496 0.321912 0.146534 0.564740
C45   C     C_R   0.219638 0.731835 0.518056 0.356619
C46   C     C_3   0.528180 0.731504 0.963723 -0.176983
C47   C     C_R   0.780480 0.731634 0.482007 0.356511
C48   C     C_R   0.719638 0.231833 0.518054 0.356658
C49   C     C_R   0.280481 0.231634 0.482006 0.356573
C50   C     C_R   0.211581 0.702337 0.446552 -0.085515
C51   C     C_R   0.788536 0.702104 0.553480 -0.086451
C52   C     C_R   0.711584 0.202342 0.446550 -0.085784
C53   C     C_R   0.288539 0.202100 0.553478 -0.086426
C54   C     C_R   0.256550 0.615085 0.415875 -0.032211
C55   C     C_R   0.743496 0.614974 0.584113 -0.033026
C56   C     C_R   0.756552 0.115088 0.415872 -0.033099
C57   C     C_3   0.482601 0.719889 0.031470 -0.174302
C58   C     C_R   0.243497 0.114973 0.584112 -0.032917
C59   C     C_R   0.317991 0.576315 0.453243 -0.119627
C60   C     C_R   0.682004 0.576382 0.546731 -0.119548
C61   C     C_R   0.817990 0.076310 0.453242 -0.120322
C62   C     C_R   0.182001 0.076391 0.546731 -0.119547
C63   C     C_R   0.326673 0.606546 0.525375 -0.176504
C64   C     C_R   0.673313 0.606669 0.474625 -0.176344
C65   C     C_R   0.826668 0.106532 0.525375 -0.176470
C66   C     C_R   0.173307 0.106686 0.474627 -0.175949
C67   C     C_R   0.274521 0.677587 0.559229 0.022563
C68   C     C_3   0.009192 0.232129 0.974310 -0.173849
C69   C     C_R   0.725529 0.677551 0.440801 0.021843
C70   C     C_R   0.774518 0.177579 0.559229 0.022639
C71   C     C_R   0.225527 0.177558 0.440801 0.022411
C72   C     C_R   0.262850 0.644355 0.855043 0.553334
C73   C     C_R   0.725378 0.684873 0.140573 0.540348
C74   C     C_R   0.762000 0.141657 0.854164 0.551153
C75   C     C_R   0.225089 0.185804 0.140634 0.557255
C76   C     C_R   0.269347 0.051196 0.648002 0.545128
C77   C     C_R   0.730663 0.051258 0.351978 0.547065
C78   C     C_R   0.769346 0.551198 0.648004 0.545044
C79   C     C_3   0.956761 0.223148 0.037126 -0.184253
C80   C     C_R   0.230662 0.551254 0.351981 0.547342
C81   C     C_R   0.470412 0.823520 0.647102 0.546054
C82   C     C_R   0.529589 0.823572 0.352903 0.550425
C83   C     C_R   0.970404 0.323519 0.647096 0.546512
C84   C     C_R   0.029586 0.323573 0.352902 0.540168
C85   C     C_R   0.275738 0.693439 0.636847 0.594744
C86   C     C_R   0.724280 0.693443 0.363186 0.595847
C87   C     C_R   0.775737 0.193437 0.636846 0.595037
C88   C     C_R   0.224280 0.193443 0.363186 0.594812
C89   C     C_3   0.472703 0.918678 0.035950 0.445124
C90   C     C_R   0.311392 0.554114 0.968898 -0.151845
C91   C     C_3   0.517306 0.930093 0.968323 0.441159
C92   C     C_3   0.946663 0.422204 0.038091 0.424469
C93   C     C_3   0.998178 0.430946 0.975380 0.443578
C94   C     C_3   0.428258 0.814612 0.001697 -0.173897
C95   C     C_3   0.572099 0.836937 0.998150 -0.179470
C96   C     C_3   0.905811 0.316945 0.000179 -0.177392
C97   C     C_3   0.049124 0.338680 0.011765 -0.143754
C98   C     C_3   0.473974 0.825787 0.934525 0.003876
C99   C     C_3   0.526337 0.825043 0.065289 0.004663
C100  C     C_3   0.958727 0.325446 0.938017 -0.006186
Cr1   Cr    Cr6+3 0.229630 0.835900 0.747350 1.063896
Cr2   Cr    Cr6+3 0.614200 0.677120 0.250660 1.024397
Cr3   Cr    Cr6+3 0.885800 0.177120 0.749340 1.024069
Cr4   Cr    Cr6+3 0.114200 0.177120 0.250660 1.025529
Cr5   Cr    Cr6+3 0.770370 0.835900 0.252650 1.066544
Cr6   Cr    Cr6+3 0.729630 0.335900 0.747350 1.062887
Cr7   Cr    Cr6+3 0.270370 0.335900 0.252650 1.073163
Cr8   Cr    Cr6+3 0.387410 0.989850 0.750850 1.082245
Cr9   Cr    Cr6+3 0.612590 0.989850 0.249150 1.080314
Cr10  Cr    Cr6+3 0.887410 0.489850 0.750850 1.081564
Cr11  Cr    Cr6+3 0.112590 0.489850 0.249150 1.071707
Cr12  Cr    Cr6+3 0.385800 0.677120 0.749340 1.025124
F1    F     F_    0.169587 0.804141 0.548002 -0.648529
F2    F     F_    0.830569 0.803860 0.452120 -0.648709
F3    F     F_    0.669587 0.304138 0.548001 -0.648429
F4    F     F_    0.330572 0.303857 0.452119 -0.648559
F5    F     F_    0.445106 0.015545 0.074141 -0.567101
F6    F     F_    0.534131 0.038679 0.934856 -0.574796
F7    F     F_    0.915325 0.520069 0.072232 -0.582606
F8    F     F_    0.019294 0.538326 0.943094 -0.567964
H1    H     H_    0.369031 0.807064 0.001895 0.127117
H2    H     H_    0.643745 0.516486 0.571520 0.207930
H3    H     H_    0.856182 0.016258 0.428424 0.207766
H4    H     H_    0.143741 0.016498 0.571522 0.207931
H5    H     H_    0.371369 0.567978 0.555385 0.157547
H6    H     H_    0.628538 0.568297 0.444606 0.157482
H7    H     H_    0.871358 0.067951 0.555388 0.157552
H8    H     H_    0.128525 0.068328 0.444610 0.157611
H9    H     H_    0.550743 0.653931 0.933207 0.165036
H10   H     H_    0.468533 0.632517 0.057841 0.164707
H11   H     H_    0.035205 0.153462 0.947761 0.164079
H12   H     H_    0.631166 0.847532 0.997962 0.115932
H13   H     H_    0.941242 0.137705 0.064533 0.155760
H14   H     H_    0.354322 0.510102 0.940566 0.194975
H15   H     H_    0.645726 0.519197 0.061458 0.184317
H16   H     H_    0.852177 0.004926 0.939329 0.197565
H17   H     H_    0.144708 0.021802 0.060994 0.186849
H18   H     H_    0.347258 0.486053 0.071074 0.146803
H19   H     H_    0.663100 0.465680 0.935957 0.151590
H20   H     H_    0.845096 0.981534 0.069857 0.144904
H21   H     H_    0.162047 0.968230 0.935519 0.151423
H22   H     H_    0.169984 0.747458 0.943911 0.179506
H23   H     H_    0.846776 0.310489 0.994262 0.127101
H24   H     H_    0.811376 0.790510 0.047843 0.159541
H25   H     H_    0.667239 0.241134 0.942511 0.186230
H26   H     H_    0.309706 0.294332 0.047264 0.157058
H27   H     H_    0.499017 0.632219 0.563138 0.141787
H28   H     H_    0.500423 0.632336 0.436549 0.141980
H29   H     H_    0.998951 0.132212 0.563115 0.141771
H30   H     H_    0.000358 0.132344 0.436526 0.141892
H31   H     H_    0.508089 0.027938 0.434939 0.155919
H32   H     H_    0.492465 0.027865 0.565400 0.155367
H33   H     H_    0.008100 0.527941 0.434937 0.155796
H34   H     H_    0.108115 0.348670 0.017469 0.122834
H35   H     H_    0.992475 0.527862 0.565397 0.155238
H36   H     H_    0.183573 0.780865 0.127306 0.337800
H37   H     H_    0.808190 0.783020 0.862652 0.330765
H38   H     H_    0.682768 0.279333 0.125015 0.338076
H39   H     H_    0.307950 0.283506 0.861827 0.332790
H40   H     H_    0.165597 0.738913 0.417482 0.165037
H41   H     H_    0.834558 0.738595 0.582562 0.164636
H42   H     H_    0.665602 0.238922 0.417478 0.165191
H43   H     H_    0.334563 0.238586 0.582558 0.164684
H44   H     H_    0.356184 0.516264 0.428425 0.208050
O1    O     O_R   0.214270 0.709000 0.827470 -0.508040
O2    O     O_R   0.543270 0.717630 0.330160 -0.532261
O3    O     O_R   0.956730 0.217630 0.669840 -0.532828
O4    O     O_R   0.043270 0.217630 0.330160 -0.537215
O5    O     O_R   0.320620 0.625640 0.672920 -0.516935
O6    O     O_R   0.679380 0.625640 0.327080 -0.511826
O7    O     O_R   0.820620 0.125640 0.672920 -0.517347
O8    O     O_R   0.179380 0.125640 0.327080 -0.512276
O9    O     O_3   0.334280 0.834290 0.749180 -0.311975
O10   O     O_3   0.665720 0.834290 0.250820 -0.330922
O11   O     O_3   0.834280 0.334290 0.749180 -0.316207
O12   O     O_R   0.785730 0.709000 0.172530 -0.462524
O13   O     O_3   0.165720 0.334290 0.250820 -0.313903
O14   O     O_R   0.236160 0.958490 0.823130 -0.524567
O15   O     O_R   0.763840 0.958490 0.176870 -0.539859
O16   O     O_R   0.736160 0.458490 0.823130 -0.525819
O17   O     O_R   0.263840 0.458490 0.176870 -0.536848
O18   O     O_R   0.332080 0.075470 0.831280 -0.473836
O19   O     O_R   0.667920 0.075470 0.168720 -0.477659
O20   O     O_R   0.832080 0.575470 0.831280 -0.471840
O21   O     O_R   0.167920 0.575470 0.168720 -0.473546
O22   O     O_R   0.446300 0.918110 0.826620 -0.432445
O23   O     O_R   0.714270 0.209000 0.827470 -0.507084
O24   O     O_R   0.553700 0.918110 0.173380 -0.427671
O25   O     O_R   0.946300 0.418110 0.826620 -0.430492
O26   O     O_R   0.053700 0.418110 0.173380 -0.458166
O27   O     O_R   0.457110 0.716200 0.831760 -0.518597
O28   O     O_R   0.542890 0.716200 0.168240 -0.520908
O29   O     O_R   0.957110 0.216200 0.831760 -0.515529
O30   O     O_R   0.042890 0.216200 0.168240 -0.530398
O31   O     O_R   0.320980 0.624310 0.823030 -0.506545
O32   O     O_R   0.679020 0.624310 0.176970 -0.500886
O33   O     O_R   0.820980 0.124310 0.823030 -0.510386
O34   O     O_R   0.285730 0.209000 0.172530 -0.472224
O35   O     O_R   0.179020 0.124310 0.176970 -0.489923
O36   O     O_R   0.213890 0.710430 0.665540 -0.429694
O37   O     O_R   0.786110 0.710430 0.334460 -0.424778
O38   O     O_R   0.713890 0.210430 0.665540 -0.429353
O39   O     O_R   0.286110 0.210430 0.334460 -0.425145
O40   O     O_R   0.235810 0.959820 0.673020 -0.484411
O41   O     O_R   0.764190 0.959820 0.326980 -0.485537
O42   O     O_R   0.735810 0.459820 0.673020 -0.484143
O43   O     O_R   0.264190 0.459820 0.326980 -0.486318
O44   O     O_R   0.331700 0.076900 0.669350 -0.531500
O45   O     O_R   0.445950 0.919440 0.676520 -0.495575
O46   O     O_R   0.668300 0.076900 0.330650 -0.529225
O47   O     O_R   0.831700 0.576900 0.669350 -0.531628
O48   O     O_R   0.168300 0.576900 0.330650 -0.529377
O49   O     O_3   0.162339 0.762159 0.079354 -0.667984
O50   O     O_3   0.828232 0.775222 0.912113 -0.672740
O51   O     O_3   0.660817 0.258815 0.077628 -0.664506
O52   O     O_3   0.327404 0.277260 0.911575 -0.674225
O53   O     O_R   0.554050 0.919440 0.323480 -0.492074
O54   O     O_R   0.945950 0.419440 0.676520 -0.496213
O55   O     O_R   0.054050 0.419440 0.323480 -0.497443
O56   O     O_R   0.456730 0.717630 0.669840 -0.533062

loop_
_geom_bond_atom_site_label_1
_geom_bond_atom_site_label_2
_ccdc_geom_bond_type
C58   C62   A    
C47   F2    S    
C81   O45   A    
C21   C26   A    
Cr2   O6    S    
C88   O8    A    
C53   C58   A    
C24   O20   A    
C72   O1    A    
C20   H24   S    
Cr1   O9    S    
C2    C7    A    
C15   O49   S    
C3    C79   S    
C46   H9    S    
C78   O42   A    
Cr8   O45   S    
Cr1   O36   S    
C58   C76   S    
Cr10  O11   S    
Cr3   O3    S    
H37   O50   S    
C50   C54   A    
C34   C84   S    
Cr7   O17   S    
C65   H7    S    
Cr8   O22   S    
C28   C29   A    
C92   F7    S    
C37   H31   S    
Cr6   O23   S    
C15   C19   A    
C29   C32   A    
C10   C15   A    
C30   C31   A    
C90   H14   S    
C95   C99   S    
Cr4   O4    S    
C20   C25   A    
C94   C98   S    
C36   C83   S    
C65   C70   A    
C57   C99   S    
C11   C24   S    
C92   C96   S    
C76   O44   A    
C96   H23   S    
Cr3   O33   S    
C38   H32   S    
C89   C94   S    
C45   F1    S    
C14   C18   A    
C68   C97   S    
C47   C69   A    
C59   H44   S    
C44   O26   A    
C5    C27   A    
Cr8   O18   S    
Cr4   O13   S    
C17   O51   S    
C46   C95   S    
C22   H26   S    
C13   O19   A    
Cr5   O12   S    
C12   C17   A    
Cr8   O44   S    
Cr2   O28   S    
Cr6   O11   S    
C40   H35   S    
C10   C35   S    
Cr1   O14   S    
C93   F8    S    
C8    C12   A    
C89   C91   S    
C87   O38   A    
Cr7   O43   S    
C4    C8    A    
C4    H16   S    
Cr9   O19   S    
C68   C79   S    
Cr12  O9    S    
C46   C98   S    
Cr10  O20   S    
C88   O39   A    
C86   O6    A    
C55   C60   A    
Cr7   O13   S    
Cr3   O7    S    
Cr11  O55   S    
Cr5   O15   S    
C27   C75   S    
C70   C87   S    
Cr6   O16   S    
C60   C64   A    
C25   C73   S    
C54   C80   S    
C54   C59   A    
Cr9   O24   S    
C4    C26   A    
C79   H13   S    
C63   C67   A    
C3    C44   S    
Cr11  O21   S    
C67   C85   S    
C62   C66   A    
Cr11  O48   S    
C34   C39   A    
C57   H10   S    
C36   C40   A    
C43   C100  S    
C39   C40   A    
C31   H30   S    
C41   O27   A    
Cr9   O10   S    
C53   H43   S    
C30   H29   S    
C47   C51   A    
C50   H40   S    
H38   O51   S    
C6    C90   A    
C81   O56   A    
C83   O3    A    
C85   O5    A    
C56   C77   S    
C3    C92   S    
C21   H25   S    
C6    H18   S    
C68   H11   S    
C7    C11   A    
C9    C14   A    
C68   C100  S    
Cr12  O31   S    
Cr7   O39   S    
C37   C38   A    
C84   O4    A    
C84   O55   A    
C77   O41   A    
Cr6   O38   S    
C1    O14   A    
C3    C97   S    
C85   O36   A    
Cr5   O37   S    
Cr12  O5    S    
C93   C100  S    
C74   O33   A    
C16   C20   A    
C87   O7    A    
Cr8   O9    S    
C49   F4    S    
Cr3   O11   S    
Cr12  O56   S    
C91   F6    S    
C56   C61   A    
C32   C37   A    
C16   O50   S    
C60   H2    S    
C86   O37   A    
Cr2   O2    S    
C63   H5    S    
C66   C71   A    
C48   F3    S    
C77   O46   A    
C7    H19   S    
C39   H33   S    
C28   C33   A    
C89   F5    S    
C19   H22   S    
C64   H6    S    
C22   C27   A    
C46   C57   S    
C95   H12   S    
Cr4   O35   S    
C75   O35   A    
C35   O17   A    
Cr9   O46   S    
Cr5   O10   S    
C93   C97   S    
Cr4   O8    S    
C31   C34   A    
C19   C23   A    
C74   O23   A    
C82   O2    A    
C75   O34   A    
C42   O24   A    
C83   O54   A    
C28   H27   S    
C9    H21   S    
H39   O52   S    
C18   C22   A    
C44   O30   A    
C23   C72   S    
C18   O52   S    
C62   H4    S    
C2    H15   S    
C72   O31   A    
C48   C70   A    
C89   C99   S    
Cr1   O40   S    
Cr2   O32   S    
C97   H34   S    
Cr6   O42   S    
Cr7   O34   S    
C61   C65   A    
C1    O18   A    
C76   O40   A    
C5    H17   S    
C45   C67   A    
C1    C14   S    
Cr5   O41   S    
C30   C36   A    
Cr2   O10   S    
C64   C69   A    
C43   O29   A    
Cr10  O25   S    
C59   C63   A    
C33   C38   A    
C61   H3    S    
C8    H20   S    
C29   H28   S    
Cr10  O47   S    
C79   C96   S    
C13   O15   A    
C35   O21   A    
Cr1   O1    S    
C32   C82   S    
C23   C90   A    
C82   O53   A    
C45   C50   A    
C73   O12   A    
C49   C53   A    
C24   O16   A    
C96   C100  S    
C92   C93   S    
C57   C94   S    
C66   H8    S    
C41   O22   A    
C51   H41   S    
C2    C25   A    
C51   C55   A    
C91   C98   S    
C80   O48   A    
Cr10  O54   S    
C17   C21   A    
C11   C16   A    
Cr9   O53   S    
C6    C10   A    
C55   C78   S    
C91   C95   S    
C71   C88   S    
C94   H1    S    
C42   O28   A    
C48   C52   A    
C80   O43   A    
C12   C13   S    
C43   O25   A    
Cr11  O26   S    
C26   C74   S    
C49   C71   A    
C73   O32   A    
H36   O49   S    
Cr11  O13   S    
Cr4   O30   S    
C41   C98   S    
C5    C9    A    
Cr3   O29   S    
C42   C99   S    
C33   C81   S    
C78   O47   A    
C69   C86   S    
C52   C56   A    
C52   H42   S    
Cr12  O27   S    
