data_mof_unit_31145.cif
_audit_creation_date              2012-12-11T14:29:27-0500
_audit_creation_method            fapswitch 2.2
_symmetry_space_group_name_H-M    P1
_symmetry_Int_Tables_number       1
_space_group_crystal_system       triclinic
_cell_length_a                    6.955221
_cell_length_b                    14.768576
_cell_length_c                    16.148519
_cell_angle_alpha                 90.325107
_cell_angle_beta                  89.450042
_cell_angle_gamma                 90.248403
_cell_volume                      1658.63672438

loop_
_atom_site_label
_atom_site_type_symbol
_atom_type_description
_atom_site_fract_x
_atom_site_fract_y
_atom_site_fract_z
_atom_type_partial_charge
O1    O     O_R   0.494400 0.416610 0.413880 -0.543944
O2    O     O_R   0.823920 0.406790 0.585520 -0.539225
O3    O     O_R   0.994250 0.583390 0.586120 -0.535788
C1    C     C_R   0.653320 0.385747 0.613978 0.739371
O4    O     O_R   0.824110 0.405730 0.414490 -0.545119
O5    O     O_R   0.994440 0.582310 0.413870 -0.536957
C2    C     C_R   0.654788 0.380646 0.389365 0.695570
O6    O     O_R   0.494210 0.417690 0.586130 -0.541054
O7    O     O_3   0.660810 0.557940 0.500000 -0.366939
V1    V     V_3+5 0.935650 0.489250 0.500000 1.404841
O8    O     O_R   0.324160 0.593210 0.414480 -0.544551
C3    C     C_R   0.156130 0.614547 0.385971 0.736567
O9    O     O_R   0.323970 0.594270 0.585510 -0.536258
C4    C     C_R   0.154902 0.614521 0.615139 0.698321
V2    V     V_3+5 0.435660 0.510750 0.500000 1.409072
O10   O     O_3   0.160630 0.442060 0.500000 -0.375323
H1    H     H_    0.110916 0.905999 0.485503 0.125674
C5    C     C_R   0.149874 0.567091 0.788072 -0.184668
C6    C     C_R   0.146545 0.540787 0.870783 -0.124769
C7    C     C_R   0.134944 0.605808 0.934200 0.126427
C8    C     C_R   0.126893 0.697448 0.912652 -0.174517
C9    C     C_R   0.129540 0.726243 0.828903 0.063045
C10   C     C_R   0.141276 0.659388 0.765625 0.062261
C11   C     C_R   0.120834 0.819994 0.808574 -0.167953
C12   C     C_R   0.122841 0.847676 0.722691 0.017717
C13   C     C_R   0.131557 0.777850 0.660185 0.060980
C14   C     C_R   0.143293 0.685056 0.681546 -0.164308
C15   C     C_R   0.115926 0.941155 0.694837 0.064954
C16   C     C_R   0.109003 0.958679 0.608919 -0.099560
C17   C     C_R   0.115053 0.890051 0.550861 -0.168080
C18   C     C_R   0.127821 0.801311 0.575593 -0.128881
H2    H     H_    0.158825 0.513877 0.741836 0.104029
H3    H     H_    0.153028 0.469219 0.884073 0.105659
H4    H     H_    0.118285 0.745897 0.963052 0.101387
H5    H     H_    0.099632 0.026162 0.584176 0.104511
H6    H     H_    0.133273 0.751041 0.526690 0.102349
C19   C     C_2   0.986576 0.706503 0.281388 -0.129023
C20   C     C_2   0.151284 0.682001 0.318699 -0.316898
H7    H     H_    0.851663 0.676346 0.301792 0.137100
H8    H     H_    0.288008 0.711322 0.300442 0.127708
C21   C     C_2   0.972758 0.774241 0.213571 -0.144714
C22   C     C_2   0.125214 0.813392 0.176181 -0.321137
H9    H     H_    0.828958 0.791902 0.193801 0.135686
H10   H     H_    0.270030 0.795883 0.193875 0.131659
C23   C     C_2   0.698135 0.258665 0.821121 -0.140346
C24   C     C_2   0.624971 0.174570 0.812978 -0.309818
H11   H     H_    0.750163 0.280282 0.881344 0.114090
H12   H     H_    0.577369 0.149431 0.753355 0.128345
C25   C     C_2   0.729280 0.322028 0.750651 -0.124538
C26   C     C_2   0.632387 0.316952 0.679258 -0.304995
H13   H     H_    0.829736 0.377648 0.759960 0.119379
H14   H     H_    0.516867 0.267981 0.672258 0.130200
C27   C     C_2   0.770346 0.212216 0.212644 -0.149100
C28   C     C_2   0.612937 0.189367 0.169709 -0.311651
H15   H     H_    0.906077 0.178571 0.199985 0.138627
H16   H     H_    0.482264 0.228489 0.177585 0.130756
C29   C     C_2   0.770344 0.288642 0.272585 -0.161542
C30   C     C_2   0.640758 0.299906 0.335041 -0.054688
H17   H     H_    0.886432 0.337540 0.265612 0.117656
O11   O     O_R   0.770210 0.079270 0.910680 -0.543986
O12   O     O_R   0.440150 0.091160 0.082270 -0.544938
O13   O     O_R   0.269970 0.914530 0.082860 -0.539513
C31   C     C_R   0.608611 0.114903 0.108728 0.744748
O14   O     O_R   0.440480 0.090100 0.911240 -0.544728
O15   O     O_R   0.270310 0.913460 0.910610 -0.537949
C32   C     C_R   0.610781 0.112054 0.883566 0.728544
O16   O     O_R   0.769870 0.080340 0.082930 -0.537950
O17   O     O_3   0.603660 0.938980 0.996790 -0.366920
V3    V     V_3+5 0.328750 0.007610 0.996740 1.390954
O18   O     O_R   0.940600 0.902510 0.911180 -0.539037
C33   C     C_R   0.109346 0.885852 0.878844 0.682243
O19   O     O_R   0.940270 0.903570 0.082200 -0.539358
C34   C     C_R   0.108954 0.881544 0.110042 0.742982
V4    V     V_3+5 0.828770 0.986010 0.996670 1.401775
O20   O     O_3   0.103730 0.054750 0.996710 -0.374324
C35   C     C_3   0.491208 0.228452 0.358833 -0.328907
C36   C     C_3   0.585696 0.143641 0.394689 -0.292262
C37   C     C_3   0.434823 0.075895 0.425245 -0.796379
H18   H     H_    0.344985 0.106616 0.475154 0.220949
H19   H     H_    0.340996 0.054221 0.373423 0.228554
H20   H     H_    0.507244 0.015259 0.450451 0.225117
H21   H     H_    0.676835 0.109957 0.346963 0.208450
H22   H     H_    0.678672 0.163362 0.447519 0.182028
H23   H     H_    0.392420 0.256169 0.407115 0.171916
H24   H     H_    0.397685 0.210269 0.306305 0.172510
C38   C     C_3   0.130395 0.582491 0.025747 -0.363561
C39   C     C_3   0.140257 0.481079 0.046026 -0.313637
C40   C     C_3   0.134936 0.465732 0.139491 -0.760085
H25   H     H_    0.258674 0.500164 0.169433 0.226824
H26   H     H_    0.998867 0.492203 0.166682 0.226356
H27   H     H_    0.143498 0.392070 0.152335 0.208416
H28   H     H_    0.015912 0.445039 0.018043 0.191338
H29   H     H_    0.275981 0.452115 0.020646 0.193227
H30   H     H_    0.253436 0.617443 0.055926 0.176380
H31   H     H_    0.995790 0.610479 0.053234 0.179683
C41   C     C_3   0.119514 0.022477 0.753879 -0.367706
C42   C     C_3   0.116311 0.117542 0.714800 -0.350195
C43   C     C_3   0.127836 0.192066 0.780335 -0.713179
H32   H     H_    0.027261 0.178685 0.832178 0.247804
H33   H     H_    0.271497 0.196259 0.807057 0.230676
H34   H     H_    0.097571 0.258554 0.751864 0.212943
H35   H     H_    0.240570 0.126213 0.671689 0.185064
H36   H     H_    0.979832 0.126413 0.680492 0.204681
H37   H     H_    0.990970 0.018276 0.794556 0.190166
H38   H     H_    0.253189 0.018598 0.790279 0.192690

loop_
_geom_bond_atom_site_label_1
_geom_bond_atom_site_label_2
_ccdc_geom_bond_type
C41   H38   S    
C21   C22   D    
C6    C7    A    
C1    O6    A    
C35   H23   S    
C42   C43   S    
C30   C35   S    
C36   C37   S    
C12   C15   A    
C13   C14   A    
C16   C17   A    
C15   C16   A    
C24   C32   S    
O5    C3    A    
C17   C18   A    
C37   H19   S    
C29   H17   S    
C28   C31   S    
C36   H22   S    
O17   V4    S    
V2    O10   S    
C5    C6    A    
O12   C31   A    
C38   H30   S    
O9    C4    A    
O8    V2    S    
O17   V3    S    
C25   H13   S    
C7    C38   S    
O18   V4    S    
C26   H14   S    
O13   C34   A    
O18   C33   A    
O1    V2    S    
C10   C14   A    
C4    C14   S    
O7    V1    S    
C2    C30   S    
C42   H35   S    
C23   H11   S    
O11   C32   A    
C13   C18   A    
C8    C9    A    
C3    C20   S    
H1    C17   S    
C21   H9    S    
C22   H10   S    
C28   H16   S    
C27   H15   S    
C31   O16   A    
V4    O20   S    
C5    C10   A    
C11   C12   A    
O19   V4    S    
C6    H3    S    
O4    C2    A    
C27   C29   S    
C38   C39   S    
C8    H4    S    
C12   C13   A    
C23   C24   D    
O13   V3    S    
C1    C26   S    
O14   C32   A    
O2    C1    A    
C19   C20   D    
C40   H27   S    
C23   C25   S    
C41   C42   S    
C7    C8    A    
O16   V4    S    
O14   V3    S    
C35   C36   S    
C42   H36   S    
O3    C4    A    
C40   H26   S    
C43   H32   S    
O6    V2    S    
C43   H33   S    
O9    V2    S    
C9    C11   A    
C5    H2    S    
O2    V1    S    
O12   V3    S    
C22   C34   S    
O1    C2    A    
C9    C10   A    
O19   C34   A    
O5    V1    S    
O8    C3    A    
C27   C28   D    
C43   H34   S    
C16   H5    S    
C15   C41   S    
C41   H37   S    
O7    V2    S    
O4    V1    S    
C19   H7    S    
O3    V1    S    
O15   C33   A    
C20   H8    S    
C37   H18   S    
C37   H20   S    
C29   C30   D    
C36   H21   S    
O15   V3    S    
C39   H29   S    
O11   V4    S    
V3    O20   S    
C19   C21   S    
C38   H31   S    
C24   H12   S    
C40   H25   S    
C39   C40   S    
C25   C26   D    
C18   H6    S    
V1    O10   S    
C39   H28   S    
C35   H24   S    
C11   C33   S    
