data_mof_unit_33393.cif
_audit_creation_date              2012-12-11T18:09:19-0500
_audit_creation_method            fapswitch 2.2
_symmetry_space_group_name_H-M    P1
_symmetry_Int_Tables_number       1
_space_group_crystal_system       triclinic
_cell_length_a                    8.350679
_cell_length_b                    12.723937
_cell_length_c                    18.980623
_cell_angle_alpha                 99.744599
_cell_angle_beta                  91.57304
_cell_angle_gamma                 98.243207
_cell_volume                      1964.35719659

loop_
_atom_site_label
_atom_site_type_symbol
_atom_type_description
_atom_site_fract_x
_atom_site_fract_y
_atom_site_fract_z
_atom_type_partial_charge
Ba1   Ba    Ba6+2 0.853180 0.547790 0.465300 1.624332
Ba2   Ba    Ba6+2 0.336650 0.452300 0.534710 1.632779
C1    C     C_3   0.684986 0.916341 0.269102 -0.420325
C2    C     C_R   0.021057 0.542830 0.726846 0.054849
C3    C     C_R   0.854066 0.404990 0.807475 -0.170580
C4    C     C_3   0.164845 0.796916 0.269782 0.400397
C5    C     C_R   0.785430 0.420311 0.742803 0.001293
C6    C     C_R   0.342540 0.577063 0.185624 -0.151874
C7    C     C_R   0.403695 0.572375 0.253839 0.016534
C8    C     C_R   0.132690 0.431608 0.197248 -0.165321
C9    C     C_R   0.167063 0.454613 0.272381 0.065789
C10   C     C_R   0.985515 0.479472 0.843043 0.003365
C11   C     C_R   0.876297 0.480163 0.699853 -0.238031
C12   C     C_3   0.660314 0.816326 0.302462 0.361593
C13   C     C_R   0.212452 0.499654 0.151751 0.002665
C14   C     C_R   0.307215 0.522615 0.299540 -0.231249
C15   C     C_R   0.763633 0.418384 0.960028 -0.078989
C16   C     C_3   0.042048 0.713548 0.221762 -0.272076
C17   C     C_R   0.662307 0.382910 0.010710 -0.085912
C18   C     C_R   0.713073 0.409414 0.081936 -0.078441
C19   C     C_R   0.869583 0.460574 0.100672 -0.077916
C20   C     C_R   0.987958 0.468001 0.049639 0.016461
C21   C     C_R   0.931952 0.454070 0.975743 0.036059
C22   C     C_R   0.155679 0.495123 0.072374 -0.016928
C23   C     C_3   0.550422 0.245846 0.302634 0.326758
C24   C     C_R   0.265597 0.517716 0.018147 0.035072
C25   C     C_R   0.209616 0.504987 0.944429 0.010507
C26   C     C_R   0.042001 0.478090 0.921658 -0.018237
C27   C     C_R   0.433838 0.552015 0.033988 -0.080473
C28   C     C_3   0.237637 0.788289 0.619659 0.282552
C29   C     C_R   0.535173 0.589946 0.984192 -0.086036
C30   C     C_R   0.483849 0.567583 0.913016 -0.067767
C31   C     C_R   0.327649 0.514798 0.893503 -0.069437
C32   C     C_R   0.756443 0.183428 0.530755 -0.272205
C33   C     C_R   0.430601 0.808103 0.471716 -0.286017
C34   C     C_3   0.670927 0.201431 0.248046 -0.161918
C35   C     C_R   0.402367 0.983900 0.447127 -0.097754
C36   C     C_R   0.339846 0.875674 0.443154 -0.016700
C37   C     C_R   0.577839 0.849257 0.510214 0.056576
C38   C     C_R   0.640248 0.961298 0.518006 -0.062918
C39   C     C_R   0.550956 0.028820 0.484965 -0.057319
C40   C     C_3   0.245521 0.910025 0.633936 -0.346340
C41   C     C_R   0.611372 0.139960 0.491519 0.055276
C42   C     C_R   0.850244 0.117671 0.559481 -0.018169
C43   C     C_R   0.790048 0.007856 0.555675 -0.088058
C44   C     C_3   0.966950 0.217716 0.390515 0.287531
C45   C     C_3   0.043145 0.213008 0.729457 0.348524
C46   C     C_3   0.972166 0.097086 0.382168 -0.358919
C47   C     C_3   0.728820 0.705624 0.679887 0.331716
C48   C     C_3   0.729488 0.735017 0.761452 -0.215114
C49   C     C_3   0.857912 0.831470 0.791334 -0.408425
C50   C     C_3   0.404421 0.282531 0.268889 -0.144862
C51   C     C_3   0.270948 0.192703 0.233013 -0.350323
C52   C     C_3   0.606079 0.112021 0.184217 -0.219782
C53   C     C_3   0.580781 0.154813 0.114576 -0.433555
C54   C     C_3   0.259268 0.874468 0.226197 -0.196803
C55   C     C_3   0.153850 0.922226 0.176424 -0.421819
C56   C     C_3   0.074164 0.180024 0.801458 -0.372477
C57   C     C_3   0.521961 0.182332 0.714261 0.347319
C58   C     C_3   0.550242 0.108312 0.766966 -0.417310
C59   C     C_R   0.062721 0.554474 0.801016 -0.150832
H1    H     H_    0.743893 0.828387 0.350664 0.093229
H2    H     H_    0.849684 0.688201 0.663749 0.002313
H3    H     H_    0.637727 0.632263 0.663224 0.063024
H4    H     H_    0.656643 0.986588 0.307188 0.092307
H5    H     H_    0.753571 0.664741 0.785496 0.058656
H6    H     H_    0.608064 0.753761 0.777208 0.124681
H7    H     H_    0.532736 0.804249 0.318322 -0.075430
H8    H     H_    0.605570 0.903131 0.220087 0.109635
H9    H     H_    0.619866 0.320275 0.334009 0.068294
H10   H     H_    0.742979 0.270069 0.227718 0.102243
H11   H     H_    0.755708 0.164738 0.278654 0.113608
H12   H     H_    0.319424 0.944791 0.683839 0.112447
H13   H     H_    0.810935 0.930917 0.252809 0.130260
H14   H     H_    0.096636 0.678853 0.172740 0.040919
H15   H     H_    0.097551 0.298865 0.732588 0.060186
H16   H     H_    0.909981 0.203183 0.718527 -0.059455
H17   H     H_    0.206221 0.191638 0.815216 0.148591
H18   H     H_    0.016039 0.229950 0.844094 0.068991
H19   H     H_    0.023386 0.093871 0.799362 0.108609
H20   H     H_    0.636646 0.198133 0.686682 -0.071362
H21   H     H_    0.428173 0.139571 0.672721 0.091661
H22   H     H_    0.643452 0.150338 0.809075 0.111601
H23   H     H_    0.300446 0.945486 0.589363 0.079687
H24   H     H_    0.593585 0.034860 0.738475 0.086409
H25   H     H_    0.254830 0.752626 0.291300 -0.057090
H26   H     H_    0.435953 0.084118 0.792522 0.124815
H27   H     H_    0.159781 0.617703 0.823887 0.067631
H28   H     H_    0.801004 0.335935 0.829306 0.059851
H29   H     H_    0.397552 0.642584 0.160814 0.069711
H30   H     H_    0.038054 0.365705 0.175969 0.056218
H31   H     H_    0.829547 0.482263 0.646444 0.058447
H32   H     H_    0.348728 0.529337 0.354880 0.068048
H33   H     H_    0.700459 0.424188 0.911627 0.079570
H34   H     H_    0.121740 0.930850 0.639923 0.143585
H35   H     H_    0.536799 0.349631 0.995866 0.080072
H36   H     H_    0.627641 0.397818 0.122698 0.091288
H37   H     H_    0.896859 0.495338 0.155537 0.126081
H38   H     H_    0.495738 0.544105 0.082249 0.080281
H39   H     H_    0.660603 0.622961 0.999437 0.079206
H40   H     H_    0.569485 0.584257 0.873266 0.096277
H41   H     H_    0.298338 0.481168 0.838375 0.131474
H42   H     H_    0.330777 0.032301 0.422010 0.106746
H43   H     H_    0.863568 0.960134 0.580734 0.106816
H44   H     H_    0.803601 0.267991 0.533916 0.056806
H45   H     H_    0.842586 0.234024 0.400852 -0.034694
H46   H     H_    0.380935 0.723836 0.467827 0.065408
H47   H     H_    0.993981 0.649008 0.251358 0.138777
H48   H     H_    0.943243 0.752332 0.202992 0.158524
H49   H     H_    0.360588 0.768130 0.610576 0.011027
H50   H     H_    0.156378 0.755504 0.571267 0.072217
H51   H     H_    0.980618 0.812881 0.778282 0.145745
H52   H     H_    0.835955 0.903734 0.769036 0.152963
H53   H     H_    0.852901 0.849950 0.850458 0.112173
H54   H     H_    0.161486 0.227035 0.220714 0.118582
H55   H     H_    0.239416 0.132163 0.268083 0.167957
H56   H     H_    0.048929 0.258125 0.437234 0.104040
H57   H     H_    0.302669 0.154159 0.180249 0.101505
H58   H     H_    0.350643 0.328327 0.314514 0.058769
H59   H     H_    0.444615 0.337368 0.230887 0.046864
H60   H     H_    0.506819 0.220963 0.121820 0.131199
H61   H     H_    0.699831 0.185643 0.095261 0.137374
H62   H     H_    0.518804 0.088163 0.072930 0.126470
H63   H     H_    0.699241 0.057896 0.173125 0.111373
H64   H     H_    0.496444 0.060979 0.197482 0.137109
H65   H     H_    0.085014 0.858939 0.135012 0.122874
H66   H     H_    0.069214 0.969121 0.207320 0.139957
H67   H     H_    0.966096 0.060323 0.325008 0.128070
H68   H     H_    0.232442 0.975109 0.146850 0.115715
H69   H     H_    0.333404 0.941009 0.263813 0.108754
H70   H     H_    0.342466 0.830000 0.192525 0.070622
H71   H     H_    0.870482 0.056256 0.408505 0.074182
H72   H     H_    0.087350 0.082830 0.405977 0.142724
O1    O     O_2   0.875110 0.423180 0.326290 -0.480823
O2    O     O_2   0.179783 0.121303 0.543579 -0.480374
O3    O     O_3   0.114827 0.147152 0.676504 -0.599066
O4    O     O_3   0.123410 0.433040 0.414950 -0.487647
O5    O     O_3   0.577950 0.634370 0.536140 -0.492993
O6    O     O_2   0.341900 0.231310 0.465740 -0.458110
O7    O     O_3   0.497817 0.171405 0.347783 -0.664183
O8    O     O_2   0.485697 0.485314 0.752502 -0.509808
O9    O     O_3   0.466798 0.275458 0.750934 -0.590043
O10   O     O_3   0.661010 0.625070 0.369680 -0.471662
O11   O     O_2   0.714784 0.524515 0.243455 -0.515208
O12   O     O_3   0.689315 0.791870 0.649161 -0.646510
O13   O     O_3   0.012314 0.251835 0.326395 -0.657509
O14   O     O_3   0.695147 0.730331 0.251603 -0.610674
O15   O     O_2   0.847800 0.768730 0.534310 -0.468721
O16   O     O_3   0.082250 0.684470 0.405440 -0.478400
O17   O     O_2   0.012193 0.878802 0.457412 -0.480167
O18   O     O_3   0.083145 0.855183 0.323871 -0.604796
O19   O     O_2   0.314600 0.576860 0.673750 -0.453813
O20   O     O_3   0.066300 0.567050 0.585060 -0.497563
O21   O     O_3   0.528700 0.375020 0.630330 -0.455573
O22   O     O_3   0.179545 0.748864 0.680013 -0.641931
O23   O     O_3   0.611760 0.365720 0.463870 -0.486369
O24   O     O_3   0.107460 0.315620 0.594570 -0.481519
P1    P     P_3+3 0.042930 0.392230 0.337410 0.955155
P2    P     P_3+3 0.672230 0.754900 0.555730 0.960710
P3    P     P_3+3 0.130798 0.823652 0.407897 0.944217
P4    P     P_3+3 0.146790 0.607860 0.662600 0.973417
P5    P     P_3+3 0.060427 0.175767 0.592996 0.941662
P6    P     P_3+3 0.617548 0.611252 0.279109 0.926328
P7    P     P_3+3 0.519902 0.228618 0.440346 0.923792
P8    P     P_3+3 0.567781 0.388342 0.721090 0.944233

loop_
_geom_bond_atom_site_label_1
_geom_bond_atom_site_label_2
_ccdc_geom_bond_type
C53   H60   S    
C49   H51   S    
C47   H2    S    
C45   O3    S    
C17   C18   A    
C16   H48   S    
O3    P5    S    
O7    P7    S    
C25   C31   A    
C14   H32   S    
C49   H52   S    
O17   P3    D    
O4    P1    S    
C28   H49   S    
Ba2   O6    S    
C23   H9    S    
C55   H68   S    
O6    P7    D    
C43   H43   S    
C7    C14   A    
C22   C24   A    
C45   H15   S    
C8    C13   A    
O12   P2    S    
C58   H22   S    
C12   H1    S    
C54   H69   S    
C19   H37   S    
C54   C55   S    
Ba1   Ba2   S    
C2    C11   A    
C7    P6    S    
C1    H13   S    
Ba1   O5    S    
O5    P2    S    
C18   H36   S    
C57   O9    S    
C6    C7    A    
C57   H21   S    
O21   P8    S    
Ba1   O16   S    
C48   H6    S    
O19   P4    D    
C34   H10   S    
C56   H19   S    
C41   P7    S    
C1    H8    S    
C5    P8    S    
C53   H61   S    
C57   C58   S    
Ba2   O21   S    
C47   H3    S    
C19   C20   A    
C39   C41   A    
C1    H4    S    
C42   P5    S    
C28   O22   S    
Ba2   P4    S    
O10   P6    S    
C58   H26   S    
C53   H62   S    
Ba2   O19   S    
C38   C43   A    
C4    C16   S    
C52   H64   S    
C44   C46   S    
C49   H53   S    
C27   H38   S    
C47   O12   S    
C31   H41   S    
Ba2   O5    S    
C46   H72   S    
Ba1   P2    S    
C33   C36   A    
C32   C42   A    
C3    C10   A    
C37   C38   A    
C3    C5    A    
C51   H57   S    
C29   H39   S    
C2    C59   A    
O22   P4    S    
C40   H34   S    
C44   H56   S    
O20   P4    S    
O15   P2    D    
Ba1   O23   S    
C33   C37   A    
C35   C36   A    
Ba1   O10   S    
C59   H27   S    
C46   H67   S    
C9    C14   A    
C29   C30   A    
C23   O7    S    
C48   C49   S    
C24   C25   A    
C40   H23   S    
C15   C21   A    
C21   C26   A    
C16   H14   S    
C48   H5    S    
C1    C12   S    
C56   H18   S    
C4    O18   S    
C50   H59   S    
C13   C22   S    
O1    P1    D    
C10   C26   S    
C8    H30   S    
C6    C13   A    
O11   P6    D    
O2    P5    D    
C20   C22   A    
C6    H29   S    
C45   H16   S    
Ba1   O1    S    
C55   H65   S    
Ba1   O4    S    
C42   C43   A    
C35   H42   S    
C52   H63   S    
C52   C53   S    
C38   C39   A    
C40   H12   S    
Ba2   O23   S    
C37   P2    S    
C30   H40   S    
C32   H44   S    
C12   O14   S    
C46   H71   S    
C32   C41   A    
C57   H20   S    
C4    C54   S    
C55   H66   S    
C58   H24   S    
C51   H55   S    
O13   P1    S    
Ba2   O20   S    
O8    P8    D    
C4    H25   S    
C28   H50   S    
O18   P3    S    
C23   C50   S    
C36   P3    S    
C11   H31   S    
O14   P6    S    
C30   C31   A    
O9    P8    S    
C10   C59   A    
Ba1   P1    S    
C44   O13   S    
Ba2   O24   S    
C44   H45   S    
C15   C17   A    
C2    P4    S    
C35   C39   A    
O16   P3    S    
C16   H47   S    
Ba1   O20   S    
C54   H70   S    
C33   H46   S    
C8    C9    A    
C56   H17   S    
C23   C34   S    
C50   H58   S    
C51   H54   S    
C5    C11   A    
C18   C19   A    
O23   P7    S    
C24   C27   A    
C27   C29   A    
C47   C48   S    
C25   C26   A    
C12   H7    S    
C20   C21   A    
C28   C40   S    
Ba1   O15   S    
C15   H33   S    
C34   C52   S    
Ba2   O4    S    
O24   P5    S    
C3    H28   S    
C17   H35   S    
C34   H11   S    
C9    P1    S    
C50   C51   S    
C45   C56   S    
