data_mof_unit_52704.cif
_audit_creation_date              2012-10-26T19:59:15-0400
_audit_creation_method            fapswitch 2.2
_symmetry_space_group_name_H-M    P1
_symmetry_Int_Tables_number       1
_space_group_crystal_system       triclinic
_cell_length_a                    7.423139
_cell_length_b                    8.691165
_cell_length_c                    15.737231
_cell_angle_alpha                 94.166664
_cell_angle_beta                  74.45811
_cell_angle_gamma                 103.278782
_cell_volume                      951.954939403

loop_
_atom_site_label
_atom_site_type_symbol
_atom_type_description
_atom_site_fract_x
_atom_site_fract_y
_atom_site_fract_z
_atom_type_partial_charge
Br1   Br    Br    0.414035 0.251739 0.218283 -0.474279
Br2   Br    Br    0.585974 0.748251 0.781719 -0.474279
Br3   Br    Br    0.045516 0.743281 0.265546 -0.442094
Br4   Br    Br    0.954473 0.256730 0.734455 -0.442101
C1    C     C_R   0.545166 0.800228 0.502626 0.564775
C2    C     C_R   0.617834 0.513290 0.333268 0.594999
C3    C     C_R   0.307138 0.466963 0.763002 0.026138
C4    C     C_R   0.692863 0.533034 0.236998 0.026138
C5    C     C_R   0.076377 0.336629 0.891300 -0.103227
C6    C     C_R   0.923623 0.663364 0.108699 -0.103225
C7    C     C_R   0.130216 0.364138 0.800895 0.119235
C8    C     C_R   0.869781 0.635861 0.199104 0.119238
C9    C     C_R   0.425163 0.541581 0.817506 0.102933
C10   C     C_R   0.574841 0.458410 0.182494 0.102930
C11   C     C_R   0.389444 0.486577 0.904274 0.041141
C12   C     C_R   0.454834 0.199772 0.497374 0.564775
C13   C     C_R   0.610561 0.513409 0.095724 0.041140
C14   C     C_R   0.204597 0.395326 0.942906 -0.014608
C15   C     C_R   0.795406 0.604661 0.057092 -0.014608
C16   C     C_R   0.528461 0.519210 0.954384 0.056850
C17   C     C_R   0.471544 0.480772 0.045614 0.056848
C18   C     C_R   0.275757 0.419715 0.084692 -0.074842
C19   C     C_R   0.724248 0.580264 0.915306 -0.074841
C20   C     C_R   0.147368 0.368088 0.033364 -0.119001
C21   C     C_R   0.852637 0.631893 0.966634 -0.119002
C22   C     C_2   0.570550 0.968162 0.503953 -0.111570
C23   C     C_2   0.429450 0.031838 0.496047 -0.111570
C24   C     C_R   0.382166 0.486710 0.666732 0.594998
Cu1   Cu    Cu3+1 0.322120 0.483240 0.490330 1.076394
Cu2   Cu    Cu3+1 0.677880 0.516760 0.509670 1.076395
H1    H     H_    0.000864 0.310895 0.065073 0.145486
H2    H     H_    0.996694 0.385416 0.430760 0.256526
H3    H     H_    0.999142 0.689085 0.934925 0.145485
H4    H     H_    0.936399 0.264078 0.920768 0.168974
H5    H     H_    0.063600 0.735917 0.079231 0.168974
H6    H     H_    0.218719 0.411687 0.155243 0.187617
H7    H     H_    0.781286 0.588289 0.844754 0.187621
H8    H     H_    0.706431 0.039721 0.511457 0.158520
H9    H     H_    0.293569 0.960279 0.488542 0.158520
H10   H     H_    0.003306 0.614584 0.569240 0.256528
N1    N     N_2   0.945180 0.542040 0.524240 -0.232428
N2    N     N_2   0.054820 0.457960 0.475760 -0.232429
O1    O     O_R   0.384450 0.714270 0.493720 -0.515998
O2    O     O_R   0.615550 0.285730 0.506280 -0.515997
O3    O     O_R   0.684880 0.742590 0.510050 -0.469838
O4    O     O_R   0.315120 0.257410 0.489950 -0.469838
O5    O     O_R   0.265540 0.477900 0.617090 -0.478533
O6    O     O_R   0.734460 0.522100 0.382910 -0.478534
O7    O     O_R   0.565970 0.506210 0.633420 -0.463168
O8    O     O_R   0.434030 0.493790 0.366580 -0.463170

loop_
_geom_bond_atom_site_label_1
_geom_bond_atom_site_label_2
_ccdc_geom_bond_type
C11   C14   A    
C4    C10   A    
C24   O5    A    
Cu1   Cu2   S    
Br1   C10   S    
Cu1   N2    S    
C18   H6    S    
N1    N2    D    
C12   O2    A    
Cu2   O3    S    
C16   C19   A    
Cu1   O4    S    
C4    C8    A    
C12   C23   S    
C9    C11   A    
C1    O1    A    
C20   H1    S    
Cu2   N1    S    
C17   C18   A    
Cu1   O1    S    
Br4   C7    S    
C3    C7    A    
C5    C7    A    
C10   C13   A    
Cu2   O2    S    
C22   C23   D    
C6    H5    S    
C2    O6    A    
Cu1   O5    S    
C14   C20   A    
C6    C8    A    
Cu2   O6    S    
H10   N1    S    
C13   C15   A    
Cu2   O7    S    
Cu1   O8    S    
C19   C21   A    
C5    H4    S    
C15   C21   A    
C18   C20   A    
C21   H3    S    
C1    C22   S    
C5    C14   A    
C3    C9    A    
C16   C17   A    
C24   O7    A    
C6    C15   A    
C12   O4    A    
Br2   C9    S    
H2    N2    S    
C22   H8    S    
C2    C4    S    
Br3   C8    S    
C19   H7    S    
C1    O3    A    
C2    O8    A    
C3    C24   S    
C23   H9    S    
C11   C16   A    
C13   C17   A    
