data_mof_unit_68060.cif
_audit_creation_date              2013-03-05T15:43:53-0500
_audit_creation_method            fapswitch 2.2
_symmetry_space_group_name_H-M    P1
_symmetry_Int_Tables_number       1
_space_group_crystal_system       triclinic
_cell_length_a                    7.42363
_cell_length_b                    14.031752
_cell_length_c                    16.722904
_cell_angle_alpha                 90.000283
_cell_angle_beta                  95.303763
_cell_angle_gamma                 89.999725
_cell_volume                      1734.50896036

loop_
_atom_site_label
_atom_site_type_symbol
_atom_site_description
_atom_site_fract_x
_atom_site_fract_y
_atom_site_fract_z
_atom_type_partial_charge
O1    O     O_R   0.525340 0.338340 0.164530 -0.607754
O2    O     O_R   0.474660 0.661660 0.835470 -0.607769
O3    O     O_R   0.974660 0.838340 0.835470 -0.607770
O4    O     O_R   0.025340 0.161660 0.164530 -0.607745
O5    O     O_R   0.253520 0.352000 0.336710 -0.496012
O6    O     O_R   0.746480 0.648000 0.663290 -0.496006
O7    O     O_R   0.246480 0.852000 0.663290 -0.495970
O8    O     O_R   0.753520 0.148000 0.336710 -0.495993
O9    O     O_R   0.083330 0.168380 0.337300 -0.510925
O10   O     O_R   0.916670 0.831620 0.662700 -0.510916
O11   O     O_R   0.416670 0.668380 0.662700 -0.510896
O12   O     O_R   0.583330 0.331620 0.337300 -0.510906
C1    C     C_R   0.430668 0.364719 0.366213 0.851523
C2    C     C_R   0.569331 0.635278 0.633788 0.851552
C3    C     C_R   0.069330 0.864720 0.633787 0.851668
C4    C     C_R   0.930668 0.135281 0.366214 0.851641
O13   O     O_R   0.195840 0.349670 0.165140 -0.486901
O14   O     O_R   0.804160 0.650330 0.834860 -0.486878
O15   O     O_R   0.304160 0.849670 0.834860 -0.486880
O16   O     O_R   0.695840 0.150330 0.165140 -0.486842
C5    C     C_R   0.361153 0.369865 0.139447 0.751593
C6    C     C_R   0.638848 0.630137 0.860554 0.751530
C7    C     C_R   0.138846 0.869866 0.860553 0.751515
C8    C     C_R   0.861152 0.130138 0.139445 0.751488
O17   O     O_3   0.387830 0.193120 0.250910 -0.253219
O18   O     O_3   0.612170 0.806880 0.749090 -0.253238
O19   O     O_3   0.112170 0.693120 0.749090 -0.253218
O20   O     O_3   0.887830 0.306880 0.250910 -0.253243
V1    V     V_3+5 0.113010 0.264540 0.250910 1.355118
V2    V     V_3+5 0.886990 0.735460 0.749090 1.355130
V3    V     V_3+5 0.386990 0.764540 0.749090 1.355129
V4    V     V_3+5 0.613010 0.235460 0.250910 1.355155
C9    C     C_R   0.993732 0.200299 0.540666 0.310713
C10   C     C_R   0.006258 0.799703 0.459329 0.310689
C11   C     C_R   0.506251 0.700294 0.459340 0.310675
C12   C     C_R   0.493738 0.299703 0.540660 0.310690
C13   C     C_R   0.004007 0.227762 0.622637 0.233178
C14   C     C_R   0.995992 0.772242 0.377357 0.233176
C15   C     C_R   0.495980 0.727762 0.377370 0.233208
C16   C     C_R   0.504023 0.272235 0.622629 0.233205
C17   C     C_R   0.015945 0.157938 0.683072 -0.078889
C18   C     C_R   0.984044 0.842068 0.316924 -0.078869
C19   C     C_R   0.484048 0.657940 0.316932 -0.078900
C20   C     C_R   0.515968 0.342056 0.683068 -0.078877
C21   C     C_R   0.027462 0.062260 0.661608 -0.029778
C22   C     C_R   0.972524 0.937743 0.338389 -0.029802
C23   C     C_R   0.472532 0.562262 0.338392 -0.029771
C24   C     C_R   0.527481 0.437734 0.661609 -0.029763
C25   C     C_R   0.018261 0.031498 0.580794 0.021589
C26   C     C_R   0.981731 0.968504 0.419204 0.021595
C27   C     C_R   0.481727 0.531497 0.419206 0.021646
C28   C     C_R   0.518273 0.468500 0.580795 0.021635
C29   C     C_R   0.992119 0.100769 0.517918 0.010346
C30   C     C_R   0.007874 0.899232 0.482080 0.010343
C31   C     C_R   0.507864 0.600766 0.482084 0.010285
C32   C     C_R   0.492130 0.399231 0.517916 0.010286
C33   C     C_R   0.033111 0.932142 0.563956 -0.004934
C34   C     C_R   0.966884 0.067859 0.436042 -0.004917
C35   C     C_R   0.466884 0.432142 0.436042 -0.004940
C36   C     C_R   0.533113 0.567856 0.563959 -0.004963
H1    H     H_    0.038315 0.011083 0.710131 0.077893
H2    H     H_    0.961664 0.988920 0.289865 0.077873
H3    H     H_    0.461683 0.511086 0.289868 0.077891
H4    H     H_    0.538337 0.488909 0.710135 0.077878
C37   C     C_2   0.139849 0.940272 0.924932 0.187101
C38   C     C_2   0.860135 0.059743 0.075060 0.187070
C39   C     C_2   0.360144 0.440268 0.075066 0.187016
C40   C     C_2   0.639864 0.559743 0.924940 0.187046
C41   C     C_2   0.996464 0.961087 0.968503 -0.154121
C42   C     C_2   0.003489 0.038963 0.031460 -0.154093
C43   C     C_2   0.503529 0.461082 0.031494 -0.154188
C44   C     C_2   0.496493 0.538944 0.968525 -0.154167
C45   C     C_2   0.993892 0.818214 0.230470 1.035818
O21   O     O_2   0.929877 0.872753 0.178421 -0.571360
O22   O     O_R   0.083099 0.736089 0.208054 -0.668358
H5    H     H_    0.081924 0.729288 0.147638 0.370208
C46   C     C_2   0.006079 0.181792 0.769525 1.035896
O23   O     O_2   0.069991 0.127226 0.821574 -0.571361
O24   O     O_R   0.916957 0.263946 0.791938 -0.668352
H6    H     H_    0.918055 0.270727 0.852350 0.370253
C47   C     C_2   0.506120 0.318192 0.769519 1.035785
O25   O     O_2   0.570132 0.372725 0.821573 -0.571346
O26   O     O_R   0.416916 0.236063 0.791925 -0.668389
H7    H     H_    0.418126 0.229243 0.852341 0.370172
C48   C     C_2   0.493909 0.681801 0.230481 1.035860
O27   O     O_2   0.429943 0.627254 0.178428 -0.571351
O28   O     O_R   0.583075 0.763941 0.208072 -0.668376
H8    H     H_    0.581922 0.770742 0.147659 0.370214
N1    N     N_R   0.990357 0.275639 0.482482 0.098277
O29   O     O_R   0.118197 0.338973 0.488444 -0.320787
O30   O     O_R   0.836418 0.301465 0.446571 -0.332043
N2    N     N_R   0.009611 0.724361 0.517512 0.098275
O31   O     O_R   0.881797 0.661012 0.511527 -0.320787
O32   O     O_R   0.163532 0.698561 0.553461 -0.332039
N3    N     N_R   0.509667 0.775628 0.517530 0.098253
O33   O     O_R   0.381791 0.838940 0.511601 -0.320813
O34   O     O_R   0.663643 0.801489 0.553378 -0.332064
N4    N     N_R   0.490309 0.224368 0.482470 0.098255
O35   O     O_R   0.618206 0.161068 0.488387 -0.320828
O36   O     O_R   0.336318 0.198483 0.446652 -0.332065
N5    N     N_R   0.004840 0.327445 0.643884 0.120210
O37   O     O_R   0.893256 0.386741 0.605734 -0.304403
O38   O     O_R   0.124041 0.360701 0.698611 -0.340409
N6    N     N_R   0.995178 0.672560 0.356107 0.120201
O39   O     O_R   0.106758 0.613266 0.394263 -0.304420
O40   O     O_R   0.876001 0.639302 0.301371 -0.340419
N7    N     N_R   0.495145 0.827447 0.356127 0.120191
O41   O     O_R   0.606724 0.886743 0.394280 -0.304362
O42   O     O_R   0.375962 0.860702 0.301392 -0.340470
N8    N     N_R   0.504868 0.172550 0.643872 0.120198
O43   O     O_R   0.393256 0.113257 0.605734 -0.304359
O44   O     O_R   0.624060 0.139295 0.698602 -0.340521
C49   C     C_2   0.168109 0.098747 0.042645 0.985672
O45   O     O_2   0.287195 0.078338 0.095258 -0.477723
O46   O     O_R   0.183023 0.179684 0.995011 -0.707837
H9    H     H_    0.299683 0.215902 0.009345 0.326912
C50   C     C_2   0.831775 0.901359 0.957270 0.985759
O47   O     O_2   0.712759 0.921831 0.904641 -0.477682
O48   O     O_R   0.816727 0.820397 0.004865 -0.707799
H10   H     H_    0.700046 0.784210 0.990485 0.326928
C51   C     C_2   0.331804 0.598674 0.957289 0.985797
O49   O     O_2   0.212776 0.578192 0.904667 -0.477693
O50   O     O_R   0.316777 0.679655 0.004868 -0.707797
H11   H     H_    0.200094 0.715843 0.990485 0.326892
C52   C     C_2   0.668247 0.401376 0.042750 0.985828
O51   O     O_2   0.787235 0.421876 0.095385 -0.477684
O52   O     O_R   0.683346 0.320398 0.995173 -0.707769
H12   H     H_    0.800035 0.284222 0.009576 0.326919
N9    N     N_R   0.685639 0.024527 0.053926 0.121017
O53   O     O_R   0.617919 0.968843 0.105832 -0.227160
O54   O     O_R   0.580436 0.085092 0.013996 -0.284567
N10   N     N_R   0.314335 0.975501 0.946064 0.121025
O55   O     O_R   0.419575 0.914937 0.985976 -0.284642
O56   O     O_R   0.382011 0.031206 0.894161 -0.227213
N11   N     N_R   0.814360 0.524524 0.946072 0.121010
O57   O     O_R   0.882054 0.468820 0.894173 -0.227121
O58   O     O_R   0.919584 0.585092 0.985988 -0.284637
N12   N     N_R   0.185655 0.475496 0.053938 0.121010
O59   O     O_R   0.080405 0.414929 0.014035 -0.284692
O60   O     O_R   0.117991 0.531213 0.105838 -0.227149

loop_
_geom_bond_atom_site_label_1
_geom_bond_atom_site_label_2
_geom_bond_distance
_ccdc_geom_bond_type
C13   N5    1.443025 S    
O28   H8    1.014034 S    
C25   C29   1.431892 A    
O1    C5    1.327677 A    
N5    O37   1.299142 A    
C44   C51   1.479863 S    
O13   V1    2.006326 S    
C45   O21   1.221732 D    
O3    C7    1.327677 A    
N3    O33   1.297234 A    
O15   V3    2.006313 S    
N6    O40   1.299485 A    
C47   O25   1.221735 D    
O50   H11   1.013655 S    
C48   O27   1.221729 D    
C15   N7    1.443029 S    
C26   C30   1.431897 A    
C22   H2    1.080989 S    
O20   V1    1.774083 S    
O9    C4    1.354687 A    
C14   C18   1.404501 A    
O10   C3    1.354686 A    
C50   O48   1.397513 S    
C23   H3    1.080991 S    
C11   C15   1.419175 A    
O4    C8    1.327679 A    
O11   C2    1.354684 A    
C37   C41   1.375731 D    
C24   H4    1.080991 S    
O46   H9    1.013600 S    
C25   C33   1.428566 A    
C18   C22   1.394320 A    
C21   H1    1.080987 S    
C39   N12   1.400889 S    
N8    O43   1.299154 A    
C14   N6    1.443027 S    
C28   C36   1.428552 A    
O16   C8    1.366911 A    
N10   O55   1.296785 A    
O2    C6    1.327678 A    
N7    O41   1.299142 A    
O14   V2    2.006325 S    
C21   C25   1.414335 A    
N1    O30   1.292692 A    
C16   C20   1.404508 A    
O5    C1    1.372867 A    
O4    V1    2.102464 S    
C8    C38   1.460657 S    
C38   N9    1.400895 S    
O17   V4    1.774089 S    
O7    C3    1.372881 A    
O11   V3    2.003771 S    
O18   V3    1.774089 S    
N5    O38   1.299483 A    
C10   C14   1.419182 A    
C31   C36   1.440696 A    
C5    C39   1.460680 S    
O19   V2    1.774083 S    
N7    O42   1.299483 A    
N6    O39   1.299145 A    
C47   O26   1.397455 S    
O5    V1    2.091922 S    
C48   O28   1.397454 S    
C42   C49   1.479835 S    
C9    C29   1.447214 A    
O7    V3    2.091925 S    
C11   C31   1.447182 A    
C26   C34   1.428556 A    
N11   O57   1.302824 A    
C20   C47   1.492347 S    
C23   C27   1.414340 A    
C27   C31   1.431887 A    
C46   O23   1.221734 D    
O1    V4    2.102470 S    
C9    C13   1.419173 A    
O2    V3    2.102468 S    
O8    V4    2.091924 S    
O3    V2    2.102462 S    
O15   C7    1.366928 A    
O22   H5    1.014059 S    
C12   C32   1.447181 A    
C9    N1    1.435434 S    
O6    C2    1.372871 A    
O10   V2    2.003782 S    
O26   H7    1.014057 S    
C12   C16   1.419167 A    
C40   C44   1.375736 D    
N2    O32   1.292720 A    
C46   O24   1.397458 S    
C4    C34   1.507606 S    
O48   H10   1.013633 S    
C6    C40   1.460667 S    
C51   O49   1.222292 D    
N12   O60   1.302835 A    
N10   O56   1.302830 A    
O6    V2    2.091921 S    
C10   C30   1.447217 A    
C19   C48   1.492352 S    
N4    O36   1.292653 A    
C52   O51   1.222306 D    
C27   C35   1.428550 A    
C45   O22   1.397458 S    
O52   H12   1.013656 S    
C37   N10   1.400883 S    
C49   O45   1.222240 D    
O16   V4    2.006315 S    
N11   O58   1.296783 A    
C18   C45   1.492350 S    
O14   C6    1.366916 A    
C40   N11   1.400893 S    
C16   N8    1.443026 S    
C29   C34   1.440699 A    
N3    O34   1.292659 A    
C1    C35   1.507606 S    
O9    V1    2.003781 S    
C2    C36   1.507610 S    
C22   C26   1.414338 A    
C32   C35   1.440691 A    
C7    C37   1.460691 S    
N9    O53   1.302823 A    
C43   C44   1.514948 S    
C50   O47   1.222278 D    
C17   C46   1.492356 S    
C38   C42   1.375722 D    
C3    C33   1.507623 S    
C41   C50   1.479851 S    
N2    O31   1.297274 A    
C39   C43   1.375740 D    
C13   C17   1.404507 A    
C41   C42   1.514944 S    
N8    O44   1.299481 A    
C51   O50   1.397541 S    
N12   O59   1.296787 A    
O24   H6    1.014016 S    
C28   C32   1.431892 A    
C24   C28   1.414342 A    
O12   C1    1.354686 A    
C15   C19   1.404513 A    
O8    C4    1.372870 A    
N4    O35   1.297235 A    
C52   O52   1.397549 S    
C17   C21   1.394334 A    
C43   C52   1.479865 S    
C12   N4    1.435410 S    
N9    O54   1.296780 A    
N1    O29   1.297259 A    
C19   C23   1.394335 A    
C30   C33   1.440714 A    
O12   V4    2.003770 S    
C20   C24   1.394332 A    
C11   N3    1.435403 S    
C49   O46   1.397466 S    
C10   N2    1.435433 S    
O13   C5    1.366924 A    
