data_mof_unit_50504.cif
_audit_creation_date              2012-12-10T20:45:27-0500
_audit_creation_method            fapswitch 2.2
_symmetry_space_group_name_H-M    P1
_symmetry_Int_Tables_number       1
_space_group_crystal_system       triclinic
_cell_length_a                    10.767935
_cell_length_b                    10.740722
_cell_length_c                    9.869679
_cell_angle_alpha                 89.243111
_cell_angle_beta                  91.056169
_cell_angle_gamma                 89.867035
_cell_volume                      1141.18437025

loop_
_atom_site_label
_atom_site_type_symbol
_atom_type_description
_atom_site_fract_x
_atom_site_fract_y
_atom_site_fract_z
_atom_type_partial_charge
C1    C     C_R   0.500467 0.260099 0.500622 0.888747
C2    C     C_R   0.172177 0.718285 0.010457 -0.105218
C3    C     C_R   0.929839 0.548809 0.391489 -0.198988
C4    C     C_R   0.872296 0.499218 0.505430 -0.078787
C5    C     C_R   0.942388 0.452194 0.616942 0.019602
C6    C     C_R   0.069675 0.455333 0.609562 -0.232567
C7    C     C_R   0.127459 0.505580 0.495854 -0.075579
C8    C     C_R   0.057235 0.552741 0.384398 0.014191
C9    C     C_R   0.848799 0.478469 0.844570 -0.079481
C10   C     C_R   0.818041 0.430211 0.971736 -0.230672
C11   C     C_R   0.829404 0.302961 0.999213 -0.171498
C12   C     C_R   0.260054 0.503834 0.498296 0.869600
C13   C     C_R   0.873008 0.223350 0.899851 0.350944
C14   C     C_R   0.902733 0.270903 0.771656 -0.236888
C15   C     C_R   0.890165 0.398938 0.742924 0.062460
C16   C     C_R   0.487742 0.062269 0.622632 0.051650
C17   C     C_R   0.492631 0.128240 0.500628 -0.103819
C18   C     C_R   0.485778 0.065556 0.377069 -0.100295
C19   C     C_R   0.484225 0.937475 0.376581 -0.139987
C20   C     C_R   0.492045 0.871707 0.499321 -0.091465
C21   C     C_R   0.489323 0.934824 0.621934 0.037793
C22   C     C_3   0.576184 0.927349 0.742270 0.136044
C23   C     C_R   0.499566 0.739837 0.499496 0.933829
C24   C     C_3   0.573458 0.068560 0.743221 -0.435721
C25   C     C_R   0.460415 0.397826 0.071855 0.086340
C26   C     C_R   0.556821 0.592481 0.069967 0.267215
C27   C     C_R   0.554511 0.592998 0.926592 -0.159981
C28   C     C_R   0.459436 0.398363 0.929426 0.125091
C29   C     C_3   0.333530 0.341612 0.922064 -0.527320
C30   C     C_3   0.335655 0.339320 0.075976 0.478559
C31   C     C_R   0.739903 0.497653 0.501871 0.906503
C32   C     C_R   0.195249 0.779917 0.132113 0.333226
C33   C     C_R   0.165555 0.723220 0.256204 -0.149611
C34   C     C_R   0.108763 0.605644 0.257934 0.094011
C35   C     C_R   0.081941 0.546766 0.134571 -0.183238
C36   C     C_R   0.115641 0.601783 0.011753 -0.211789
H1    H     H_    0.195191 0.761980 0.914711 0.168498
H2    H     H_    0.807814 0.266945 0.098974 0.174826
H3    H     H_    0.939915 0.209256 0.696389 0.180311
H4    H     H_    0.488227 0.114449 0.280840 0.243589
H5    H     H_    0.483230 0.890658 0.280361 0.226889
H6    H     H_    0.532150 0.884375 0.832419 0.152856
H7    H     H_    0.526672 0.106672 0.833219 0.204180
H8    H     H_    0.663529 0.113430 0.719271 0.231008
H9    H     H_    0.599183 0.667127 0.871121 0.198900
H10   H     H_    0.263053 0.406481 0.878020 0.160831
H11   H     H_    0.334859 0.247588 0.876388 0.240115
H12   H     H_    0.265563 0.397825 0.124478 0.101874
H13   H     H_    0.181252 0.772705 0.349869 0.144749
H14   H     H_    0.035560 0.457459 0.134036 0.164553
H15   H     H_    0.095851 0.555211 0.917371 0.158917
H16   H     H_    0.875157 0.586418 0.306987 0.202589
H17   H     H_    0.123926 0.416619 0.693560 0.160622
H18   H     H_    0.844205 0.578104 0.826634 0.187768
H19   H     H_    0.790046 0.491946 0.051048 0.188188
N1    N     N_R   0.499160 0.499140 0.142800 -0.165431
N2    N     N_R   0.499160 0.499180 0.857150 -0.117308
O1    O     O_R   0.500020 0.316790 0.614690 -0.615583
O2    O     O_R   0.500000 0.316760 0.385350 -0.604617
O3    O     O_R   0.316770 0.500030 0.614670 -0.627465
O4    O     O_R   0.316750 0.499990 0.385330 -0.622417
O5    O     O_R   0.500000 0.683240 0.614650 -0.622513
O6    O     O_R   0.499980 0.683210 0.385310 -0.590272
O7    O     O_R   0.683250 0.500010 0.614670 -0.607466
O8    O     O_R   0.683230 0.499970 0.385330 -0.606293
Zn1   Zn    Zn3+2 0.500010 0.500020 0.653130 0.970035
Zn2   Zn    Zn3+2 0.499990 0.499980 0.346870 1.000621
Br1   Br    Br    0.901207 0.051883 0.943754 -0.400999
Br2   Br    Br    0.739222 0.860315 0.699799 -0.468190
Br3   Br    Br    0.655515 0.718668 0.153476 -0.492982
Br4   Br    Br    0.256295 0.945884 0.125666 -0.439502
F1    F     F_    0.341544 0.219824 0.128218 -0.623783

loop_
_geom_bond_atom_site_label_1
_geom_bond_atom_site_label_2
_ccdc_geom_bond_type
C11   H2    S    
C30   F1    S    
C3    H16   S    
C25   N1    A    
C16   C21   A    
C10   H19   S    
C32   Br4   S    
N1    Zn2   S    
C9    C10   A    
O4    Zn2   S    
C22   Br2   S    
C1    C17   S    
C19   C20   A    
C20   C23   S    
N2    Zn1   S    
C32   C33   A    
C27   H9    S    
C35   H14   S    
C23   O6    A    
C17   C18   A    
C9    C15   A    
O3    Zn1   S    
C7    C8    A    
C16   C24   S    
C22   H6    S    
C13   C14   A    
C25   C28   A    
C12   O4    A    
C11   C13   A    
C2    H1    S    
C26   C27   A    
C29   C30   S    
C36   H15   S    
C1    O1    A    
C35   C36   A    
C29   H11   S    
C26   Br3   S    
C30   H12   S    
C28   C29   S    
C33   C34   A    
C21   C22   S    
C34   C35   A    
C6    C7    A    
O6    Zn2   S    
C1    O2    A    
C3    C8    A    
C5    C6    A    
C24   H8    S    
C22   C24   S    
C7    C12   S    
C5    C15   S    
C4    C31   S    
C16   C17   A    
C10   C11   A    
O5    Zn1   S    
C6    H17   S    
C33   H13   S    
C3    C4    A    
C12   O3    A    
C20   C21   A    
C2    C32   A    
C29   H10   S    
C27   N2    A    
C2    C36   A    
C25   C30   S    
C31   O8    A    
C24   H7    S    
C18   H4    S    
C14   C15   A    
C18   C19   A    
C8    C34   S    
C9    H18   S    
O2    Zn2   S    
C14   H3    S    
C28   N2    A    
C31   O7    A    
O1    Zn1   S    
C23   O5    A    
C19   H5    S    
O7    Zn1   S    
C4    C5    A    
O8    Zn2   S    
C13   Br1   S    
C26   N1    A    
