data_mof_unit_29970.cif
_audit_creation_date              2012-12-10T20:55:43-0500
_audit_creation_method            fapswitch 2.2
_symmetry_space_group_name_H-M    P1
_symmetry_Int_Tables_number       1
_space_group_crystal_system       triclinic
_cell_length_a                    15.6359
_cell_length_b                    15.018888
_cell_length_c                    10.33292
_cell_angle_alpha                 90.763704
_cell_angle_beta                  90.0933
_cell_angle_gamma                 90.237607
_cell_volume                      2426.27933258

loop_
_atom_site_label
_atom_site_type_symbol
_atom_type_description
_atom_site_fract_x
_atom_site_fract_y
_atom_site_fract_z
_atom_type_partial_charge
C1    C     C_1   0.249659 0.499692 0.524897 -0.136010
C2    C     C_1   0.750488 0.500696 0.525381 -0.175853
C3    C     C_R   0.436635 0.500601 0.866054 -0.095065
C4    C     C_R   0.436742 0.498439 0.133385 -0.094837
C5    C     C_R   0.497161 0.905080 0.509046 -0.305990
C6    C     C_R   0.496992 0.094991 0.509425 -0.294596
C7    C     C_R   0.420841 0.951881 0.484930 0.369432
C8    C     C_R   0.571823 0.047687 0.542775 0.403531
C9    C     C_R   0.572048 0.953439 0.540757 0.404640
C10   C     C_R   0.421414 0.047073 0.479221 0.373280
C11   C     C_R   0.956320 0.581346 0.601610 0.398315
C12   C     C_R   0.044373 0.417897 0.594392 0.388441
C13   C     C_R   0.045574 0.581052 0.602056 0.397447
C14   C     C_R   0.955126 0.418148 0.594282 0.398045
C15   C     C_R   0.337945 0.499836 0.500154 0.852695
C16   C     C_R   0.662018 0.500175 0.500524 0.899793
C17   C     C_R   0.476465 0.499413 0.264196 0.931326
C18   C     C_R   0.476427 0.500331 0.735587 0.930434
C19   C     C_R   0.912091 0.500027 0.588309 -0.285329
C20   C     C_R   0.088490 0.499437 0.588565 -0.290511
C21   C     C_1   0.498549 0.807174 0.503398 0.258843
C22   C     C_1   0.498387 0.192847 0.503409 0.256625
C23   C     C_1   0.824305 0.500681 0.553485 0.140465
C24   C     C_1   0.176038 0.499525 0.553318 0.144437
C25   C     C_R   0.393512 0.658616 0.139599 0.247446
C26   C     C_R   0.395894 0.339288 0.859664 0.234350
C27   C     C_R   0.400560 0.662533 0.870891 0.235336
C28   C     C_R   0.403041 0.335630 0.128172 0.250694
C29   C     C_R   0.395235 0.741228 0.077229 0.438507
C30   C     C_R   0.399710 0.256750 0.921848 0.423994
C31   C     C_R   0.400964 0.743380 0.942879 0.273058
C32   C     C_R   0.405595 0.254817 0.056224 0.281933
C33   C     C_R   0.419754 0.581498 0.934072 -0.038759
C34   C     C_R   0.420897 0.417179 0.065219 -0.037584
C35   C     C_R   0.417489 0.579741 0.070609 -0.178652
C36   C     C_R   0.418519 0.418864 0.928729 -0.178150
N1    N     N_1   0.500000 0.270550 0.500000 -0.062815
N2    N     N_1   0.500000 0.729450 0.500000 -0.059199
O1    O     O_R   0.378020 0.573650 0.500040 -0.555798
O2    O     O_R   0.621980 0.426350 0.499960 -0.603547
O3    O     O_R   0.621980 0.573650 0.499960 -0.599505
O4    O     O_R   0.378020 0.426350 0.500040 -0.555080
O5    O     O_R   0.499990 0.573670 0.316780 -0.589705
O6    O     O_R   0.500010 0.426330 0.683220 -0.599189
O7    O     O_R   0.500010 0.573670 0.683220 -0.573056
O8    O     O_R   0.499990 0.426330 0.316780 -0.565512
Zn1   Zn    Zn3+2 0.500000 0.598370 0.500000 1.036580
Zn2   Zn    Zn3+2 0.500000 0.401630 0.500000 1.033458
O9    O     O_3   0.089296 0.661234 0.595633 -0.539388
C37   C     C_3   0.127974 0.679208 0.716713 -0.238535
H1    H     H_    0.178308 0.629735 0.739498 0.163009
H2    H     H_    0.079876 0.681739 0.795838 0.140950
H3    H     H_    0.159392 0.745478 0.713022 0.187997
O10   O     O_3   0.911574 0.338173 0.579935 -0.534423
C38   C     C_3   0.873248 0.316652 0.699067 -0.239565
H4    H     H_    0.821426 0.364063 0.724895 0.141186
H5    H     H_    0.921102 0.314140 0.778696 0.134525
H6    H     H_    0.843842 0.249533 0.689720 0.200463
O11   O     O_3   0.913834 0.661804 0.594819 -0.534137
C39   C     C_3   0.877393 0.681117 0.716720 -0.239482
H7    H     H_    0.926414 0.682211 0.794881 0.138277
H8    H     H_    0.825539 0.633204 0.740453 0.140851
H9    H     H_    0.848522 0.748364 0.713550 0.194118
O12   O     O_3   0.087092 0.337824 0.580257 -0.542963
C40   C     C_3   0.123452 0.315369 0.700457 -0.189063
H10   H     H_    0.073322 0.305505 0.775123 0.132488
H11   H     H_    0.170463 0.366247 0.734671 0.141214
H12   H     H_    0.158260 0.251573 0.688615 0.218847
O13   O     O_3   0.409353 0.173030 0.114869 -0.723228
H13   H     H_    0.435197 0.181481 0.201885 0.332006
O14   O     O_3   0.402282 0.825261 0.884113 -0.713410
H14   H     H_    0.430744 0.818011 0.798980 0.314080
O15   O     O_3   0.391527 0.176770 0.855166 -0.692425
H15   H     H_    0.394730 0.187601 0.760923 0.367155
O16   O     O_3   0.385233 0.820907 0.143778 -0.676038
H16   H     H_    0.389528 0.810216 0.237932 0.387833
O17   O     O_3   0.347804 0.095457 0.453510 -0.616762
C41   C     C_3   0.309424 0.067895 0.335565 -0.118899
H17   H     H_    0.256440 0.020501 0.354414 0.204809
H18   H     H_    0.355239 0.038092 0.264813 0.203961
H19   H     H_    0.280472 0.126878 0.289591 0.178457
O18   O     O_3   0.648060 0.908962 0.561503 -0.548873
C42   C     C_3   0.652341 0.884478 0.692683 -0.218584
H20   H     H_    0.598056 0.840581 0.720353 0.132075
H21   H     H_    0.654860 0.943993 0.757568 0.164207
H22   H     H_    0.712095 0.846490 0.707909 0.181180
O19   O     O_3   0.647878 0.092110 0.568810 -0.549748
C43   C     C_3   0.644311 0.132308 0.693226 -0.259526
H23   H     H_    0.604392 0.094865 0.763634 0.148306
H24   H     H_    0.620772 0.201679 0.686532 0.165876
H25   H     H_    0.710140 0.135638 0.733207 0.183888
O20   O     O_3   0.346903 0.903841 0.459359 -0.601130
C44   C     C_3   0.295597 0.904233 0.571410 -0.220923
H26   H     H_    0.274046 0.972584 0.597653 0.200315
H27   H     H_    0.329554 0.874128 0.654273 0.160609
H28   H     H_    0.237687 0.863313 0.551756 0.201249
O21   O     O_3   0.358529 0.655949 0.261719 -0.717930
H29   H     H_    0.329284 0.597655 0.270085 0.333217
O22   O     O_3   0.360443 0.340889 0.737658 -0.737073
H30   H     H_    0.330741 0.398624 0.729093 0.325480
O23   O     O_3   0.370825 0.659940 0.744876 -0.749143
H31   H     H_    0.340034 0.715739 0.725751 0.335207
O24   O     O_3   0.372447 0.337411 0.253607 -0.732763
H32   H     H_    0.342857 0.280628 0.272373 0.351815

loop_
_geom_bond_atom_site_label_1
_geom_bond_atom_site_label_2
_ccdc_geom_bond_type
C7    C10   A    
O19   C43   S    
C44   H26   S    
O15   H15   S    
C28   O24   S    
C38   H4    S    
O21   H29   S    
O17   C41   S    
C27   C33   A    
C11   C19   A    
O23   H31   S    
C39   H9    S    
C12   O12   S    
C41   H18   S    
C3    C33   A    
C6    C22   S    
C3    C18   S    
C39   H8    S    
C21   N2    T    
O22   H30   S    
C8    C9    A    
C40   H11   S    
C37   H2    S    
C1    C15   S    
C2    C16   S    
C26   O22   S    
C31   O14   S    
C4    C35   A    
C28   C34   A    
O11   C39   S    
C44   H27   S    
C11   O11   S    
C10   O17   S    
C4    C34   A    
O7    Zn1   S    
C25   C29   A    
O8    Zn2   S    
C37   H3    S    
C27   C31   A    
C20   C24   S    
C28   C32   A    
C17   O8    A    
C25   C35   A    
C30   O15   S    
C41   H17   S    
C6    C8    A    
C22   N1    T    
C27   O23   S    
C39   H7    S    
C19   C23   S    
O16   H16   S    
C17   O5    A    
C5    C9    A    
C18   O6    A    
C5    C7    A    
C42   H20   S    
C43   H25   S    
C40   H12   S    
C12   C20   A    
C37   H1    S    
O3    Zn1   S    
O4    Zn2   S    
N1    Zn2   S    
C15   O1    A    
N2    Zn1   S    
C16   O2    A    
C13   O9    S    
C4    C17   S    
C26   C36   A    
C42   H21   S    
C12   C14   A    
O18   C42   S    
C44   H28   S    
C38   H5    S    
C18   O7    A    
C2    C23   T    
O1    Zn1   S    
C25   O21   S    
O2    Zn2   S    
O10   C38   S    
C13   C20   A    
C14   O10   S    
C14   C19   A    
C15   O4    A    
C43   H24   S    
C6    C10   A    
C26   C30   A    
C32   O13   S    
C29   O16   S    
C9    O18   S    
C8    O19   S    
O12   C40   S    
O14   H14   S    
C29   C31   A    
C30   C32   A    
C11   C13   A    
C41   H19   S    
C3    C36   A    
C7    O20   S    
O20   C44   S    
C33   C35   A    
C34   C36   A    
C40   H10   S    
O13   H13   S    
C42   H22   S    
C5    C21   S    
C43   H23   S    
C1    C24   T    
O9    C37   S    
C38   H6    S    
O24   H32   S    
O5    Zn1   S    
C16   O3    A    
O6    Zn2   S    
