data_mof_unit_17483.cif
_audit_creation_date              2012-12-10T20:31:05-0500
_audit_creation_method            fapswitch 2.2
_symmetry_space_group_name_H-M    P1
_symmetry_Int_Tables_number       1
_space_group_crystal_system       triclinic
_cell_length_a                    14.890134
_cell_length_b                    10.670702
_cell_length_c                    9.949719
_cell_angle_alpha                 90.379069
_cell_angle_beta                  90.621089
_cell_angle_gamma                 90.016013
_cell_volume                      1580.76519369

loop_
_atom_site_label
_atom_site_type_symbol
_atom_type_description
_atom_site_fract_x
_atom_site_fract_y
_atom_site_fract_z
_atom_type_partial_charge
C1    C     C_R   0.502912 0.260331 0.499786 0.867701
C2    C     C_R   0.907447 0.600047 0.569430 0.031864
C3    C     C_R   0.952155 0.310749 0.364723 -0.179833
C4    C     C_R   0.045370 0.310837 0.363172 -0.182039
C5    C     C_R   0.092935 0.406896 0.428367 0.140241
C6    C     C_R   0.047016 0.504395 0.495775 0.070824
C7    C     C_R   0.094901 0.602678 0.558987 0.118750
C8    C     C_R   0.049778 0.699313 0.624861 -0.212088
C9    C     C_R   0.956370 0.698044 0.633853 -0.021500
C10   C     C_R   0.185945 0.406796 0.428720 -0.201866
C11   C     C_R   0.232063 0.502356 0.495652 -0.000238
C12   C     C_R   0.327299 0.500059 0.499019 0.866530
C13   C     C_R   0.187824 0.601508 0.557182 -0.139368
C14   C     C_R   0.511184 0.065086 0.622017 0.110403
C15   C     C_R   0.516698 0.128841 0.500869 -0.098285
C16   C     C_R   0.538200 0.064058 0.382534 -0.215535
C17   C     C_R   0.537880 0.934382 0.382937 -0.214854
C18   C     C_R   0.515891 0.871481 0.501619 -0.120144
C19   C     C_R   0.510509 0.937291 0.622413 0.165691
C20   C     C_3   0.440552 0.932423 0.728943 -0.380958
C21   C     C_3   0.441725 0.074233 0.728857 -0.480625
C22   C     C_R   0.430353 0.448523 0.069651 0.141881
C23   C     C_R   0.502460 0.739789 0.500326 0.880464
C24   C     C_R   0.571259 0.543487 0.074265 -0.116580
C25   C     C_R   0.570786 0.546619 0.931284 0.002319
C26   C     C_R   0.430154 0.448176 0.928073 0.104633
C27   C     C_3   0.331036 0.480717 0.923105 -0.221642
C28   C     C_3   0.332559 0.480566 0.078218 -0.386882
C29   C     C_R   0.672862 0.500281 0.500578 0.866663
C30   C     C_R   0.813870 0.597034 0.568286 -0.166658
C31   C     C_R   0.768441 0.500633 0.501670 -0.054062
C32   C     C_R   0.813380 0.406041 0.433530 -0.235637
C33   C     C_R   0.906194 0.406172 0.432384 0.132735
C34   C     C_R   0.953553 0.503574 0.499528 0.049516
H1    H     H_    0.375866 0.892512 0.691606 0.210028
H2    H     H_    0.466831 0.891843 0.824168 0.262226
H3    H     H_    0.469044 0.115695 0.823612 0.235462
H4    H     H_    0.080230 0.236051 0.311153 0.158981
H5    H     H_    0.549318 0.112505 0.288826 0.180715
N1    N     N_R   0.499390 0.499140 0.142800 -0.097001
N2    N     N_R   0.499390 0.499180 0.857150 -0.128432
O1    O     O_R   0.500010 0.316790 0.614690 -0.618637
O2    O     O_R   0.500000 0.316760 0.385350 -0.626403
O3    O     O_R   0.367850 0.499990 0.614680 -0.609388
O4    O     O_R   0.367840 0.499950 0.385340 -0.625082
O5    O     O_R   0.500000 0.683240 0.614650 -0.541126
O6    O     O_R   0.499990 0.683210 0.385310 -0.608406
O7    O     O_R   0.632160 0.500050 0.614660 -0.611191
O8    O     O_R   0.632150 0.500010 0.385320 -0.629161
Zn1   Zn    Zn3+2 0.500010 0.500020 0.653130 1.015805
Zn2   Zn    Zn3+2 0.499990 0.499980 0.346870 0.973950
H6    H     H_    0.775080 0.670971 0.614043 0.160318
H7    H     H_    0.548948 0.884470 0.289396 0.192806
H8    H     H_    0.377845 0.116274 0.691770 0.216466
H9    H     H_    0.627120 0.583448 0.130375 0.159297
C35   C     C_2   0.643664 0.615581 0.867261 0.973759
O9    O     O_2   0.721080 0.578873 0.879063 -0.595954
O10   O     O_R   0.624664 0.728058 0.802137 -0.787637
H10   H     H_    0.680193 0.771685 0.768003 0.346933
C36   C     C_2   0.306818 0.608080 0.864594 0.958328
O11   O     O_2   0.364329 0.675525 0.816821 -0.621485
O12   O     O_R   0.218440 0.651215 0.874474 -0.768570
H11   H     H_    0.211244 0.740286 0.841291 0.324906
C37   C     C_2   0.275778 0.373212 0.865243 0.924658
O13   O     O_2   0.213443 0.393192 0.787271 -0.598531
O14   O     O_R   0.295309 0.250185 0.903550 -0.827222
H12   H     H_    0.253450 0.186637 0.859784 0.345343
C38   C     C_2   0.312986 0.606131 0.144415 1.040234
O15   O     O_2   0.240933 0.622144 0.199659 -0.613429
O16   O     O_R   0.375224 0.704215 0.138962 -0.784444
H13   H     H_    0.353592 0.782704 0.186557 0.335972
H14   H     H_    0.775811 0.332388 0.382300 0.144815
H15   H     H_    0.293786 0.402638 0.123698 0.171491
H16   H     H_    0.915978 0.236014 0.313447 0.158936
H17   H     H_    0.222625 0.331981 0.379304 0.128190
H18   H     H_    0.226089 0.677100 0.603350 0.130070
H19   H     H_    0.087750 0.774092 0.673217 0.171907
C39   C     C_2   0.914016 0.799591 0.713397 0.905033
O17   O     O_2   0.856247 0.775254 0.795517 -0.605357
O18   O     O_R   0.944127 0.922902 0.699430 -0.802489
H20   H     H_    0.911385 0.983773 0.760320 0.351903

loop_
_geom_bond_atom_site_label_1
_geom_bond_atom_site_label_2
_ccdc_geom_bond_type
C8    C9    A    
C19   C20   S    
C25   C35   S    
C7    C8    A    
C32   H14   S    
C29   O8    A    
C24   H9    S    
C26   C27   S    
C14   C21   S    
C28   C38   S    
C27   C36   S    
C21   H8    S    
C39   O18   S    
O4    Zn2   S    
C15   C16   A    
C35   O9    D    
C36   O12   S    
C18   C19   A    
C3    H16   S    
C38   O15   D    
C20   H1    S    
C1    O2    A    
C16   C17   A    
O8    Zn2   S    
O16   H13   S    
C1    C15   S    
C2    C34   A    
O7    Zn1   S    
O14   H12   S    
C23   O5    A    
C22   C28   S    
C28   H15   S    
C33   C34   A    
C23   O6    A    
C29   O7    A    
C18   C23   S    
C24   C25   A    
C10   C11   A    
C25   N2    A    
C39   O17   D    
O18   H20   S    
O6    Zn2   S    
O10   H10   S    
C6    C34   A    
C36   O11   D    
C37   O14   S    
O12   H11   S    
C10   H17   S    
C31   C32   A    
C13   H18   S    
C30   C31   A    
C22   N1    A    
C17   C18   A    
O1    Zn1   S    
C4    H4    S    
C8    H19   S    
C3    C4    A    
C17   H7    S    
N2    Zn1   S    
O3    Zn1   S    
C30   H6    S    
C14   C19   A    
C4    C5    A    
C11   C12   S    
C6    C7    A    
C12   O4    A    
N1    Zn2   S    
O5    Zn1   S    
C2    C30   A    
C32   C33   A    
C5    C10   A    
C29   C31   S    
C37   O13   D    
C11   C13   A    
O2    Zn2   S    
C5    C6    A    
C24   N1    A    
C35   O10   S    
C9    C39   S    
C27   C37   S    
C16   H5    S    
C20   H2    S    
C1    O1    A    
C7    C13   A    
C21   H3    S    
C20   C21   S    
C38   O16   S    
C22   C26   A    
C27   C28   S    
C3    C33   A    
C14   C15   A    
C12   O3    A    
C2    C9    A    
C26   N2    A    
