data_mof_unit_17075.cif
_audit_creation_date              2012-12-10T17:42:43-0500
_audit_creation_method            fapswitch 2.2
_symmetry_space_group_name_H-M    P1
_symmetry_Int_Tables_number       1
_space_group_crystal_system       triclinic
_cell_length_a                    9.957786
_cell_length_b                    10.618416
_cell_length_c                    13.107116
_cell_angle_alpha                 91.476113
_cell_angle_beta                  69.995322
_cell_angle_gamma                 89.83406
_cell_volume                      1301.74132601

loop_
_atom_site_label
_atom_site_type_symbol
_atom_type_description
_atom_site_fract_x
_atom_site_fract_y
_atom_site_fract_z
_atom_type_partial_charge
C1    C     C_R   0.500951 0.739165 0.497426 0.856687
C2    C     C_R   0.367192 0.491958 0.823246 -0.232596
C3    C     C_R   0.466815 0.863188 0.312711 -0.178111
C4    C     C_R   0.419876 0.495644 0.704264 0.877972
C5    C     C_R   0.450284 0.926316 0.225645 -0.146094
C6    C     C_R   0.451640 0.057392 0.225234 -0.131280
C7    C     C_R   0.469161 0.125731 0.312016 -0.186950
C8    C     C_R   0.484747 0.063101 0.401436 0.090374
C9    C     C_R   0.483793 0.931103 0.401727 0.100673
C10   C     C_R   0.504086 0.871336 0.490354 -0.088972
C11   C     C_R   0.530054 0.937945 0.574276 -0.212533
C12   C     C_R   0.435141 0.486621 0.984055 0.087050
C13   C     C_R   0.530622 0.066604 0.574104 -0.206233
C14   C     C_R   0.505394 0.128154 0.489953 -0.091530
C15   C     C_R   0.798881 0.670172 0.638710 -0.135832
C16   C     C_R   0.501467 0.260712 0.497231 0.852612
C17   C     C_R   0.839017 0.753689 0.706310 -0.231271
C18   C     C_R   0.978068 0.752707 0.706123 -0.165046
C19   C     C_R   0.077816 0.668091 0.638381 -0.087183
C20   C     C_R   0.041680 0.583376 0.567909 0.116717
C21   C     C_R   0.897383 0.583679 0.568022 0.180515
C22   C     C_R   0.958301 0.420149 0.434789 -0.119657
C23   C     C_R   0.456876 0.444754 0.876713 0.018006
C24   C     C_R   0.101104 0.420185 0.434808 -0.109467
C25   C     C_R   0.579621 0.497066 0.296208 0.840821
C26   C     C_R   0.740573 0.324704 0.031470 -0.240417
C27   C     C_R   0.627077 0.470900 0.180465 -0.050376
C28   C     C_R   0.234304 0.547546 0.884909 0.515629
C29   C     C_R   0.206400 0.578781 0.994332 -0.260750
C30   C     C_R   0.307134 0.552635 0.042685 -0.284473
C31   C     C_3   0.021764 0.490047 0.867791 0.099813
C32   C     C_3   0.059362 0.370907 0.795116 -0.821952
C33   C     C_R   0.540017 0.456952 0.029989 0.105407
C34   C     C_R   0.646805 0.364605 0.979228 0.163376
C35   C     C_R   0.655901 0.311854 0.878564 -0.266607
C36   C     C_R   0.565018 0.354200 0.826289 -0.167596
C37   C     C_R   0.540002 0.515591 0.126167 -0.266027
C38   C     C_R   0.729649 0.376843 0.132723 -0.221712
H1    H     H_    0.794824 0.338780 0.176238 0.154507
H2    H     H_    0.008545 0.816691 0.759844 0.161422
H3    H     H_    0.181349 0.669179 0.645158 0.228392
H4    H     H_    0.734237 0.238953 0.839468 0.143642
H5    H     H_    0.178686 0.354793 0.381416 0.150767
H6    H     H_    0.818595 0.250390 0.996059 0.144789
H7    H     H_    0.467253 0.592454 0.164009 0.135792
H8    H     H_    0.278181 0.578309 0.127748 0.163993
H9    H     H_    0.106835 0.625432 0.041598 0.159893
H10   H     H_    0.575778 0.311032 0.748184 0.158981
H11   H     H_    0.547063 0.890051 0.641040 0.136566
H12   H     H_    0.468264 0.761441 0.308690 0.141324
H13   H     H_    0.926201 0.534616 0.857772 0.186656
H14   H     H_    0.989737 0.464665 0.954732 0.140153
H15   H     H_    0.153976 0.322349 0.803032 0.235794
H16   H     H_    0.969009 0.304848 0.818816 0.197592
H17   H     H_    0.081306 0.394588 0.709145 0.277047
H18   H     H_    0.437737 0.873301 0.157868 0.135151
H19   H     H_    0.440314 0.106296 0.157098 0.143142
H20   H     H_    0.472482 0.227239 0.307437 0.147313
H21   H     H_    0.547816 0.118507 0.640810 0.137222
H22   H     H_    0.929215 0.354808 0.381372 0.143256
H23   H     H_    0.689815 0.676464 0.644838 0.200315
H24   H     H_    0.761239 0.819042 0.759742 0.148689
N1    N     N_R   0.856860 0.501200 0.500990 -0.117285
N2    N     N_R   0.142450 0.501280 0.501020 -0.127508
O1    O     O_R   0.385310 0.683220 0.500000 -0.639428
O2    O     O_R   0.614640 0.683250 0.500010 -0.626132
O3    O     O_R   0.328400 0.499950 0.653610 -0.583359
O4    O     O_R   0.557730 0.499970 0.653620 -0.636031
O5    O     O_R   0.385360 0.316750 0.499990 -0.618030
O6    O     O_R   0.614690 0.316780 0.500000 -0.616257
O7    O     O_R   0.442270 0.500030 0.346380 -0.618159
O8    O     O_R   0.671600 0.500050 0.346390 -0.608352
O9    O     O_3   0.134637 0.577791 0.837261 -0.641104
Zn1   Zn    Zn3+2 0.346880 0.499980 0.499990 0.927428
Zn2   Zn    Zn3+2 0.653120 0.500020 0.500010 0.928833

loop_
_geom_bond_atom_site_label_1
_geom_bond_atom_site_label_2
_ccdc_geom_bond_type
C5    H18   S    
C35   C36   A    
C31   H14   S    
C26   H6    S    
C7    C8    A    
O4    Zn2   S    
C12   C23   A    
C29   H9    S    
C3    C9    A    
C28   C29   A    
C34   C35   A    
C22   H22   S    
C5    C6    A    
C31   O9    S    
C27   C38   A    
C17   C18   A    
C18   C19   A    
C35   H4    S    
C18   H2    S    
C22   N1    A    
C26   C34   A    
C19   C20   A    
C8    C9    A    
C1    O1    A    
C25   O7    A    
C9    C10   A    
C32   H17   S    
C24   N2    A    
C13   C14   A    
C6    H19   S    
O8    Zn2   S    
C28   O9    S    
C32   H16   S    
C3    H12   S    
C33   C34   A    
C1    C10   S    
C16   O6    A    
C25   O8    A    
C26   C38   A    
C33   C37   A    
O1    Zn1   S    
C20   N2    A    
C2    C4    S    
C29   C30   A    
C11   H11   S    
C17   H24   S    
C4    O3    A    
C31   C32   S    
C1    O2    A    
C15   H23   S    
O5    Zn1   S    
O3    Zn1   S    
C14   C16   S    
C37   H7    S    
C32   H15   S    
O6    Zn2   S    
C4    O4    A    
C15   C17   A    
C8    C14   A    
C7    H20   S    
C12   C30   A    
C30   H8    S    
C16   O5    A    
C31   H13   S    
C3    C5    A    
O7    Zn1   S    
C6    C7    A    
C13   H21   S    
C25   C27   S    
C11   C13   A    
C38   H1    S    
N1    Zn2   S    
C27   C37   A    
O2    Zn2   S    
C36   H10   S    
C22   C24   A    
C21   N1    A    
C10   C11   A    
C15   C21   A    
C20   C21   A    
C23   C36   A    
C2    C23   A    
C24   H5    S    
N2    Zn1   S    
C2    C28   A    
C12   C33   A    
C19   H3    S    
