data_mof_unit_39127.cif
_audit_creation_date              2012-12-11T15:41:11-0500
_audit_creation_method            fapswitch 2.2
_symmetry_space_group_name_H-M    P1
_symmetry_Int_Tables_number       1
_space_group_crystal_system       triclinic
_cell_length_a                    19.275595
_cell_length_b                    11.022146
_cell_length_c                    18.823001
_cell_angle_alpha                 89.70506
_cell_angle_beta                  90.206948
_cell_angle_gamma                 90.870757
_cell_volume                      3998.56532488

loop_
_atom_site_label
_atom_site_type_symbol
_atom_type_description
_atom_site_fract_x
_atom_site_fract_y
_atom_site_fract_z
_atom_type_partial_charge
C1    C     C_R   0.709268 0.999388 0.861011 0.544862
C2    C     C_R   0.272167 0.955494 0.147776 0.548748
C3    C     C_R   0.209268 0.499389 0.861011 0.544856
C4    C     C_R   0.772167 0.455495 0.147776 0.548749
C5    C     C_R   0.703470 0.476861 0.038595 0.027179
C6    C     C_R   0.286299 0.477410 0.964137 -0.019086
C7    C     C_R   0.203469 0.976857 0.038595 0.027187
C8    C     C_R   0.786299 0.977405 0.964137 -0.019092
C9    C     C_R   0.700001 0.456364 0.965966 0.033373
C10   C     C_R   0.298410 0.452196 0.035043 0.008267
C11   C     C_R   0.199999 0.956357 0.965966 0.033376
C12   C     C_R   0.798410 0.952192 0.035043 0.008264
C13   C     C_R   0.794323 0.312001 0.976205 -0.053169
C14   C     C_R   0.174202 0.425468 0.054783 -0.036046
C15   C     C_R   0.294322 0.811996 0.976206 -0.053168
C16   C     C_R   0.674201 0.925467 0.054782 -0.036065
C17   C     C_R   0.785731 0.314928 0.050641 -0.003822
C18   C     C_R   0.164670 0.435774 0.980725 0.003178
C19   C     C_R   0.285730 0.814924 0.050643 -0.003823
C20   C     C_R   0.664670 0.935771 0.980724 0.003178
C21   C     C_3   0.625818 0.474580 0.043312 -0.273552
C22   C     C_3   0.342826 0.395710 0.940750 -0.260630
C23   C     C_3   0.125817 0.974576 0.043313 -0.273550
C24   C     C_3   0.842825 0.895700 0.940751 -0.260630
C25   C     C_3   0.622955 0.449990 0.964570 -0.252158
C26   C     C_3   0.356727 0.370542 0.017981 -0.257125
C27   C     C_3   0.122954 0.949981 0.964572 -0.252156
C28   C     C_3   0.856726 0.870536 0.017982 -0.257122
C29   C     C_R   0.745883 0.378757 0.932752 -0.012817
C30   C     C_R   0.243997 0.426278 0.081390 0.000009
C31   C     C_R   0.245881 0.878750 0.932754 -0.012820
C32   C     C_R   0.743996 0.926278 0.081390 0.000010
C33   C     C_R   0.508436 0.170929 0.420604 0.019043
C34   C     C_R   0.517182 0.170598 0.568302 0.021933
C35   C     C_R   0.008436 0.670929 0.420604 0.019042
C36   C     C_R   0.017182 0.670598 0.568302 0.021933
C37   C     C_R   0.522827 0.278787 0.457322 0.028334
C38   C     C_R   0.526577 0.277557 0.529666 0.043994
C39   C     C_R   0.022827 0.778787 0.457321 0.028334
C40   C     C_R   0.026577 0.777557 0.529666 0.043994
C41   C     C_R   0.515319 0.060057 0.531559 -0.167800
C42   C     C_R   0.513128 0.060170 0.457332 -0.172645
C43   C     C_R   0.015319 0.560057 0.531559 -0.167800
C44   C     C_R   0.013128 0.560170 0.457332 -0.172645
C45   C     C_R   0.527478 0.177898 0.848778 0.532654
C46   C     C_R   0.440211 0.182040 0.141713 0.552695
C47   C     C_R   0.027478 0.677897 0.848778 0.532654
C48   C     C_R   0.940211 0.682040 0.141712 0.552694
C49   C     C_3   0.487381 0.399706 0.457949 -0.267525
C50   C     C_3   0.491484 0.396169 0.537934 -0.276809
C51   C     C_3   0.987381 0.899706 0.457949 -0.267525
C52   C     C_3   0.991484 0.896169 0.537934 -0.276809
C53   C     C_R   0.750984 0.402421 0.419940 0.017242
C54   C     C_R   0.249751 0.411651 0.578524 0.014453
C55   C     C_R   0.250984 0.902421 0.419940 0.017242
C56   C     C_R   0.749751 0.911651 0.578524 0.014453
C57   C     C_R   0.797485 0.329892 0.457936 0.024841
C58   C     C_R   0.212472 0.319101 0.544245 0.021153
C59   C     C_R   0.297485 0.829892 0.457936 0.024841
C60   C     C_R   0.712472 0.819101 0.544245 0.021153
C61   C     C_R   0.793167 0.319852 0.530474 0.033566
C62   C     C_R   0.214706 0.309101 0.471512 0.044413
C63   C     C_R   0.293167 0.819851 0.530474 0.033566
C64   C     C_R   0.714706 0.809101 0.471512 0.044413
C65   C     C_R   0.688487 0.435148 0.529913 -0.151104
C66   C     C_R   0.300586 0.468858 0.464244 -0.170638
C67   C     C_R   0.188487 0.935147 0.529913 -0.151104
C68   C     C_R   0.800586 0.968858 0.464244 -0.170638
C69   C     C_R   0.692287 0.444711 0.455610 -0.153145
C70   C     C_R   0.298297 0.480164 0.538378 -0.165106
C71   C     C_R   0.192287 0.944711 0.455610 -0.153144
C72   C     C_R   0.798297 0.980164 0.538378 -0.165106
C73   C     C_3   0.875194 0.333240 0.461135 -0.268006
C74   C     C_3   0.137082 0.284255 0.545963 -0.268758
C75   C     C_3   0.375194 0.833240 0.461135 -0.268006
C76   C     C_3   0.637082 0.784255 0.545963 -0.268758
C77   C     C_3   0.869822 0.322180 0.540892 -0.277860
C78   C     C_3   0.139395 0.277597 0.465807 -0.268219
C79   C     C_3   0.369822 0.822180 0.540892 -0.277859
C80   C     C_3   0.639395 0.777597 0.465807 -0.268219
C81   C     C_R   0.742621 0.380599 0.568409 0.017432
C82   C     C_R   0.254908 0.387942 0.429753 0.021363
C83   C     C_R   0.242621 0.880599 0.568409 0.017431
C84   C     C_R   0.754908 0.887942 0.429753 0.021363
C85   C     C_R   0.735300 0.348745 0.857348 0.545573
C86   C     C_R   0.260940 0.365448 0.148281 0.543119
C87   C     C_R   0.235298 0.848738 0.857350 0.545573
C88   C     C_R   0.760940 0.865448 0.148281 0.543120
C89   C     C_R   0.727638 0.955819 0.647523 0.561630
C90   C     C_R   0.272239 0.954218 0.351888 0.548324
C91   C     C_R   0.227638 0.455819 0.647523 0.561631
C92   C     C_R   0.772239 0.454218 0.351888 0.548324
C93   C     C_R   0.532578 0.176313 0.643084 0.547539
C94   C     C_R   0.471355 0.176966 0.354060 0.553472
C95   C     C_R   0.032578 0.676313 0.643084 0.547540
C96   C     C_R   0.971355 0.676966 0.354060 0.553471
C97   C     C_R   0.737494 0.355308 0.644071 0.552662
C98   C     C_R   0.261582 0.358896 0.354866 0.546061
C99   C     C_R   0.237493 0.855308 0.644071 0.552663
C100  C     C_R   0.761582 0.858896 0.354866 0.546061
C101  C     C_2   0.485257 0.177373 0.913434 -0.121225
C102  C     C_2   0.461785 0.175347 0.067227 -0.151891
C103  C     C_2   0.985257 0.677372 0.913434 -0.121226
C104  C     C_2   0.961785 0.675347 0.067227 -0.151892
C105  C     C_2   0.435665 0.090870 0.022217 -0.190947
C106  C     C_2   0.461525 0.079658 0.948356 -0.173148
C107  C     C_2   0.935666 0.590869 0.022217 -0.190947
C108  C     C_2   0.961528 0.579656 0.948357 -0.173148
C109  C     C_R   0.747413 0.407024 0.080741 -0.037216
C110  C     C_R   0.219763 0.474856 0.936650 -0.004113
C111  C     C_R   0.247412 0.907022 0.080741 -0.037219
C112  C     C_R   0.719763 0.974852 0.936650 -0.004097
Cr1   Cr    Cr6+3 0.769260 0.163750 0.750730 0.996090
Cr2   Cr    Cr6+3 0.230740 0.163750 0.249270 0.997144
Cr3   Cr    Cr6+3 0.269260 0.663750 0.750730 0.996093
Cr4   Cr    Cr6+3 0.730740 0.663750 0.249270 0.997143
Cr5   Cr    Cr6+3 0.612640 0.009910 0.748780 1.012424
Cr6   Cr    Cr6+3 0.387360 0.009910 0.251220 0.998843
Cr7   Cr    Cr6+3 0.112640 0.509910 0.748780 1.012409
Cr8   Cr    Cr6+3 0.887360 0.509910 0.251220 0.998844
Cr9   Cr    Cr6+3 0.614190 0.322400 0.747710 1.014792
Cr10  Cr    Cr6+3 0.385810 0.322400 0.252290 1.030654
Cr11  Cr    Cr6+3 0.114190 0.822400 0.747710 1.014788
Cr12  Cr    Cr6+3 0.885810 0.822400 0.252290 1.030653
H1    H     H_    0.399063 0.022690 0.041589 0.150875
H2    H     H_    0.462133 0.991068 0.923815 0.121958
H3    H     H_    0.899064 0.522688 0.041589 0.150875
H4    H     H_    0.962139 0.491065 0.923818 0.121954
H5    H     H_    0.932972 0.895763 0.438954 0.172926
H6    H     H_    0.025857 0.968008 0.560420 0.133367
H7    H     H_    0.432972 0.395763 0.438954 0.172926
H8    H     H_    0.525857 0.468008 0.560420 0.133368
H9    H     H_    0.519887 0.473223 0.433974 0.123262
H10   H     H_    0.439980 0.386622 0.563971 0.142282
H11   H     H_    0.019886 0.973223 0.433974 0.123262
H12   H     H_    0.939980 0.886622 0.563971 0.142281
H13   H     H_    0.644895 0.473528 0.557181 0.125642
H14   H     H_    0.335910 0.526116 0.433977 0.122971
H15   H     H_    0.144895 0.973528 0.557181 0.125642
H16   H     H_    0.835910 0.026116 0.433977 0.122971
H17   H     H_    0.652446 0.492362 0.426887 0.119822
H18   H     H_    0.330040 0.549657 0.563208 0.135547
H19   H     H_    0.152446 0.992362 0.426887 0.119822
H20   H     H_    0.830040 0.049657 0.563208 0.135547
H21   H     H_    0.896499 0.422450 0.444249 0.168891
H22   H     H_    0.103412 0.357265 0.564950 0.162389
H23   H     H_    0.396499 0.922449 0.444249 0.168891
H24   H     H_    0.603412 0.857265 0.564950 0.162389
H25   H     H_    0.898660 0.252899 0.435699 0.131255
H26   H     H_    0.128026 0.194642 0.571867 0.128217
H27   H     H_    0.398660 0.752899 0.435698 0.131255
H28   H     H_    0.628026 0.694642 0.571867 0.128218
H29   H     H_    0.889986 0.235234 0.561875 0.133838
H30   H     H_    0.129487 0.185354 0.445085 0.134867
H31   H     H_    0.389986 0.735234 0.561875 0.133838
H32   H     H_    0.629486 0.685354 0.445085 0.134867
H33   H     H_    0.888290 0.404564 0.569557 0.139772
H34   H     H_    0.109439 0.349965 0.438926 0.135871
H35   H     H_    0.388290 0.904563 0.569557 0.139772
H36   H     H_    0.609439 0.849965 0.438926 0.135871
H37   H     H_    0.500397 0.241387 0.049476 0.105217
H38   H     H_    0.476642 0.266336 0.936032 0.113038
H39   H     H_    0.000397 0.741388 0.049476 0.105217
H40   H     H_    0.976640 0.766335 0.936031 0.113039
H41   H     H_    0.105484 0.064564 0.058170 0.152622
H42   H     H_    0.885328 0.944550 0.913246 0.131897
H43   H     H_    0.605486 0.564567 0.058171 0.152605
H44   H     H_    0.385329 0.444564 0.913246 0.131898
H45   H     H_    0.605340 0.397839 0.076099 0.128167
H46   H     H_    0.323005 0.314561 0.911653 0.170382
H47   H     H_    0.105339 0.897837 0.076101 0.128164
H48   H     H_    0.823002 0.814551 0.911655 0.170384
H49   H     H_    0.602672 0.357581 0.952131 0.132356
H50   H     H_    0.343930 0.275388 0.033030 0.148951
H51   H     H_    0.102671 0.857571 0.952134 0.132350
H52   H     H_    0.843928 0.775382 0.033032 0.148949
H53   H     H_    0.600601 0.523840 0.932134 0.198084
H54   H     H_    0.407513 0.407093 0.036904 0.143797
H55   H     H_    0.100599 0.023829 0.932133 0.198081
H56   H     H_    0.907512 0.907086 0.036904 0.143798
H57   H     H_    0.512450 0.974930 0.560067 0.118047
H58   H     H_    0.507693 0.974924 0.429566 0.116154
H59   H     H_    0.012450 0.474930 0.560067 0.118047
H60   H     H_    0.007693 0.474924 0.429566 0.116154
O1    O     O_R   0.784290 0.290360 0.830540 -0.550821
O2    O     O_R   0.215710 0.290360 0.169460 -0.546330
O3    O     O_R   0.284290 0.790360 0.830540 -0.550817
O4    O     O_R   0.715710 0.790360 0.169460 -0.546331
O5    O     O_R   0.554690 0.080440 0.673480 -0.510647
O6    O     O_R   0.445310 0.080440 0.326520 -0.511312
O7    O     O_R   0.054690 0.580440 0.673480 -0.510646
O8    O     O_R   0.945310 0.580440 0.326520 -0.511311
O9    O     O_R   0.543980 0.282110 0.666770 -0.517281
O10   O     O_R   0.456020 0.282110 0.333230 -0.522791
O11   O     O_R   0.043980 0.782110 0.666770 -0.517281
O12   O     O_R   0.956020 0.782110 0.333230 -0.522791
O13   O     O_R   0.679070 0.374030 0.674430 -0.501165
O14   O     O_R   0.320930 0.374030 0.325570 -0.505674
O15   O     O_R   0.179070 0.874030 0.674430 -0.501165
O16   O     O_R   0.820930 0.874030 0.325570 -0.505674
O17   O     O_3   0.665360 0.165350 0.749070 -0.277179
O18   O     O_3   0.334640 0.165350 0.250930 -0.270571
O19   O     O_3   0.165360 0.665350 0.749070 -0.277178
O20   O     O_3   0.834640 0.665350 0.250930 -0.270571
O21   O     O_R   0.762610 0.041070 0.825230 -0.513683
O22   O     O_R   0.237390 0.041070 0.174770 -0.502642
O23   O     O_R   0.262610 0.541070 0.825230 -0.513678
O24   O     O_R   0.737390 0.541070 0.174770 -0.502643
O25   O     O_R   0.667390 0.924160 0.829970 -0.483956
O26   O     O_R   0.332610 0.924160 0.170030 -0.500053
O27   O     O_R   0.167390 0.424160 0.829970 -0.483988
O28   O     O_R   0.832610 0.424160 0.170030 -0.500051
O29   O     O_R   0.553980 0.081420 0.821780 -0.521681
O30   O     O_R   0.446020 0.081420 0.178220 -0.514940
O31   O     O_R   0.053980 0.581420 0.821780 -0.521687
O32   O     O_R   0.946020 0.581420 0.178220 -0.514939
O33   O     O_R   0.543210 0.283170 0.826740 -0.526995
O34   O     O_R   0.456790 0.283170 0.173260 -0.513193
O35   O     O_R   0.043210 0.783170 0.826740 -0.526995
O36   O     O_R   0.956790 0.783170 0.173260 -0.513194
O37   O     O_R   0.678350 0.375000 0.822720 -0.488333
O38   O     O_R   0.321650 0.375000 0.177280 -0.485867
O39   O     O_R   0.178350 0.875000 0.822720 -0.488334
O40   O     O_R   0.821650 0.875000 0.177280 -0.485867
O41   O     O_R   0.785060 0.289300 0.670580 -0.515298
O42   O     O_R   0.214940 0.289300 0.329420 -0.521748
O43   O     O_R   0.285060 0.789300 0.670580 -0.515297
O44   O     O_R   0.714940 0.789300 0.329420 -0.521748
O45   O     O_R   0.763330 0.040090 0.676940 -0.503111
O46   O     O_R   0.236670 0.040090 0.323060 -0.505097
O47   O     O_R   0.263330 0.540090 0.676940 -0.503110
O48   O     O_R   0.736670 0.540090 0.323060 -0.505096
O49   O     O_R   0.668160 0.923110 0.670000 -0.517929
O50   O     O_R   0.331840 0.923110 0.330000 -0.515547
O51   O     O_R   0.168160 0.423110 0.670000 -0.517929
O52   O     O_R   0.831840 0.423110 0.330000 -0.515547
C113  C     C_3   0.856175 0.248072 0.942621 -0.237445
C114  C     C_3   0.914213 0.204933 0.990786 -0.328153
C115  C     C_3   0.976442 0.166267 0.947967 -0.461039
H61   H     H_    0.965201 0.083798 0.916700 0.142445
H62   H     H_    0.992261 0.238708 0.910217 0.178067
H63   H     H_    0.018663 0.146251 0.985860 0.186142
H64   H     H_    0.929637 0.280039 0.025799 0.190098
H65   H     H_    0.897709 0.124861 0.021908 0.221391
H66   H     H_    0.838499 0.168824 0.911666 0.199866
H67   H     H_    0.880835 0.315485 0.906085 0.167444
C116  C     C_3   0.115599 0.376452 0.102007 -0.236923
C117  C     C_3   0.042744 0.418051 0.091614 -0.349691
C118  C     C_3   0.996069 0.347038 0.143151 -0.390023
H68   H     H_    0.000913 0.247610 0.135425 0.149020
H69   H     H_    0.008865 0.369573 0.199209 0.160407
H70   H     H_    0.942048 0.370183 0.132265 0.231529
H71   H     H_    0.043349 0.515438 0.103923 0.198618
H72   H     H_    0.023146 0.403040 0.037615 0.157561
H73   H     H_    0.115460 0.275694 0.098205 0.195771
H74   H     H_    0.125705 0.408458 0.157163 0.174309
C119  C     C_3   0.356176 0.748072 0.942623 -0.237443
C120  C     C_3   0.414214 0.704937 0.990790 -0.328153
C121  C     C_3   0.476447 0.666276 0.947976 -0.461050
H75   H     H_    0.465218 0.583785 0.916726 0.142447
H76   H     H_    0.492256 0.738702 0.910212 0.178070
H77   H     H_    0.518672 0.646300 0.985870 0.186137
H78   H     H_    0.429633 0.780046 0.025803 0.190098
H79   H     H_    0.397711 0.624865 0.021912 0.221396
H80   H     H_    0.338503 0.668824 0.911666 0.199864
H81   H     H_    0.380835 0.815486 0.906088 0.167440
C122  C     C_3   0.615598 0.876451 0.102006 -0.236939
C123  C     C_3   0.542743 0.918051 0.091616 -0.349697
C124  C     C_3   0.496071 0.847037 0.143155 -0.390024
H82   H     H_    0.500914 0.747610 0.135429 0.149017
H83   H     H_    0.508867 0.869574 0.199212 0.160405
H84   H     H_    0.442049 0.870182 0.132271 0.231533
H85   H     H_    0.543349 0.015438 0.103925 0.198622
H86   H     H_    0.523144 0.903039 0.037618 0.157551
H87   H     H_    0.615460 0.775693 0.098204 0.195755
H88   H     H_    0.625706 0.908457 0.157162 0.174319
C125  C     C_2   0.796067 0.208633 0.097396 0.227409
H89   H     H_    0.751196 0.152572 0.109604 0.095393
O53   O     O_2   0.850046 0.192730 0.129952 -0.530669
C126  C     C_2   0.110410 0.361348 0.947637 0.247867
H90   H     H_    0.065351 0.402965 0.924531 0.099216
O54   O     O_2   0.120623 0.253461 0.939498 -0.539672
C127  C     C_2   0.296066 0.708632 0.097400 0.227411
H91   H     H_    0.251195 0.652573 0.109611 0.095392
O55   O     O_2   0.350046 0.692728 0.129954 -0.530671
C128  C     C_2   0.610408 0.861350 0.947636 0.247870
H92   H     H_    0.565341 0.902968 0.924548 0.099200
O56   O     O_2   0.620627 0.753473 0.939471 -0.539650

loop_
_geom_bond_atom_site_label_1
_geom_bond_atom_site_label_2
_ccdc_geom_bond_type
C58   C62   A    
C117  H72   S    
C97   O41   A    
C4    C109  S    
Cr12  O36   S    
C67   C83   A    
C46   O34   A    
Cr3   O23   S    
C22   H46   S    
C127  O55   D    
Cr9   O37   S    
C45   O33   A    
C41   C42   A    
C14   C18   A    
C39   C51   S    
C120  H78   S    
C34   C93   S    
Cr5   O5    S    
C121  H77   S    
C53   C69   A    
C33   C94   S    
C124  H82   S    
C104  H39   S    
C48   O32   A    
Cr7   O7    S    
C51   H5    S    
C9    C25   S    
C113  H66   S    
C63   C79   S    
C35   C96   S    
C42   H58   S    
C114  H65   S    
Cr7   O31   S    
C49   H7    S    
C122  H87   S    
C103  H40   S    
Cr9   O13   S    
C81   C97   S    
Cr1   O45   S    
Cr4   O44   S    
C33   C42   A    
C13   C29   A    
C101  H38   S    
C56   C60   A    
C115  H61   S    
C27   H55   S    
C55   C90   S    
C55   C59   A    
C8    C112  A    
C1    C112  S    
C48   O36   A    
C128  H92   S    
C25   H53   S    
C80   H36   S    
C66   C82   A    
Cr5   O49   S    
C26   H50   S    
C3    C110  S    
C89   O49   A    
C66   H14   S    
C32   C88   S    
C91   O51   A    
C65   C69   A    
Cr3   O3    S    
Cr7   O27   S    
C90   O50   A    
C102  C105  D    
C119  C120  S    
C21   H45   S    
C57   C73   S    
C57   C61   A    
C100  O44   A    
C10   C30   A    
Cr10  O14   S    
C64   C84   A    
Cr2   O46   S    
Cr11  O35   S    
C77   H29   S    
C15   C19   A    
C51   H11   S    
C78   H34   S    
Cr12  O40   S    
C61   C77   S    
C56   C72   A    
C47   O31   A    
C123  H85   S    
C45   O29   A    
C107  C108  S    
Cr2   O18   S    
C80   H32   S    
C103  C108  D    
C2    O22   A    
Cr1   O17   S    
C30   C86   S    
C67   H15   S    
C44   H60   S    
Cr3   O47   S    
C15   C119  S    
C125  O53   D    
C95   O7    A    
Cr12  O20   S    
C65   H13   S    
C116  H74   S    
C10   C26   S    
C6    C22   S    
C85   O37   A    
C62   C82   A    
C11   C31   A    
C83   C99   S    
C125  H89   S    
C12   C32   A    
Cr3   O19   S    
C64   C80   S    
C47   C103  S    
C41   H57   S    
Cr6   O18   S    
C34   C41   A    
C78   H30   S    
Cr8   O28   S    
C14   C30   A    
Cr5   O17   S    
C46   C102  S    
Cr11  O11   S    
C34   C38   A    
Cr4   O20   S    
C62   C78   S    
C4    O24   A    
C26   H54   S    
C3    O27   A    
C2    C111  S    
C120  H79   S    
C122  H88   S    
C2    O26   A    
C31   C87   S    
C98   O14   A    
C123  H86   S    
C1    O25   A    
C51   C52   S    
C68   C84   A    
C97   O13   A    
C36   C40   A    
C119  H80   S    
C126  H90   S    
C115  H62   S    
C21   C25   S    
C50   H10   S    
C27   H51   S    
C39   C40   A    
Cr2   O2    S    
C53   C57   A    
C117  H71   S    
C28   H52   S    
C87   O3    A    
C7    C111  A    
C52   H12   S    
C75   H23   S    
C40   C52   S    
C106  H2    S    
C47   O35   A    
C114  H64   S    
C92   O52   A    
C33   C37   A    
C99   O43   A    
Cr2   O22   S    
C73   H21   S    
C68   C72   A    
C46   O30   A    
Cr1   O21   S    
C61   C81   A    
C6    C110  A    
C96   O12   A    
C7    C11   A    
C43   C44   A    
C94   O6    A    
Cr3   O43   S    
C37   C38   A    
Cr2   O42   S    
Cr4   O4    S    
C63   C83   A    
Cr6   O50   S    
Cr6   O26   S    
Cr1   O41   S    
C54   C70   A    
C11   C27   S    
C8    C12   A    
Cr1   O1    S    
Cr12  O12   S    
C53   C92   S    
C88   O40   A    
C118  H68   S    
Cr7   O19   S    
Cr6   O30   S    
C76   H28   S    
C16   C20   A    
C108  H4    S    
Cr5   O29   S    
C35   C44   A    
C28   H56   S    
C77   H33   S    
C37   C49   S    
Cr4   O24   S    
C50   H8    S    
C18   C126  S    
C100  O16   A    
Cr7   O51   S    
C56   C89   S    
C12   C28   S    
Cr4   O48   S    
C86   O2    A    
C118  H69   S    
C23   C27   S    
C124  H83   S    
Cr10  O38   S    
Cr8   O20   S    
C82   C98   S    
C75   H27   S    
C68   H16   S    
C52   H6    S    
Cr8   O32   S    
C99   O15   A    
C121  H75   S    
Cr9   O9    S    
C59   C75   S    
C20   C128  S    
C45   C101  S    
C1    O21   A    
C117  C118  S    
C58   C74   S    
C24   C28   S    
C71   H19   S    
C14   C116  S    
C54   C58   A    
Cr11  O15   S    
C101  C106  D    
C72   H20   S    
C49   H9    S    
C114  C115  S    
C118  H70   S    
C95   O11   A    
Cr10  O34   S    
C85   O1    A    
C73   H25   S    
C94   O10   A    
C29   C85   S    
C74   H22   S    
C93   O9    A    
C119  H81   S    
C76   C80   S    
C126  O54   D    
C19   C111  A    
C121  H76   S    
C17   C109  A    
Cr10  O10   S    
C70   H18   S    
C13   C113  S    
C116  C117  S    
C15   C31   A    
C38   C50   S    
C93   O5    A    
C16   C32   A    
Cr9   O33   S    
C19   C127  S    
C105  C106  S    
Cr12  O16   S    
C59   C63   A    
Cr11  O39   S    
C4    O28   A    
C105  H1    S    
C107  H3    S    
C60   C64   A    
C122  C123  S    
C3    O23   A    
C96   O8    A    
Cr8   O8    S    
C120  C121  S    
C87   O39   A    
C74   H26   S    
C22   H44   S    
C54   C91   S    
C79   H31   S    
Cr8   O52   S    
C128  O56   D    
C9    C29   A    
Cr6   O6    S    
C36   C95   S    
Cr10  O18   S    
C66   C70   A    
C5    C109  A    
C102  H37   S    
C7    C23   S    
C35   C39   A    
C69   H17   S    
C79   H35   S    
C43   H59   S    
C8    C24   S    
C60   C76   S    
C113  H67   S    
C115  H63   S    
C67   C71   A    
C21   H43   S    
Cr5   O25   S    
C24   H42   S    
C24   H48   S    
C17   C125  S    
C124  H84   S    
C16   C122  S    
C84   C100  S    
C6    C10   A    
Cr9   O17   S    
C13   C17   A    
C25   H49   S    
C88   O4    A    
C5    C21   S    
C123  C124  S    
C76   H24   S    
C73   C77   S    
C18   C110  A    
C49   C50   S    
C22   C26   S    
C20   C112  A    
C91   O47   A    
C127  H91   S    
C23   H41   S    
C92   O48   A    
C65   C81   A    
C90   O46   A    
C36   C43   A    
C74   C78   S    
C5    C9    A    
C86   O38   A    
Cr11  O19   S    
C89   O45   A    
C113  C114  S    
C75   C79   S    
C104  C107  D    
C55   C71   A    
C116  H73   S    
C98   O42   A    
C23   H47   S    
C48   C104  S    
