data_mof_unit_13929.cif
_audit_creation_date              2012-12-10T19:00:48-0500
_audit_creation_method            fapswitch 2.2
_symmetry_space_group_name_H-M    P1
_symmetry_Int_Tables_number       1
_space_group_crystal_system       triclinic
_cell_length_a                    15.050669
_cell_length_b                    10.857193
_cell_length_c                    9.569008
_cell_angle_alpha                 90.793242
_cell_angle_beta                  89.542197
_cell_angle_gamma                 91.386673
_cell_volume                      1562.99906616

loop_
_atom_site_label
_atom_site_type_symbol
_atom_type_description
_atom_site_fract_x
_atom_site_fract_y
_atom_site_fract_z
_atom_type_partial_charge
C1    C     C_R   0.497512 0.262509 0.498993 0.818622
C2    C     C_R   0.907159 0.536186 0.618157 0.116315
C3    C     C_R   0.951822 0.397214 0.267518 -0.247600
C4    C     C_R   0.044919 0.393886 0.265602 0.088399
C5    C     C_R   0.093041 0.442641 0.381992 0.080461
C6    C     C_R   0.046471 0.489178 0.500003 0.031876
C7    C     C_R   0.092932 0.534838 0.618588 0.109535
C8    C     C_R   0.046396 0.579239 0.735490 -0.199474
C9    C     C_R   0.953973 0.579992 0.735245 -0.220641
C10   C     C_R   0.186250 0.446845 0.384386 -0.249175
C11   C     C_R   0.231898 0.494020 0.501127 -0.065884
C12   C     C_R   0.328736 0.498426 0.500417 0.843959
C13   C     C_R   0.185322 0.536209 0.618419 -0.191943
C14   C     C_R   0.466454 0.065686 0.617584 0.120666
C15   C     C_R   0.487094 0.129570 0.495920 -0.110716
C16   C     C_R   0.494142 0.062727 0.369753 -0.206749
C17   C     C_R   0.494625 0.934259 0.371330 -0.195182
C18   C     C_R   0.488370 0.871141 0.498966 -0.147609
C19   C     C_R   0.466633 0.938769 0.619490 0.145404
C20   C     C_3   0.503948 0.939693 0.763715 0.046437
C21   C     C_3   0.503772 0.079219 0.760693 -0.453847
C22   C     C_R   0.572536 0.544320 0.073223 0.202566
C23   C     C_R   0.497795 0.737843 0.500571 0.788170
C24   C     C_R   0.435059 0.440365 0.075682 -0.087293
C25   C     C_R   0.435262 0.438389 0.927606 0.335164
C26   C     C_R   0.572586 0.542436 0.925949 0.177058
C27   C     C_3   0.614345 0.666446 0.916920 -0.514398
C28   C     C_3   0.612663 0.672754 0.076261 -0.123829
C29   C     C_R   0.671206 0.498474 0.499639 0.794283
C30   C     C_R   0.814755 0.537962 0.616981 -0.250285
C31   C     C_R   0.767881 0.494887 0.499642 -0.059287
C32   C     C_R   0.813473 0.447306 0.383586 -0.257658
C33   C     C_R   0.906126 0.445012 0.383003 0.075417
C34   C     C_R   0.953312 0.490094 0.500252 0.059092
Cu1   Cu    Cu3+1 0.500000 0.499980 0.640670 0.997717
Cu2   Cu    Cu3+1 0.500000 0.500020 0.359330 0.950308
H1    H     H_    0.779422 0.574157 0.706897 0.141224
H2    H     H_    0.504679 0.885541 0.273438 0.178201
H3    H     H_    0.572494 0.904635 0.766640 0.111315
H4    H     H_    0.456322 0.121157 0.835677 0.260988
H5    H     H_    0.571650 0.122087 0.760988 0.168076
H6    H     H_    0.382291 0.393084 0.132458 0.160543
H7    H     H_    0.681068 0.663265 0.867150 0.169377
H8    H     H_    0.569020 0.730189 0.868478 0.238614
H9    H     H_    0.776811 0.411207 0.294313 0.145813
H10   H     H_    0.564992 0.741673 0.116221 0.197711
H11   H     H_    0.914542 0.360520 0.179125 0.140402
H12   H     H_    0.224573 0.412882 0.296676 0.159878
H13   H     H_    0.221064 0.572264 0.708701 0.180780
H14   H     H_    0.081547 0.613867 0.826887 0.153856
H15   H     H_    0.919099 0.615125 0.826398 0.138813
H16   H     H_    0.504528 0.109035 0.271212 0.178080
N1    N     N_R   0.500570 0.500930 0.147930 -0.210222
N2    N     N_R   0.500570 0.500890 0.852020 -0.190532
O1    O     O_R   0.500000 0.319640 0.618810 -0.551757
O2    O     O_R   0.500010 0.319680 0.381230 -0.594855
O3    O     O_R   0.370250 0.499950 0.618800 -0.528861
O4    O     O_R   0.370260 0.499990 0.381220 -0.593474
O5    O     O_R   0.499990 0.680320 0.618770 -0.562511
O6    O     O_R   0.500000 0.680360 0.381190 -0.586525
O7    O     O_R   0.629740 0.500010 0.618780 -0.588148
O8    O     O_R   0.629750 0.500050 0.381200 -0.591694
Br1   Br    Br    0.418058 0.872942 0.897639 -0.550822
Br2   Br    Br    0.343567 0.338045 0.843429 -0.573950
C35   C     C_3   0.706829 0.684204 0.140072 -0.354537
C36   C     C_3   0.709301 0.773620 0.265722 -0.342228
C37   C     C_3   0.804030 0.796459 0.317507 -0.849193
H17   H     H_    0.834766 0.708523 0.345809 0.269612
H18   H     H_    0.845190 0.841830 0.235277 0.251865
H19   H     H_    0.802970 0.857617 0.411445 0.242112
H20   H     H_    0.681661 0.863432 0.235593 0.213587
H21   H     H_    0.668386 0.735820 0.352489 0.232673
H22   H     H_    0.730237 0.592655 0.171721 0.206620
H23   H     H_    0.755099 0.720165 0.061111 0.196917
C38   C     C_3   0.089547 0.332990 0.140806 -0.401836
C39   C     C_3   0.117637 0.202344 0.177250 -0.377207
C40   C     C_3   0.165931 0.140828 0.055322 -0.743689
H24   H     H_    0.123818 0.138867 0.960430 0.256462
H25   H     H_    0.229239 0.191424 0.033059 0.285205
H26   H     H_    0.181434 0.044689 0.082803 0.250644
H27   H     H_    0.162192 0.204757 0.269303 0.229306
H28   H     H_    0.057583 0.145584 0.204173 0.225394
H29   H     H_    0.042954 0.326296 0.051181 0.199534
H30   H     H_    0.146943 0.390050 0.103489 0.208559

loop_
_geom_bond_atom_site_label_1
_geom_bond_atom_site_label_2
_ccdc_geom_bond_type
C24   C25   A    
C24   H6    S    
C32   H9    S    
C19   C20   S    
C9    H15   S    
C7    C8    A    
C40   H24   S    
C23   O5    A    
C28   H10   S    
C26   C27   S    
C14   C21   S    
C1    O2    A    
Cu2   O4    S    
C5    C6    A    
C38   H30   S    
C3    C33   A    
C15   C16   A    
C35   H22   S    
Cu1   O5    S    
C18   C19   A    
C4    C38   S    
Cu2   N1    S    
C27   H8    S    
C36   H21   S    
C31   C32   A    
C8    C9    A    
C1    C15   S    
C12   O4    A    
C2    C34   A    
C36   C37   S    
C22   C28   S    
Cu1   N2    S    
Cu2   O8    S    
C26   N2    A    
C33   C34   A    
C22   N1    A    
C40   H25   S    
C23   O6    A    
C29   O7    A    
Cu1   O1    S    
C37   H17   S    
C39   C40   S    
C39   H28   S    
C20   H3    S    
C16   C17   A    
C24   N1    A    
C35   H23   S    
C18   C23   S    
C30   H1    S    
C37   H18   S    
C25   Br2   S    
C38   C39   S    
Cu2   O2    S    
C27   H7    S    
C36   H20   S    
C17   C18   A    
Cu1   O7    S    
C25   N2    A    
C13   H13   S    
C12   O3    A    
C10   H12   S    
C21   H5    S    
C3    C4    A    
C8    H14   S    
C40   H26   S    
C29   O8    A    
C14   C19   A    
C16   H16   S    
C4    C5    A    
Cu2   O6    S    
C39   H27   S    
C11   C12   S    
C6    C7    A    
Cu1   O3    S    
C2    C30   A    
C37   H19   S    
C32   C33   A    
C20   Br1   S    
C28   C35   S    
C1    O1    A    
C5    C10   A    
C29   C31   S    
C11   C13   A    
C38   H29   S    
C30   C31   A    
C21   H4    S    
C3    H11   S    
C17   H2    S    
C10   C11   A    
C6    C34   A    
C7    C13   A    
C20   C21   S    
C35   C36   S    
C22   C26   A    
C27   C28   S    
C14   C15   A    
Cu1   Cu2   S    
C2    C9    A    
