data_mof_unit_62557.cif
_audit_creation_date              2013-03-05T16:11:35-0500
_audit_creation_method            fapswitch 2.2
_symmetry_space_group_name_H-M    P1
_symmetry_Int_Tables_number       1
_space_group_crystal_system       triclinic
_cell_length_a                    6.955276
_cell_length_b                    21.244789
_cell_length_c                    22.913798
_cell_angle_alpha                 92.97741
_cell_angle_beta                  89.09627
_cell_angle_gamma                 89.511944
_cell_volume                      3380.68106944

loop_
_atom_site_label
_atom_site_type_symbol
_atom_site_description
_atom_site_fract_x
_atom_site_fract_y
_atom_site_fract_z
_atom_type_partial_charge
O1    O     O_R   0.494570 0.443040 0.441850 -0.589172
O2    O     O_R   0.823720 0.437670 0.557760 -0.571412
O3    O     O_R   0.994070 0.556960 0.558150 -0.570735
C1    C     C_R   0.654371 0.422791 0.577111 0.966886
O4    O     O_R   0.824280 0.435690 0.442260 -0.592050
O5    O     O_R   0.994640 0.554970 0.441830 -0.588878
C2    C     C_R   0.657170 0.420343 0.422961 1.001703
O6    O     O_R   0.494000 0.445030 0.558170 -0.578208
O7    O     O_3   0.660820 0.539140 0.499990 -0.277909
V1    V     V_3+5 0.935650 0.492740 0.500000 1.198138
O8    O     O_R   0.324360 0.562330 0.442240 -0.591199
C3    C     C_R   0.155968 0.577028 0.422508 0.974023
O9    O     O_R   0.323800 0.564310 0.557740 -0.571339
C4    C     C_R   0.153209 0.582219 0.580002 0.942149
V2    V     V_3+5 0.435660 0.507260 0.500000 1.185682
O10   O     O_3   0.160620 0.460860 0.500010 -0.253827
C5    C     C_1   0.139822 0.633376 0.631300 -0.292646
C6    C     C_1   0.128939 0.675066 0.673613 0.089786
C7    C     C_1   0.115959 0.724840 0.724353 0.010940
C8    C     C_1   0.105118 0.766410 0.766769 0.012962
C9    C     C_1   0.092117 0.816184 0.817509 0.094611
C10   C     C_1   0.081178 0.857873 0.859820 -0.283004
H1    H     H_    0.369823 0.821389 0.229800 0.161400
C11   C     C_R   0.269025 0.745997 0.281233 -0.134604
H2    H     H_    0.394984 0.747141 0.308467 0.136431
C12   C     C_R   0.122130 0.702662 0.290926 0.114710
C13   C     C_R   0.960761 0.702283 0.254805 -0.233043
H3    H     H_    0.846039 0.669160 0.261695 0.164517
C14   C     C_R   0.945994 0.744419 0.209553 0.335644
C15   C     C_R   0.093708 0.787992 0.199912 0.045166
C16   C     C_R   0.254661 0.788325 0.236265 -0.157249
C17   C     C_1   0.136471 0.658685 0.337674 0.023131
C18   C     C_1   0.082300 0.832348 0.153300 0.100100
C19   C     C_1   0.073404 0.869462 0.114591 -0.250525
C20   C     C_1   0.146688 0.621721 0.376477 -0.284786
C21   C     C_R   0.468111 0.248141 0.787158 -0.232100
H4    H     H_    0.352319 0.250937 0.819420 0.189309
C22   C     C_R   0.604509 0.199387 0.787994 -0.048111
C23   C     C_R   0.755222 0.196298 0.746034 0.242669
C24   C     C_R   0.766489 0.241626 0.702809 0.255143
C25   C     C_R   0.628387 0.291076 0.702799 -0.185951
C26   C     C_R   0.479939 0.293933 0.745436 0.373007
C27   C     C_1   0.588978 0.153238 0.832609 0.177351
C28   C     C_1   0.636046 0.337878 0.658457 0.255327
C29   C     C_1   0.643809 0.376708 0.621452 -0.214530
C30   C     C_1   0.577413 0.114683 0.869780 -0.251640
H5    H     H_    0.346403 0.325375 0.266290 0.164802
C31   C     C_R   0.441621 0.246499 0.210721 0.335106
C32   C     C_R   0.589441 0.202020 0.199566 0.052922
C33   C     C_R   0.753112 0.201518 0.234121 -0.160130
H6    H     H_    0.866883 0.166969 0.225328 0.161134
C34   C     C_R   0.770645 0.245898 0.280181 -0.127217
H7    H     H_    0.897791 0.245781 0.306928 0.141804
C35   C     C_R   0.623721 0.290135 0.291355 0.123160
C36   C     C_R   0.459568 0.290707 0.257074 -0.237768
C37   C     C_1   0.576179 0.156457 0.152876 0.081646
C38   C     C_1   0.640637 0.335299 0.338139 0.015964
C39   C     C_1   0.650818 0.373935 0.377248 -0.279997
C40   C     C_1   0.568262 0.117591 0.113894 -0.250580
O11   O     O_R   0.726340 0.046440 0.933120 -0.580975
O12   O     O_R   0.395690 0.055650 0.048950 -0.584813
O13   O     O_R   0.225700 0.936320 0.049330 -0.587711
C41   C     C_R   0.562669 0.071054 0.068292 0.989145
O14   O     O_R   0.396600 0.053690 0.933450 -0.582991
O15   O     O_R   0.226620 0.934340 0.933010 -0.570243
C42   C     C_R   0.566011 0.068673 0.914181 0.976909
O16   O     O_R   0.725420 0.048420 0.049440 -0.590953
O17   O     O_3   0.559650 0.952270 0.991250 -0.270153
V3    V     V_3+5 0.284670 0.998570 0.991180 1.201346
O18   O     O_R   0.896930 0.926880 0.933340 -0.570021
C43   C     C_R   0.067605 0.909028 0.911117 0.945846
O19   O     O_R   0.896010 0.928840 0.048840 -0.581880
C44   C     C_R   0.064377 0.914217 0.068620 0.969534
V4    V     V_3+5 0.784710 0.983880 0.991060 1.198156
O20   O     O_3   0.059600 0.030370 0.991120 -0.257674
Br1   Br    Br    0.215426 0.248430 0.163901 -0.545998
Br2   Br    Br    0.721967 0.740832 0.161810 -0.547887
Br3   Br    Br    0.289491 0.359999 0.748469 -0.463842
Br4   Br    Br    0.952279 0.132340 0.750144 -0.448816
N1    N     N_R   0.916579 0.236948 0.658867 0.262425
O21   O     O_R   0.945975 0.184293 0.628336 -0.319681
O22   O     O_R   0.016873 0.286138 0.646722 -0.358430

loop_
_geom_bond_atom_site_label_1
_geom_bond_atom_site_label_2
_geom_bond_distance
_ccdc_geom_bond_type
C31   C36   1.388625 A    
C12   C17   1.461492 S    
C13   C14   1.408979 A    
C25   C26   1.408965 A    
C31   Br1   1.919503 S    
C21   C26   1.400931 A    
C7    C8    1.279717 T    
C1    O6    1.297442 A    
C28   C29   1.214239 T    
C12   C13   1.404847 A    
C21   H4    1.083735 S    
C11   C12   1.403891 A    
C30   C42   1.448766 S    
O5    C3    1.299816 A    
C22   C23   1.409973 A    
O17   V4    1.708603 S    
V2    O10   2.159478 S    
C6    C7    1.531461 S    
O12   C41   1.288399 A    
O8    V2    1.974197 S    
O17   V3    2.143278 S    
O18   V4    1.899949 S    
C33   C34   1.385769 A    
C24   N1    1.438084 S    
O13   C44   1.299901 A    
O18   C43   1.328731 A    
O1    V2    1.894492 S    
O7    V1    2.143259 S    
C2    C39   1.402172 S    
O11   C42   1.297129 A    
C9    C10   1.279659 T    
C4    C5    1.560008 S    
C34   C35   1.394077 A    
C33   H6    1.084075 S    
C1    C29   1.448584 S    
C41   O16   1.285659 A    
V4    O20   2.159424 S    
C17   C20   1.218971 T    
C11   H2    1.083318 S    
O19   V4    1.974123 S    
C23   C24   1.418585 A    
O4    C2    1.288600 A    
N1    O21   1.301113 A    
H1    C16   1.083335 S    
O15   C43   1.328024 A    
O13   V3    1.966637 S    
O14   C42   1.299707 A    
O2    C1    1.299360 A    
C14   C15   1.411218 A    
C5    C6    1.279660 T    
O16   V4    1.903144 S    
O14   V3    1.967520 S    
C3    C20   1.457159 S    
O3    C4    1.327966 A    
N1    O22   1.301019 A    
C31   C32   1.401912 A    
C26   Br3   1.919562 S    
O6    V2    1.969793 S    
O9    V2    1.899898 S    
C25   C28   1.458743 S    
O2    V1    1.967326 S    
C10   C43   1.560003 S    
C34   H7    1.083923 S    
H5    C36   1.084114 S    
O12   V3    1.923663 S    
C35   C36   1.396338 A    
C24   C25   1.417452 A    
C15   C18   1.463206 S    
O1    C2    1.285467 A    
O19   C44   1.303244 A    
O5    V1    1.966687 S    
O8    C3    1.303386 A    
C32   C37   1.409662 S    
C40   C41   1.401948 S    
C37   C40   1.186741 T    
C21   C22   1.399672 A    
O7    V2    1.711520 S    
C11   C16   1.406501 A    
C22   C27   1.456182 S    
O3    V1    1.907769 S    
V1    O10   1.699724 S    
C38   C39   1.186748 T    
C15   C16   1.405729 A    
O15   V3    1.907629 S    
O11   V4    1.971032 S    
C18   C19   1.218935 T    
V3    O20   1.699740 S    
C27   C30   1.214194 T    
C19   C44   1.456946 S    
O4    V1    1.923844 S    
C14   Br2   1.917710 S    
C8    C9    1.531462 S    
C32   C33   1.397153 A    
C13   H3    1.083476 S    
O9    C4    1.328848 A    
C23   Br4   1.928539 S    
C35   C38   1.408103 S    
