data_mof_unit_21715.cif
_audit_creation_date              2012-12-10T18:24:00-0500
_audit_creation_method            fapswitch 2.2
_symmetry_space_group_name_H-M    P1
_symmetry_Int_Tables_number       1
_space_group_crystal_system       triclinic
_cell_length_a                    22.506211
_cell_length_b                    22.503584
_cell_length_c                    14.674354
_cell_angle_alpha                 89.995676
_cell_angle_beta                  90.117366
_cell_angle_gamma                 89.999597
_cell_volume                      7432.11046926

loop_
_atom_site_label
_atom_site_type_symbol
_atom_type_description
_atom_site_fract_x
_atom_site_fract_y
_atom_site_fract_z
_atom_type_partial_charge
C1    C     C_R   0.419827 0.919820 0.499934 0.820151
C2    C     C_R   0.580173 0.080181 0.500066 0.819555
C3    C     C_R   0.580180 0.919827 0.500072 0.819493
C4    C     C_R   0.419826 0.080179 0.499930 0.820255
C5    C     C_R   0.919828 0.419818 0.499935 0.819494
C6    C     C_R   0.080173 0.580181 0.500066 0.820332
C7    C     C_R   0.080175 0.419822 0.500070 0.820086
C8    C     C_R   0.919821 0.580174 0.499929 0.819539
C9    C     C_1   0.337602 0.162472 0.499966 -0.014148
C10   C     C_1   0.662436 0.837565 0.500068 -0.015946
C11   C     C_1   0.662412 0.162459 0.500011 -0.015360
C12   C     C_1   0.337593 0.837539 0.499992 -0.014820
C13   C     C_1   0.837576 0.662447 0.499962 -0.015777
C14   C     C_1   0.162403 0.337534 0.500031 -0.014936
C15   C     C_1   0.162405 0.662466 0.500018 -0.013969
C16   C     C_1   0.837593 0.337537 0.499998 -0.015465
C17   C     C_1   0.499972 0.999963 0.194591 0.182989
C18   C     C_1   0.500101 0.999988 0.805409 0.182731
C19   C     C_1   0.999896 0.500005 0.194595 0.182698
C20   C     C_1   0.000026 0.499971 0.805405 0.181698
C21   C     C_3   0.526558 0.049482 0.969786 0.205871
C22   C     C_3   0.473658 0.950380 0.030217 0.206025
C23   C     C_3   0.470507 0.047436 0.030237 0.227664
C24   C     C_3   0.529894 0.952191 0.969828 0.181878
C25   C     C_3   0.026951 0.549052 0.969784 0.223407
C26   C     C_3   0.972752 0.450814 0.030251 0.200595
C27   C     C_3   0.970750 0.548094 0.030198 0.186216
C28   C     C_3   0.028851 0.451940 0.969758 0.210727
C29   C     C_3   0.702885 0.730481 0.546267 0.205109
C30   C     C_3   0.295844 0.268277 0.449706 0.205264
C31   C     C_3   0.298132 0.729460 0.457386 0.205281
C32   C     C_3   0.700794 0.271608 0.538295 0.205119
C33   C     C_3   0.204162 0.231732 0.550290 0.205226
C34   C     C_3   0.797134 0.769539 0.453789 0.204845
C35   C     C_3   0.799211 0.228387 0.461719 0.205209
C36   C     C_3   0.201865 0.770547 0.542632 0.205356
C37   C     C_3   0.227771 0.200128 0.464652 0.222223
C38   C     C_3   0.771290 0.798882 0.539800 0.222405
C39   C     C_3   0.769120 0.203250 0.547601 0.222008
C40   C     C_3   0.229686 0.797952 0.456574 0.221807
C41   C     C_3   0.728730 0.701138 0.460268 0.222186
C42   C     C_3   0.272235 0.299882 0.535345 0.222062
C43   C     C_3   0.270311 0.702054 0.543444 0.221925
C44   C     C_3   0.730885 0.296746 0.452412 0.222027
C45   C     C_1   0.375193 0.124841 0.499845 -0.163788
C46   C     C_1   0.624830 0.875182 0.500168 -0.167687
C47   C     C_1   0.624810 0.124838 0.500139 -0.166001
C48   C     C_1   0.375191 0.875162 0.499862 -0.165238
C49   C     C_1   0.875177 0.624825 0.499842 -0.167377
C50   C     C_1   0.124809 0.375163 0.500154 -0.165438
C51   C     C_1   0.124807 0.624841 0.500142 -0.163492
C52   C     C_1   0.875193 0.375159 0.499864 -0.166384
C53   C     C_3   0.268039 0.240115 0.586602 -0.096072
C54   C     C_3   0.734257 0.762203 0.413081 -0.094439
C55   C     C_3   0.738527 0.233566 0.413134 -0.095470
C56   C     C_3   0.263773 0.764141 0.587051 -0.095124
C57   C     C_3   0.765761 0.737811 0.586981 -0.094054
C58   C     C_3   0.231966 0.259894 0.413394 -0.095152
C59   C     C_3   0.236225 0.735866 0.412967 -0.096192
C60   C     C_3   0.761478 0.266429 0.586879 -0.095442
C61   C     C_3   0.291960 0.208170 0.500356 -0.073658
C62   C     C_3   0.708085 0.791874 0.499689 -0.073436
C63   C     C_3   0.708078 0.208133 0.499620 -0.073208
C64   C     C_3   0.291935 0.791857 0.500386 -0.073547
C65   C     C_3   0.791932 0.708143 0.500366 -0.073531
C66   C     C_3   0.208046 0.291839 0.499640 -0.073543
C67   C     C_3   0.208062 0.708149 0.499630 -0.073628
C68   C     C_3   0.791927 0.291862 0.500393 -0.073183
C69   C     C_3   0.556295 0.001799 0.030618 0.183362
C70   C     C_3   0.444219 0.998040 0.969321 0.228211
C71   C     C_3   0.055793 0.501005 0.030664 0.228883
C72   C     C_3   0.943714 0.498848 0.969364 0.182496
C73   C     C_3   0.500015 0.999887 0.092603 -0.217353
C74   C     C_3   0.500216 0.999968 0.907398 -0.217488
C75   C     C_3   0.999777 0.500007 0.092617 -0.218045
C76   C     C_3   0.999981 0.499920 0.907383 -0.217521
Cu1   Cu    Cu3+1 0.500000 1.000000 0.590220 0.985478
Cu2   Cu    Cu3+1 0.500000 1.000000 0.409780 0.985760
Cu3   Cu    Cu3+1 0.000000 0.500000 0.590220 0.985575
Cu4   Cu    Cu3+1 1.000000 0.500000 0.409780 0.985514
N1    N     N_1   0.499980 1.000000 0.274190 -0.155761
N2    N     N_1   0.500020 1.000000 0.725810 -0.155695
N3    N     N_1   0.999980 0.500000 0.274190 -0.155638
N4    N     N_1   0.000020 0.500000 0.725810 -0.155734
O1    O     O_R   0.439540 0.939530 0.576170 -0.569789
O2    O     O_R   0.560460 0.060470 0.423830 -0.568584
O3    O     O_R   0.560460 0.939530 0.423830 -0.571935
O4    O     O_R   0.439540 0.060470 0.576170 -0.567106
O5    O     O_R   0.939540 0.439530 0.576170 -0.568833
O6    O     O_R   0.060460 0.560470 0.423830 -0.566648
O7    O     O_R   0.060460 0.439530 0.423830 -0.570321
O8    O     O_R   0.939540 0.560470 0.576170 -0.572064
O9    O     O_R   0.439530 0.939530 0.423800 -0.570564
O10   O     O_R   0.560470 0.060470 0.576200 -0.573449
O11   O     O_R   0.560470 0.939530 0.576200 -0.572832
O12   O     O_R   0.439530 0.060470 0.423800 -0.570947
O13   O     O_R   0.939530 0.439530 0.423800 -0.574156
O14   O     O_R   0.060470 0.560470 0.576200 -0.570863
O15   O     O_R   0.060470 0.439530 0.576200 -0.570373
O16   O     O_R   0.939530 0.560470 0.423800 -0.571938
N5    N     N_2   0.384020 0.997154 0.934114 -0.427521
H1    H     H_    0.378162 0.968811 0.879696 0.252423
C77   C     C_3   0.337197 0.993671 0.001266 -0.629047
H2    H     H_    0.293622 0.000432 0.967255 0.218229
H3    H     H_    0.342615 0.028648 0.053874 0.259293
H4    H     H_    0.337056 0.949423 0.034565 0.245388
N6    N     N_2   0.616257 0.004276 0.066713 -0.413347
H5    H     H_    0.623537 0.974890 0.119428 0.257852
C78   C     C_3   0.663995 0.005516 0.000766 -0.680297
H6    H     H_    0.706477 0.015252 0.036297 0.231351
H7    H     H_    0.656621 0.040487 0.948943 0.235664
H8    H     H_    0.668276 0.962117 0.965850 0.224443
N7    N     N_2   0.883688 0.496729 0.933512 -0.413568
H9    H     H_    0.876879 0.524395 0.878511 0.256488
C79   C     C_3   0.836031 0.498433 0.999530 -0.681914
H10   H     H_    0.794057 0.484257 0.966188 0.232567
H11   H     H_    0.829841 0.544085 0.026105 0.225838
H12   H     H_    0.844942 0.468045 0.057367 0.234021
N8    N     N_2   0.116010 0.502847 0.065683 -0.426815
H13   H     H_    0.123068 0.475163 0.120576 0.251484
C80   C     C_3   0.162812 0.500502 0.998385 -0.631686
H14   H     H_    0.205950 0.510812 0.031592 0.219144
H15   H     H_    0.155119 0.533636 0.943629 0.258817
H16   H     H_    0.165612 0.455474 0.967952 0.245207
N9    N     N_2   0.206232 0.144922 0.425911 -0.417413
H17   H     H_    0.219290 0.107809 0.461888 0.246757
C81   C     C_3   0.144206 0.143980 0.400050 -0.644846
H18   H     H_    0.134415 0.102024 0.363183 0.217346
H19   H     H_    0.133525 0.181636 0.354119 0.240631
H20   H     H_    0.115469 0.146192 0.461289 0.243700
N10   N     N_2   0.791759 0.852996 0.583249 -0.418791
H21   H     H_    0.779766 0.891033 0.548704 0.246309
C82   C     C_3   0.852994 0.853109 0.613284 -0.648192
H22   H     H_    0.861887 0.894269 0.652709 0.216794
H23   H     H_    0.883464 0.851938 0.553982 0.244546
H24   H     H_    0.862185 0.814521 0.658129 0.240523
N11   N     N_2   0.787249 0.151457 0.599365 -0.418794
H25   H     H_    0.776772 0.111810 0.568087 0.246698
C83   C     C_3   0.846904 0.152894 0.636082 -0.646647
H26   H     H_    0.853617 0.113988 0.681459 0.217392
H27   H     H_    0.854232 0.193759 0.676785 0.240315
H28   H     H_    0.880106 0.150820 0.580399 0.244258
N12   N     N_2   0.210251 0.851052 0.409227 -0.417143
H29   H     H_    0.221593 0.889852 0.442249 0.247228
C84   C     C_3   0.149670 0.850542 0.376220 -0.643359
H30   H     H_    0.141810 0.890581 0.333681 0.218013
H31   H     H_    0.117985 0.851177 0.434026 0.243564
H32   H     H_    0.141205 0.810749 0.333575 0.240561
N13   N     N_2   0.708228 0.647038 0.416816 -0.418778
H33   H     H_    0.720361 0.608979 0.451190 0.246271
C85   C     C_3   0.646914 0.646864 0.387172 -0.647462
H34   H     H_    0.638123 0.605988 0.347008 0.216868
H35   H     H_    0.637384 0.685781 0.343163 0.240328
H36   H     H_    0.616615 0.647373 0.446704 0.244329
N14   N     N_2   0.293772 0.355087 0.574091 -0.417513
H37   H     H_    0.280717 0.392201 0.538111 0.246727
C86   C     C_3   0.355794 0.356027 0.599969 -0.644982
H38   H     H_    0.365585 0.397987 0.636825 0.217327
H39   H     H_    0.384539 0.353803 0.538739 0.243807
H40   H     H_    0.366466 0.318376 0.645915 0.240616
N15   N     N_2   0.289746 0.648951 0.590782 -0.416933
H41   H     H_    0.278414 0.610155 0.557741 0.247191
C87   C     C_3   0.350322 0.649463 0.623808 -0.643458
H42   H     H_    0.358197 0.609393 0.666273 0.218023
H43   H     H_    0.358760 0.689224 0.666535 0.240495
H44   H     H_    0.382015 0.648891 0.566012 0.243468
N16   N     N_2   0.712763 0.348549 0.400664 -0.418808
H45   H     H_    0.723198 0.388187 0.432002 0.246684
C88   C     C_3   0.653132 0.347096 0.363856 -0.646775
H46   H     H_    0.646371 0.386108 0.318712 0.217329
H47   H     H_    0.619890 0.348956 0.419501 0.244376
H48   H     H_    0.645914 0.306326 0.322882 0.240387
N17   N     N_2   0.650156 0.711861 0.595092 -0.419287
H49   H     H_    0.632872 0.744704 0.636203 0.262259
C89   C     C_3   0.653556 0.654831 0.640204 -0.691581
H50   H     H_    0.608267 0.640866 0.660976 0.228140
H51   H     H_    0.681675 0.657968 0.702198 0.233714
H52   H     H_    0.671860 0.620412 0.594094 0.232472
N18   N     N_2   0.347216 0.285576 0.396539 -0.419565
H53   H     H_    0.363443 0.251670 0.356450 0.261964
C90   C     C_3   0.342556 0.341374 0.348181 -0.691977
H54   H     H_    0.387233 0.354743 0.323715 0.227913
H55   H     H_    0.325479 0.376993 0.393244 0.232650
H56   H     H_    0.312800 0.336631 0.288257 0.233872
N19   N     N_2   0.351929 0.709770 0.412435 -0.419627
H57   H     H_    0.370154 0.741671 0.370539 0.261838
C91   C     C_3   0.349520 0.651751 0.370252 -0.692402
H58   H     H_    0.395243 0.637373 0.352586 0.227652
H59   H     H_    0.322771 0.653452 0.306721 0.234181
H60   H     H_    0.330220 0.618376 0.417205 0.232568
N20   N     N_2   0.645862 0.292405 0.578625 -0.419345
H61   H     H_    0.626574 0.261630 0.621370 0.262002
C92   C     C_3   0.647162 0.351516 0.617199 -0.691968
H62   H     H_    0.601018 0.366225 0.631322 0.227915
H63   H     H_    0.667537 0.383653 0.569303 0.232387
H64   H     H_    0.672355 0.351607 0.682258 0.233880
N21   N     N_2   0.152788 0.214430 0.603449 -0.419918
H65   H     H_    0.136540 0.248340 0.643509 0.261992
C93   C     C_3   0.157458 0.158646 0.651841 -0.690771
H66   H     H_    0.112774 0.145243 0.676230 0.227752
H67   H     H_    0.187162 0.163428 0.711819 0.234416
H68   H     H_    0.174603 0.123031 0.606828 0.232742
N22   N     N_2   0.849856 0.788100 0.404886 -0.419131
H69   H     H_    0.866896 0.755303 0.363445 0.262555
C94   C     C_3   0.846600 0.845266 0.360157 -0.691323
H70   H     H_    0.891832 0.858859 0.338520 0.228228
H71   H     H_    0.829050 0.879738 0.406846 0.232509
H72   H     H_    0.817908 0.842562 0.298740 0.233608
N23   N     N_2   0.854141 0.207580 0.421397 -0.419367
H73   H     H_    0.873448 0.238355 0.378672 0.261854
C95   C     C_3   0.852824 0.148475 0.382800 -0.692065
H74   H     H_    0.898967 0.133731 0.368758 0.227857
H75   H     H_    0.827683 0.148415 0.317695 0.233925
H76   H     H_    0.832382 0.116347 0.430645 0.232410
N24   N     N_2   0.148070 0.790238 0.587587 -0.419360
H77   H     H_    0.129855 0.758340 0.629500 0.261873
C96   C     C_3   0.150479 0.848263 0.629751 -0.692936
H78   H     H_    0.104760 0.862626 0.647465 0.227759
H79   H     H_    0.169745 0.881638 0.582767 0.232508
H80   H     H_    0.177258 0.846580 0.693253 0.233873
C97   C     C_1   0.716543 0.775921 0.319062 0.270591
N25   N     N_1   0.702530 0.786746 0.244992 -0.305030
C98   C     C_1   0.288210 0.228877 0.680236 0.274297
N26   N     N_1   0.304158 0.220004 0.754001 -0.296751
C99   C     C_1   0.279349 0.779971 0.681168 0.272829
N27   N     N_1   0.291682 0.792459 0.755318 -0.301533
C100  C     C_1   0.725438 0.215256 0.319190 0.272035
N28   N     N_1   0.715065 0.200817 0.245174 -0.297624
C101  C     C_1   0.211791 0.271134 0.319763 0.272736
N29   N     N_1   0.195839 0.280009 0.246000 -0.301464
C102  C     C_1   0.783459 0.724039 0.680987 0.270688
N30   N     N_1   0.797462 0.713169 0.755047 -0.305169
C103  C     C_1   0.774570 0.284732 0.680825 0.271964
N31   N     N_1   0.784945 0.299164 0.754843 -0.298124
C104  C     C_1   0.220655 0.720042 0.318845 0.274128
N32   N     N_1   0.208328 0.707561 0.244690 -0.295693
N33   N     N_2   0.437634 0.097960 0.064884 -0.431422
H81   H     H_    0.457810 0.118676 0.119377 0.248682
C105  C     C_3   0.414544 0.138714 0.997307 -0.619157
H82   H     H_    0.384573 0.171159 0.030874 0.220307
H83   H     H_    0.388627 0.114673 0.944567 0.263328
H84   H     H_    0.451255 0.163466 0.964227 0.242815
N34   N     N_2   0.561302 0.900970 0.934280 -0.419312
H85   H     H_    0.589838 0.911238 0.881754 0.255837
C106  C     C_3   0.586774 0.860708 0.000670 -0.670048
H86   H     H_    0.602435 0.819968 0.965495 0.230991
H87   H     H_    0.553544 0.847394 0.052265 0.235053
H88   H     H_    0.625130 0.881373 0.035832 0.229697
N35   N     N_2   0.553745 0.103165 0.934605 -0.425170
H89   H     H_    0.580899 0.095961 0.879249 0.250781
C107  C     C_3   0.578858 0.143327 0.001363 -0.644160
H90   H     H_    0.592390 0.185163 0.967122 0.223123
H91   H     H_    0.618567 0.123440 0.034157 0.254655
H92   H     H_    0.545880 0.154565 0.054538 0.231238
N36   N     N_2   0.444144 0.897943 0.065399 -0.424569
H93   H     H_    0.465164 0.879437 0.121015 0.249822
C108  C     C_3   0.424842 0.854668 0.998689 -0.645108
H94   H     H_    0.397540 0.820194 0.032863 0.224983
H95   H     H_    0.463512 0.832693 0.966364 0.246923
H96   H     H_    0.397252 0.875768 0.945152 0.238158
N37   N     N_2   0.939705 0.599420 0.066148 -0.417619
H97   H     H_    0.909570 0.588592 0.116258 0.256764
C109  C     C_3   0.916587 0.641245 0.000049 -0.671370
H98   H     H_    0.894589 0.678552 0.036204 0.230091
H99   H     H_    0.883574 0.619809 0.954643 0.230285
H100  H     H_    0.952762 0.660081 0.958121 0.235507
N38   N     N_2   0.060775 0.400889 0.934782 -0.425655
H101  H     H_    0.041091 0.381889 0.878415 0.251750
C110  C     C_3   0.080579 0.357889 0.001529 -0.642741
H102  H     H_    0.111924 0.326386 0.968830 0.225541
H103  H     H_    0.042377 0.332274 0.028510 0.247170
H104  H     H_    0.104002 0.379933 0.058778 0.236904
N39   N     N_2   0.057177 0.601163 0.934997 -0.429719
H105  H     H_    0.034928 0.621751 0.882311 0.247633
C111  C     C_3   0.080422 0.641834 0.002611 -0.621256
H106  H     H_    0.104992 0.678148 0.968021 0.218674
H107  H     H_    0.111708 0.618809 0.049144 0.265688
H108  H     H_    0.043916 0.661644 0.043160 0.241977
N40   N     N_2   0.944621 0.397544 0.065111 -0.426255
H109  H     H_    0.918447 0.404834 0.121544 0.250158
C112  C     C_3   0.917430 0.358878 0.998202 -0.635226
H110  H     H_    0.906630 0.315635 0.030556 0.221527
H111  H     H_    0.947980 0.350415 0.940492 0.231880
H112  H     H_    0.875715 0.378691 0.971769 0.253746

loop_
_geom_bond_atom_site_label_1
_geom_bond_atom_site_label_2
_ccdc_geom_bond_type
Cu2   O3    S    
C109  H100  S    
Cu1   Cu2   S    
N22   H69   S    
N36   C108  S    
C106  H87   S    
C9    C45   T    
C86   H38   S    
Cu4   O13   S    
N14   C86   S    
C33   C53   S    
C26   C72   S    
C88   H46   S    
C35   N23   S    
Cu3   O14   S    
C11   C47   T    
C105  H82   S    
Cu2   N1    S    
C72   C76   S    
C39   N11   S    
N15   H41   S    
C69   N6    S    
C70   N5    S    
C29   C41   S    
C109  H98   S    
N16   C88   S    
C13   C65   S    
C90   H54   S    
C96   H80   S    
C33   N21   S    
N11   C83   S    
C1    O9    A    
N35   H89   S    
N5    H1    S    
C28   N38   S    
C7    O15   A    
C56   C99   S    
C9    C61   S    
C6    O14   A    
Cu3   O15   S    
C87   H43   S    
C99   N27   T    
C8    O16   A    
C11   C63   S    
N24   C96   S    
C42   C53   S    
C21   N35   S    
Cu3   N4    S    
C23   N33   S    
C83   H28   S    
C27   C75   S    
C107  H91   S    
C41   N13   S    
N21   H65   S    
Cu2   O9    S    
C55   C100  S    
N12   H29   S    
C27   N37   S    
Cu1   O10   S    
C20   C76   S    
C24   N34   S    
N12   C84   S    
C108  H94   S    
C85   H36   S    
C31   C59   S    
N21   C93   S    
C97   N25   T    
C91   H60   S    
C25   N39   S    
C77   H2    S    
N23   C95   S    
C4    O12   A    
C53   C61   S    
C58   C66   S    
C94   H72   S    
C87   H42   S    
Cu1   O4    S    
Cu2   O12   S    
C79   H11   S    
C55   C63   S    
C70   C74   S    
C93   H68   S    
C85   H34   S    
C56   C64   S    
C5    C52   S    
C69   C73   S    
C8    O8    A    
C15   C51   T    
C6    C51   S    
C77   H4    S    
C103  N31   T    
C106  H88   S    
C17   N1    T    
C37   C58   S    
C12   C48   T    
C59   C67   S    
Cu2   O2    S    
C94   H71   S    
Cu1   N2    S    
C15   C67   S    
C93   H66   S    
N5    C77   S    
C40   C59   S    
C2    O2    A    
C110  H102  S    
Cu4   O16   S    
C85   H35   S    
C17   C73   S    
N6    C78   S    
C23   C70   S    
C31   N19   S    
C10   C62   S    
C23   C73   S    
Cu4   N3    S    
C19   N3    T    
C18   N2    T    
C34   C65   S    
C8    C49   S    
C26   N40   S    
N15   C87   S    
C24   C69   S    
C84   H30   S    
C89   H52   S    
C37   N9    S    
C4    C45   S    
N8    C80   S    
C21   C23   S    
C1    O1    A    
N23   H73   S    
C36   C67   S    
N35   C107  S    
C84   H31   S    
C3    O3    A    
N20   H61   S    
N18   C90   S    
C36   C40   S    
C87   H44   S    
C32   C63   S    
C98   N26   T    
C107  H90   S    
C78   H8    S    
C29   N17   S    
N16   H45   S    
N37   C109  S    
C110  H103  S    
C58   C101  S    
C54   C97   S    
C41   C65   S    
C54   C62   S    
C92   H63   S    
C112  H110  S    
N17   H49   S    
C38   C62   S    
C35   C55   S    
C72   N7    S    
Cu1   O11   S    
C20   N4    T    
C33   C37   S    
Cu3   Cu4   S    
C32   N20   S    
C21   C69   S    
C108  H95   S    
C44   N16   S    
N38   H101  S    
C86   H39   S    
C35   C39   S    
N24   H77   S    
C81   H19   S    
C95   H74   S    
C10   C46   T    
C101  N29   T    
C36   C56   S    
C82   H24   S    
C38   C57   S    
N22   C94   S    
C14   C50   T    
C18   C74   S    
C57   C102  S    
C100  N28   T    
C2    O10   A    
C34   N22   S    
C30   N18   S    
C79   H12   S    
C7    O7    A    
C33   C66   S    
C111  H108  S    
N10   C82   S    
N39   H105  S    
C14   C66   S    
C105  H83   S    
C25   C71   S    
C83   H27   S    
N8    H13   S    
N9    C81   S    
C60   C68   S    
C22   N36   S    
N17   C89   S    
C31   C43   S    
C80   H16   S    
C16   C68   S    
C43   N15   S    
C43   C67   S    
C95   H75   S    
C111  H106  S    
C29   C57   S    
C34   C54   S    
C89   H51   S    
N33   C105  S    
C110  H104  S    
N9    H17   S    
C2    C47   S    
C77   H3    S    
C13   C49   T    
C44   C68   S    
C28   C71   S    
C53   C98   S    
C32   C60   S    
N6    H5    S    
N36   H93   S    
C28   C76   S    
N14   H37   S    
C84   H32   S    
C93   H67   S    
N7    H9    S    
C88   H47   S    
C90   H56   S    
C109  H99   S    
C94   H70   S    
C29   C62   S    
Cu3   O8    S    
C21   C74   S    
C111  H107  S    
C34   C38   S    
C40   N12   S    
C112  H112  S    
C31   C64   S    
C59   C104  S    
C60   C103  S    
C16   C52   T    
C7    C50   S    
C57   C65   S    
C107  H92   S    
N10   H21   S    
C37   C61   S    
C83   H26   S    
C80   H14   S    
C1    C48   S    
C81   H18   S    
C4    O4    A    
C86   H40   S    
C112  H111  S    
C39   C63   S    
N11   H25   S    
C3    C46   S    
C26   C28   S    
C40   C64   S    
C71   N8    S    
C108  H96   S    
C38   N10   S    
C25   C76   S    
Cu4   O7    S    
C78   H7    S    
C42   N14   S    
C96   H78   S    
N40   H109  S    
C91   H58   S    
C36   N24   S    
C89   H50   S    
C6    O6    A    
N13   H33   S    
N20   C92   S    
C92   H64   S    
C71   C75   S    
N38   C110  S    
C44   C55   S    
C24   C74   S    
N19   H57   S    
C82   H22   S    
C35   C68   S    
C12   C64   S    
C39   C60   S    
C30   C58   S    
C19   C75   S    
N39   C111  S    
C5    O13   A    
C105  H84   S    
C22   C24   S    
N40   C112  S    
Cu4   O6    S    
C96   H79   S    
N33   H81   S    
C41   C54   S    
C80   H15   S    
N19   C91   S    
C104  N32   T    
Cu1   O1    S    
N18   H53   S    
N13   C85   S    
C43   C56   S    
C90   H55   S    
C95   H76   S    
C32   C44   S    
C26   C75   S    
C92   H62   S    
C30   C61   S    
C78   H6    S    
C102  N30   T    
C42   C66   S    
C82   H23   S    
N37   H97   S    
C30   C42   S    
Cu3   O5    S    
C3    O11   A    
C88   H48   S    
N34   C106  S    
C22   C73   S    
C79   H10   S    
C106  H86   S    
C81   H20   S    
C91   H59   S    
C22   C70   S    
C5    O5    A    
C27   C72   S    
N34   H85   S    
N7    C79   S    
C25   C27   S    
