data_mof_unit_29650.cif
_audit_creation_date              2012-12-11T15:33:44-0500
_audit_creation_method            fapswitch 2.2
_symmetry_space_group_name_H-M    P1
_symmetry_Int_Tables_number       1
_space_group_crystal_system       triclinic
_cell_length_a                    27.235444
_cell_length_b                    7.19424
_cell_length_c                    22.593238
_cell_angle_alpha                 90.000208
_cell_angle_beta                  101.340081
_cell_angle_gamma                 89.999905
_cell_volume                      4340.45664063

loop_
_atom_site_label
_atom_site_type_symbol
_atom_type_description
_atom_site_fract_x
_atom_site_fract_y
_atom_site_fract_z
_atom_type_partial_charge
O1    O     O_R   0.207310 0.594030 0.676830 -0.531636
O2    O     O_R   0.792690 0.405970 0.323170 -0.532067
O3    O     O_R   0.292690 0.094030 0.823170 -0.531637
O4    O     O_R   0.707310 0.905970 0.176830 -0.532064
O5    O     O_R   0.197320 0.262370 0.795700 -0.516864
O6    O     O_R   0.802680 0.737630 0.204300 -0.506521
O7    O     O_R   0.302680 0.762370 0.704300 -0.516865
O8    O     O_R   0.697320 0.237630 0.295700 -0.506521
C1    C     C_R   0.184012 0.431921 0.811173 0.710786
C2    C     C_R   0.816413 0.567816 0.189453 0.717187
C3    C     C_R   0.315989 0.931920 0.688828 0.710785
C4    C     C_R   0.683588 0.067817 0.310548 0.717193
O9    O     O_R   0.201410 0.264250 0.675590 -0.538605
O10   O     O_R   0.798590 0.735750 0.324410 -0.539680
O11   O     O_R   0.298590 0.764250 0.824410 -0.538607
O12   O     O_R   0.701410 0.235750 0.175590 -0.539679
O13   O     O_R   0.296810 0.094940 0.702210 -0.539337
O14   O     O_R   0.703190 0.905060 0.297790 -0.544213
O15   O     O_R   0.203190 0.594940 0.797790 -0.539338
O16   O     O_R   0.796810 0.405060 0.202210 -0.544216
C5    C     C_R   0.189987 0.432516 0.653088 0.681334
C6    C     C_R   0.810274 0.567489 0.346677 0.669962
C7    C     C_R   0.310013 0.932516 0.846911 0.681333
C8    C     C_R   0.689726 0.067488 0.153323 0.669969
O17   O     O_3   0.281300 0.427390 0.758870 -0.376131
O18   O     O_3   0.718700 0.572610 0.241130 -0.371124
O19   O     O_3   0.218700 0.927390 0.741130 -0.376130
O20   O     O_3   0.781300 0.072610 0.258870 -0.371133
V1    V     V_3+5 0.244190 0.152150 0.748350 1.420312
V2    V     V_3+5 0.755810 0.847850 0.251650 1.442466
V3    V     V_3+5 0.255810 0.652150 0.751650 1.420311
V4    V     V_3+5 0.744190 0.347850 0.248350 1.442467
C9    C     C_R   0.654570 0.062839 0.094690 -0.032288
C10   C     C_R   0.344846 0.938121 0.905829 -0.035236
C11   C     C_R   0.845431 0.562842 0.405310 -0.032286
C12   C     C_R   0.155155 0.438119 0.594170 -0.035243
C13   C     C_R   0.638007 0.132020 0.988027 -0.129344
C14   C     C_R   0.360493 0.880027 0.013253 -0.134708
C15   C     C_R   0.861994 0.632037 0.511972 -0.129335
C16   C     C_R   0.139506 0.380000 0.486747 -0.134709
C17   C     C_R   0.671212 0.120379 0.043144 -0.176861
C18   C     C_R   0.327588 0.888067 0.957743 -0.186263
C19   C     C_R   0.828789 0.620387 0.456856 -0.176865
C20   C     C_R   0.172411 0.388045 0.542257 -0.186260
C21   C     C_R   0.603895 0.016638 0.090790 -0.191484
C22   C     C_R   0.395683 0.981389 0.909846 -0.187608
C23   C     C_R   0.896106 0.516644 0.409210 -0.191483
C24   C     C_R   0.104318 0.481401 0.590152 -0.187605
C25   C     C_R   0.568695 0.030201 0.035054 0.054092
C26   C     C_R   0.430381 0.973965 0.966086 0.055085
C27   C     C_R   0.931306 0.530214 0.464946 0.054090
C28   C     C_R   0.069620 0.473971 0.533912 0.055086
C29   C     C_R   0.586910 0.089656 0.983294 0.039098
C30   C     C_R   0.411773 0.920003 0.018096 0.039826
C31   C     C_R   0.913092 0.589677 0.516704 0.039098
C32   C     C_R   0.088227 0.419989 0.481903 0.039824
C33   C     C_R   0.516149 0.991390 0.029233 -0.012661
C34   C     C_R   0.482833 0.014125 0.972122 -0.006620
C35   C     C_R   0.983852 0.491398 0.470766 -0.012661
C36   C     C_R   0.017168 0.514141 0.527876 -0.006620
C37   C     C_R   0.502900 0.077253 0.922803 -0.252851
C38   C     C_R   0.495777 0.932676 0.078865 -0.261451
C39   C     C_R   0.997102 0.577284 0.577195 -0.252853
C40   C     C_R   0.004223 0.432670 0.421135 -0.261439
C41   C     C_R   0.554048 0.108969 0.927401 0.434776
C42   C     C_R   0.444433 0.904524 0.074329 0.439665
C43   C     C_R   0.945954 0.609000 0.572596 0.434777
C44   C     C_R   0.055566 0.404502 0.425671 0.439654
H1    H     H_    0.406938 0.013661 0.867909 0.083397
H2    H     H_    0.593214 0.976743 0.132421 0.087779
H3    H     H_    0.093064 0.513686 0.632089 0.083399
H4    H     H_    0.906787 0.476748 0.367579 0.087775
H5    H     H_    0.288506 0.853242 0.955161 0.114167
H6    H     H_    0.710092 0.158215 0.045728 0.118006
H7    H     H_    0.211492 0.353210 0.544840 0.114167
H8    H     H_    0.789909 0.658221 0.454272 0.118002
H9    H     H_    0.652528 0.177508 0.949117 0.165052
H10   H     H_    0.345588 0.839639 0.052412 0.159455
H11   H     H_    0.847473 0.677530 0.550882 0.165053
H12   H     H_    0.154410 0.339597 0.447589 0.159454
H13   H     H_    0.479706 0.107360 0.879597 0.131173
H14   H     H_    0.518705 0.906655 0.122550 0.136398
H15   H     H_    0.020297 0.607402 0.620399 0.131170
H16   H     H_    0.981295 0.406647 0.377449 0.136399
C45   C     C_R   0.630975 0.888522 0.370163 -0.244333
C46   C     C_R   0.370568 0.111019 0.631066 -0.246376
C47   C     C_R   0.869037 0.388516 0.129853 -0.244346
C48   C     C_R   0.129440 0.611019 0.868945 -0.246379
H17   H     H_    0.653294 0.766226 0.366288 0.191697
H18   H     H_    0.355483 0.239212 0.644918 0.198170
H19   H     H_    0.846721 0.266215 0.133728 0.191705
H20   H     H_    0.144523 0.739212 0.855091 0.198170
C49   C     C_R   0.593523 0.874415 0.404010 -0.194002
C50   C     C_R   0.405564 0.121089 0.593394 -0.226763
C51   C     C_R   0.906496 0.374408 0.096014 -0.194052
C52   C     C_R   0.094449 0.621088 0.906624 -0.226760
H21   H     H_    0.588773 0.742449 0.425266 0.206594
H22   H     H_    0.417373 0.256698 0.581202 0.209947
H23   H     H_    0.911253 0.242434 0.074765 0.206612
H24   H     H_    0.082642 0.756697 0.918820 0.209948
C53   C     C_R   0.564037 0.028395 0.412511 -0.138508
C54   C     C_R   0.424218 0.959881 0.570524 -0.139063
C55   C     C_R   0.935979 0.528393 0.087512 -0.138511
C56   C     C_R   0.075798 0.459880 0.929497 -0.139062
C57   C     C_R   0.570425 0.196894 0.381897 0.347501
C58   C     C_R   0.406925 0.785650 0.587468 0.376042
C59   C     C_R   0.929581 0.696902 0.118115 0.347518
C60   C     C_R   0.093088 0.285649 0.912548 0.376049
C61   C     C_R   0.610133 0.213838 0.349572 0.375824
C62   C     C_R   0.378076 0.775950 0.632860 0.354560
C63   C     C_R   0.889868 0.713847 0.150432 0.375830
C64   C     C_R   0.121930 0.275950 0.867149 0.354556
C65   C     C_R   0.641196 0.058059 0.344173 -0.194053
C66   C     C_R   0.355640 0.939119 0.651118 -0.212298
C67   C     C_R   0.858808 0.558059 0.155834 -0.194047
C68   C     C_R   0.144365 0.439119 0.848888 -0.212297
N1    N     N_R   0.510249 0.163599 0.478980 -0.232656
N2    N     N_R   0.481176 0.824671 0.507838 -0.251709
N3    N     N_R   0.989778 0.663597 0.021055 -0.232649
N4    N     N_R   0.018843 0.324668 0.992188 -0.251689
N5    N     N_R   0.477480 0.147104 0.515444 -0.295195
N6    N     N_R   0.513564 0.841090 0.470917 -0.300716
N7    N     N_R   0.022545 0.647102 0.984591 -0.295203
N8    N     N_R   0.986456 0.341087 0.029109 -0.300698
C69   C     C_R   0.461664 0.977138 0.530240 0.529158
C70   C     C_R   0.528380 0.011079 0.454924 0.529319
C71   C     C_R   0.038357 0.477135 0.969788 0.529151
C72   C     C_R   0.971643 0.511076 0.045106 0.529326
O21   O     O_3   0.571438 0.175880 0.877830 -0.556731
C73   C     C_3   0.571160 0.029896 0.836073 -0.262541
H25   H     H_    0.532309 0.987239 0.815456 0.137100
H26   H     H_    0.593096 0.908085 0.857238 0.144604
H27   H     H_    0.589126 0.080046 0.799048 0.175492
O22   O     O_3   0.426610 0.845339 0.124514 -0.555856
C74   C     C_3   0.427068 0.996786 0.164319 -0.282162
H28   H     H_    0.405250 0.116636 0.141543 0.144122
H29   H     H_    0.465956 0.040566 0.184332 0.137745
H30   H     H_    0.409079 0.952529 0.202010 0.167624
O23   O     O_3   0.928564 0.675922 0.622167 -0.556727
C75   C     C_3   0.928850 0.529957 0.663933 -0.262535
H31   H     H_    0.967704 0.487353 0.684557 0.137098
H32   H     H_    0.906927 0.408110 0.642773 0.144599
H33   H     H_    0.910876 0.580101 0.700951 0.175485
O24   O     O_3   0.073389 0.345299 0.375487 -0.555866
C76   C     C_3   0.072938 0.496741 0.335682 -0.282155
H34   H     H_    0.094762 0.616579 0.358458 0.144124
H35   H     H_    0.034053 0.540547 0.315669 0.137740
H36   H     H_    0.090926 0.452466 0.297992 0.167629
O25   O     O_3   0.541212 0.350978 0.387455 -0.551866
C77   C     C_3   0.492964 0.326983 0.350906 0.075954
H37   H     H_    0.472601 0.209062 0.366769 0.123796
H38   H     H_    0.495207 0.298617 0.303062 0.086738
C78   C     C_3   0.462625 0.504371 0.353738 -0.247429
H39   H     H_    0.459874 0.532057 0.401365 0.229873
H40   H     H_    0.482034 0.623915 0.337221 0.188325
C79   C     C_3   0.409958 0.487667 0.315648 -0.871695
H41   H     H_    0.411743 0.462349 0.267606 0.240826
H42   H     H_    0.389110 0.618848 0.318685 0.234170
H43   H     H_    0.389435 0.371810 0.332433 0.232128
O26   O     O_3   0.419619 0.620905 0.562637 -0.557166
C80   C     C_3   0.388016 0.592708 0.505398 0.110514
H44   H     H_    0.405569 0.482740 0.481965 0.170254
H45   H     H_    0.385253 0.718647 0.476190 0.103797
C81   C     C_3   0.335269 0.527880 0.510791 -0.333674
H46   H     H_    0.337837 0.411611 0.543425 0.223704
H47   H     H_    0.314732 0.644051 0.527373 0.189316
C82   C     C_3   0.305359 0.463476 0.449943 -0.840505
H48   H     H_    0.301871 0.578201 0.416465 0.234455
H49   H     H_    0.267246 0.420572 0.455068 0.232842
H50   H     H_    0.324052 0.342824 0.433064 0.233969
O27   O     O_3   0.958790 0.850994 0.112555 -0.551857
C83   C     C_3   0.007032 0.827048 0.149124 0.075939
H51   H     H_    0.027405 0.709118 0.133283 0.123722
H52   H     H_    0.004775 0.798727 0.196966 0.086809
C84   C     C_3   0.037367 0.004440 0.146285 -0.247391
H53   H     H_    0.040191 0.031928 0.098670 0.229765
H54   H     H_    0.017912 0.124044 0.162697 0.188431
C85   C     C_3   0.089994 0.987923 0.184493 -0.871744
H55   H     H_    0.088131 0.962989 0.232533 0.240878
H56   H     H_    0.110856 0.119037 0.181403 0.234171
H57   H     H_    0.110550 0.871891 0.167855 0.232133
O28   O     O_3   0.080398 0.120904 0.937382 -0.557164
C86   C     C_3   0.112008 0.092708 0.994616 0.110512
H58   H     H_    0.094460 0.982733 0.018052 0.170222
H59   H     H_    0.114773 0.218644 0.023825 0.103789
C87   C     C_3   0.164754 0.027891 0.989213 -0.333674
H60   H     H_    0.162183 0.911618 0.956579 0.223700
H61   H     H_    0.185286 0.144065 0.972624 0.189318
C88   C     C_3   0.194673 0.963501 0.050057 -0.840494
H62   H     H_    0.198165 0.078232 0.083533 0.234450
H63   H     H_    0.232785 0.920602 0.044924 0.232834
H64   H     H_    0.175985 0.842849 0.066943 0.233983
O29   O     O_3   0.623286 0.386714 0.330031 -0.559947
C89   C     C_3   0.588799 0.454767 0.279248 0.120617
H65   H     H_    0.606417 0.579049 0.262955 0.141010
H66   H     H_    0.554532 0.508229 0.292535 0.137987
C90   C     C_3   0.576526 0.317352 0.225941 -0.401132
H67   H     H_    0.611700 0.271388 0.212666 0.209060
H68   H     H_    0.556920 0.193007 0.238975 0.158444
C91   C     C_3   0.542872 0.407795 0.171550 -0.797074
H69   H     H_    0.507061 0.453205 0.183503 0.237873
H70   H     H_    0.534374 0.306054 0.133997 0.239393
H71   H     H_    0.561869 0.529831 0.155947 0.233921
O30   O     O_3   0.369884 0.602618 0.655705 -0.569960
C92   C     C_3   0.400280 0.581146 0.713995 0.112253
H72   H     H_    0.382644 0.472617 0.737909 0.147091
H73   H     H_    0.402124 0.709438 0.742116 0.084016
C93   C     C_3   0.453322 0.516919 0.710380 -0.341753
H74   H     H_    0.451256 0.390468 0.681919 0.224937
H75   H     H_    0.472762 0.627674 0.689582 0.206596
C94   C     C_3   0.483951 0.473032 0.772955 -0.792251
H76   H     H_    0.487213 0.598422 0.802182 0.226010
H77   H     H_    0.522135 0.427720 0.768950 0.257322
H78   H     H_    0.466008 0.359259 0.794300 0.228261
O31   O     O_3   0.876707 0.886726 0.169962 -0.559952
C95   C     C_3   0.911185 0.954809 0.220749 0.120594
H79   H     H_    0.893553 0.079062 0.237042 0.141018
H80   H     H_    0.945447 0.008325 0.207465 0.137986
C96   C     C_3   0.923467 0.817398 0.274057 -0.401126
H81   H     H_    0.888296 0.771390 0.287330 0.209051
H82   H     H_    0.943084 0.693077 0.261024 0.158437
C97   C     C_3   0.957113 0.907870 0.328449 -0.797059
H83   H     H_    0.992921 0.953327 0.316498 0.237876
H84   H     H_    0.965619 0.806130 0.366001 0.239392
H85   H     H_    0.938105 0.029879 0.344052 0.233913
O32   O     O_3   0.130121 0.102618 0.844303 -0.569959
C98   C     C_3   0.099721 0.081144 0.786015 0.112250
H86   H     H_    0.117355 0.972619 0.762098 0.147090
H87   H     H_    0.097873 0.209437 0.757895 0.084015
C99   C     C_3   0.046681 0.016909 0.789638 -0.341750
H88   H     H_    0.048752 0.890456 0.818099 0.224936
H89   H     H_    0.027242 0.127659 0.810440 0.206599
C100  C     C_3   0.016047 0.973019 0.727066 -0.792251
H90   H     H_    0.012780 0.098410 0.697839 0.226017
H91   H     H_    0.977865 0.927699 0.731076 0.257312
H92   H     H_    0.033988 0.859251 0.705717 0.228256

loop_
_geom_bond_atom_site_label_1
_geom_bond_atom_site_label_2
_ccdc_geom_bond_type
O17   V3    S    
C74   H30   S    
C89   H66   S    
O27   C83   S    
C48   C52   A    
O1    C5    A    
C43   O23   S    
C47   H19   S    
O19   V1    S    
C9    C21   A    
O3    C7    A    
C10   C18   A    
C95   C96   S    
C64   C68   A    
C85   H57   S    
O31   C95   S    
C54   C69   S    
C11   C23   A    
C76   H36   S    
C99   H89   S    
C80   H44   S    
N4    C71   A    
C25   C33   A    
C33   C38   A    
C82   H49   S    
C5    C12   S    
C59   O27   S    
C92   H72   S    
O7    C3    A    
C6    C11   S    
C35   C40   A    
C26   C30   A    
C36   C39   A    
C40   C44   A    
C62   O30   S    
C81   H46   S    
C95   H80   S    
C14   C18   A    
C86   H59   S    
C58   C62   A    
O4    C8    A    
C51   H23   S    
C85   H56   S    
C89   C90   S    
C50   H22   S    
O1    V3    S    
O13   V1    S    
C31   C43   A    
C99   C100  S    
O2    V4    S    
N2    N6    A    
O3    V1    S    
C3    C66   S    
N1    N5    A    
O28   C86   S    
C40   H16   S    
C22   H1    S    
C46   C50   A    
C76   H35   S    
C17   H6    S    
C42   O22   S    
C45   C49   A    
C1    O15   A    
C15   C31   A    
C94   H76   S    
C20   H7    S    
C2    O16   A    
C93   H74   S    
C16   C32   A    
C77   C78   S    
C47   C51   A    
O2    C6    A    
C75   H33   S    
C61   O29   S    
C10   C22   A    
N2    C69   A    
C78   H40   S    
C11   C19   A    
C100  H90   S    
C62   C66   A    
C16   C20   A    
C47   C67   A    
C83   C84   S    
C61   C65   A    
N8    C72   A    
C13   C29   A    
N3    C72   A    
C34   C37   A    
O11   C7    A    
C89   H65   S    
C38   H14   S    
O15   V3    S    
C35   C36   A    
O12   C8    A    
C81   H47   S    
C90   H67   S    
O10   V2    S    
C80   H45   S    
C82   H48   S    
C83   H52   S    
C76   H34   S    
C82   H50   S    
O5    V1    S    
C92   H73   S    
C53   C57   A    
C39   C43   A    
C64   O32   S    
C38   C42   A    
C51   C55   A    
C88   H64   S    
C26   C34   A    
C85   H55   S    
C74   H28   S    
O7    V3    S    
C95   H79   S    
C84   H54   S    
C46   H18   S    
C86   C87   S    
C49   C53   A    
C96   H81   S    
C45   H17   S    
C84   C85   S    
C91   H69   S    
C15   C19   A    
C14   H10   S    
C97   H85   S    
C32   C44   A    
C13   H9    S    
O6    V2    S    
C99   H88   S    
C60   C64   A    
C39   H15   S    
O8    V4    S    
C48   C68   A    
C90   C91   S    
C73   H26   S    
C86   H58   S    
N5    C69   A    
C96   H82   S    
C41   O21   S    
C98   H86   S    
C14   C30   A    
C21   C25   A    
O8    C4    A    
C7    C10   S    
C94   H78   S    
C16   H12   S    
C53   C70   S    
O9    C5    A    
C48   H20   S    
C75   H31   S    
C78   C79   S    
C97   H84   S    
C55   C72   S    
C100  H91   S    
O18   V4    S    
O14   V2    S    
C93   H75   S    
C98   H87   S    
C90   H68   S    
O32   C98   S    
C52   C56   A    
C77   H38   S    
C12   C20   A    
C73   H27   S    
C27   C35   A    
C24   H3    S    
C87   H61   S    
C49   H21   S    
N7    C71   A    
C56   C60   A    
C80   C81   S    
C29   C41   A    
C83   H51   S    
C55   C59   A    
C4    C65   S    
O16   V4    S    
C92   C93   S    
O9    V1    S    
C88   H62   S    
C74   H29   S    
C57   C61   A    
C79   H41   S    
C18   H5    S    
C94   H77   S    
C21   H2    S    
C1    C68   S    
C59   C63   A    
C79   H43   S    
C63   O31   S    
O24   C76   S    
C3    O13   A    
O6    C2    A    
C44   O24   S    
C23   C27   A    
O23   C75   S    
O11   V3    S    
O22   C74   S    
C75   H32   S    
N3    N7    A    
O12   V4    S    
C57   O25   S    
C22   C26   A    
C91   H71   S    
C8    C9    S    
C60   O28   S    
C46   C66   A    
C9    C17   A    
O26   C80   S    
O10   C6    A    
C87   C88   S    
C79   H42   S    
C73   H25   S    
O21   C73   S    
O20   V2    S    
C84   H53   S    
C37   H13   S    
O25   C77   S    
C96   C97   S    
C33   C34   A    
C56   C71   S    
C93   C94   S    
C58   O26   S    
C52   H24   S    
C45   C65   A    
N6    C70   A    
C12   C24   A    
C27   C31   A    
C81   C82   S    
C13   C17   A    
C97   H83   S    
C100  H92   S    
C23   H4    S    
C25   C29   A    
N4    N8    A    
C37   C41   A    
C24   C28   A    
C98   C99   S    
O30   C92   S    
C50   C54   A    
C28   C36   A    
O29   C89   S    
C54   C58   A    
C4    O14   A    
C77   H37   S    
C19   H8    S    
N1    C70   A    
C63   C67   A    
O5    C1    A    
C88   H63   S    
C87   H60   S    
C30   C42   A    
C91   H70   S    
O4    V2    S    
C2    C67   S    
C28   C32   A    
C15   H11   S    
C78   H39   S    
