data_mof_unit_49669.cif
_audit_creation_date              2013-03-05T16:36:14-0500
_audit_creation_method            fapswitch 2.2
_symmetry_space_group_name_H-M    P1
_symmetry_Int_Tables_number       1
_space_group_crystal_system       triclinic
_cell_length_a                    27.834029
_cell_length_b                    9.080007
_cell_length_c                    7.78029
_cell_angle_alpha                 90.03681
_cell_angle_beta                  90.000017
_cell_angle_gamma                 90.0
_cell_volume                      1966.33701289

loop_
_atom_site_label
_atom_site_type_symbol
_atom_site_description
_atom_site_fract_x
_atom_site_fract_y
_atom_site_fract_z
_atom_type_partial_charge
O1    O     O_R   0.500000 0.288390 0.642760 -0.575259
O2    O     O_R   0.500000 0.711610 0.357240 -0.575258
O3    O     O_R   0.500000 0.711610 0.642760 -0.574849
O4    O     O_R   0.500000 0.288390 0.357240 -0.574850
C1    C     C_R   0.500000 0.220022 0.499966 0.853120
C2    C     C_R   0.500000 0.779978 0.500034 0.853120
O5    O     O_R   0.430260 0.500000 0.642770 -0.585697
O6    O     O_R   0.569740 0.500000 0.357230 -0.585704
O7    O     O_R   0.569740 0.500000 0.642770 -0.585704
O8    O     O_R   0.430260 0.500000 0.357230 -0.585698
C3    C     C_R   0.407181 0.500000 0.500000 0.796680
C4    C     C_R   0.592820 0.500000 0.500000 0.796688
Cu1   Cu    Cu3+1 0.500000 0.500000 0.669080 1.007977
Cu2   Cu    Cu3+1 0.500000 0.500000 0.330920 1.007977
C5    C     C_R   0.178016 0.370854 0.527295 0.536936
C6    C     C_R   0.821976 0.629125 0.472583 0.536984
C7    C     C_R   0.178016 0.629146 0.472704 0.536936
C8    C     C_R   0.821976 0.370875 0.527418 0.536984
O9    O     O_2   0.202882 0.245173 0.553119 -0.516509
O10   O     O_2   0.797108 0.754774 0.446600 -0.516445
O11   O     O_2   0.202882 0.754827 0.446880 -0.516509
O12   O     O_2   0.797108 0.245226 0.553400 -0.516445
N1    N     N_R   0.202052 0.500000 0.500000 -0.472510
N2    N     N_R   0.797943 0.500000 0.500000 -0.472570
C9    C     C_R   0.278658 0.490490 0.655420 -0.099395
C10   C     C_R   0.721345 0.508281 0.344483 -0.099515
C11   C     C_R   0.278658 0.509509 0.344580 -0.099395
C12   C     C_R   0.721345 0.491719 0.655517 -0.099515
C13   C     C_R   0.328757 0.490807 0.655651 -0.206052
C14   C     C_R   0.671245 0.507978 0.344254 -0.205922
C15   C     C_R   0.328757 0.509193 0.344349 -0.206052
C16   C     C_R   0.671245 0.492022 0.655746 -0.205922
C17   C     C_R   0.253515 0.500000 0.500000 0.360368
C18   C     C_R   0.746484 0.500000 0.500000 0.360715
C19   C     C_R   0.101921 0.500000 0.500000 -0.043353
C20   C     C_R   0.898072 0.500000 0.500000 -0.043331
C21   C     C_R   0.127577 0.368404 0.527582 -0.020626
C22   C     C_R   0.872415 0.631579 0.472309 -0.020665
C23   C     C_R   0.127577 0.631596 0.472418 -0.020626
C24   C     C_R   0.872415 0.368421 0.527692 -0.020665
C25   C     C_R   0.102531 0.237406 0.554528 -0.145214
C26   C     C_R   0.897461 0.762558 0.445246 -0.145243
C27   C     C_R   0.102531 0.762593 0.445471 -0.145214
C28   C     C_R   0.897461 0.237442 0.554755 -0.145243
C29   C     C_R   0.354272 0.500000 0.500000 -0.037802
C30   C     C_R   0.645730 0.500000 0.500000 -0.037825
H1    H     H_    0.347455 0.516459 0.222541 0.160716
H2    H     H_    0.652549 0.485740 0.777632 0.160685
H3    H     H_    0.347455 0.483541 0.777458 0.160716
H4    H     H_    0.652549 0.514260 0.222368 0.160685
C31   C     C_R   0.974434 0.365851 0.527781 0.045041
C32   C     C_R   0.025559 0.634156 0.472266 0.045047
C33   C     C_R   0.974434 0.634149 0.472219 0.045041
C34   C     C_R   0.025559 0.365844 0.527734 0.045047
C35   C     C_R   0.949212 0.500000 0.500000 0.067301
C36   C     C_R   0.050780 0.500000 0.500000 0.067283
C37   C     C_R   0.947320 0.235795 0.554820 -0.208234
C38   C     C_R   0.052673 0.764237 0.445381 -0.208206
C39   C     C_R   0.947320 0.764205 0.445181 -0.208234
C40   C     C_R   0.052673 0.235763 0.554618 -0.208206
H5    H     H_    0.963249 0.129623 0.576901 0.132482
H6    H     H_    0.036743 0.870432 0.423448 0.132418
H7    H     H_    0.963249 0.870377 0.423100 0.132482
H8    H     H_    0.036743 0.129568 0.576550 0.132418
C41   C     C_1   0.500000 0.065394 0.499953 -0.166726
C42   C     C_1   0.500000 0.934605 0.500046 -0.166726
N3    N     N_1   0.500000 0.500000 0.076820 -0.049776
N4    N     N_1   0.500000 0.500000 0.923180 -0.049776
H9    H     H_    0.259316 0.516675 0.224068 0.136933
H10   H     H_    0.740689 0.485514 0.776099 0.136713
H11   H     H_    0.259316 0.483325 0.775932 0.136933
H12   H     H_    0.740689 0.514486 0.223902 0.136713
H13   H     H_    0.121422 0.134681 0.575883 0.187067
H14   H     H_    0.878570 0.865266 0.423778 0.187095
H15   H     H_    0.121422 0.865319 0.424115 0.187067
H16   H     H_    0.878570 0.134734 0.576223 0.187095

loop_
_geom_bond_atom_site_label_1
_geom_bond_atom_site_label_2
_geom_bond_distance
_ccdc_geom_bond_type
C38   H6    1.075029 S    
C10   H12   1.083178 S    
O3    C2    1.272542 A    
C33   C39   1.417277 A    
C13   H3    1.083241 S    
C11   C17   1.399830 A    
O5    C3    1.283170 A    
C7    N1    1.366789 A    
C2    C42   1.404016 S    
O1    C1    1.272302 A    
C19   C21   1.408591 A    
C22   C26   1.394654 A    
C7    C23   1.404096 A    
C28   H16   1.083651 S    
O7    Cu1   1.951906 S    
C5    C21   1.404096 A    
C20   C24   1.408594 A    
C8    C24   1.404091 A    
C27   C38   1.387843 A    
C5    O9    1.349804 S    
C10   C18   1.399785 A    
N1    C17   1.432423 S    
Cu2   N3    1.976971 S    
C31   C37   1.417277 A    
C11   H9    1.083172 S    
C6    O10   1.349788 S    
C5    N1    1.366790 A    
C14   H4    1.083248 S    
C12   C18   1.399784 A    
C6    N2    1.366735 A    
C15   H1    1.083242 S    
Cu1   Cu2   2.630984 S    
O4    Cu2   1.932433 S    
C16   H2    1.083247 S    
O2    C2    1.272302 A    
C33   C35   1.422529 A    
C9    C13   1.394481 A    
C34   C36   1.422531 A    
C26   H14   1.083649 S    
C11   C15   1.394481 A    
N3    N4    1.195365 T    
C12   C16   1.394483 A    
C4    C30   1.472693 S    
O8    Cu2   1.951908 S    
C34   C40   1.417282 A    
N2    C18   1.432320 S    
C13   C29   1.406409 A    
C19   C23   1.408591 A    
C24   C28   1.394655 A    
C28   C37   1.387844 A    
O6    C4    1.283180 A    
C32   C38   1.417283 A    
C9    H11   1.083172 S    
C1    C41   1.404016 S    
C10   C14   1.394480 A    
C8    N2    1.366735 A    
C3    C29   1.472662 S    
O1    Cu1   1.932172 S    
C32   C33   1.423020 A    
C27   H15   1.083656 S    
O6    Cu2   1.951906 S    
C19   C36   1.423441 A    
C8    O12   1.349788 S    
C16   C30   1.406443 A    
C14   C30   1.406443 A    
C12   H10   1.083177 S    
C25   C40   1.387843 A    
O4    C1    1.272542 A    
O3    Cu1   1.932433 S    
C26   C39   1.387846 A    
C23   C27   1.394666 A    
C37   H5    1.075025 S    
C39   H7    1.075025 S    
C40   H8    1.075030 S    
C31   C34   1.423020 A    
C20   C22   1.408594 A    
C20   C35   1.423438 A    
C31   C35   1.422529 A    
C21   C25   1.394666 A    
O2    Cu2   1.932171 S    
O7    C4    1.283179 A    
C7    O11   1.349804 S    
O8    C3    1.283170 A    
C25   H13   1.083656 S    
O5    Cu1   1.951908 S    
C41   C42   1.187567 T    
C15   C29   1.406409 A    
C9    C17   1.399830 A    
C32   C36   1.422530 A    
C6    C22   1.404091 A    
Cu1   N4    1.976971 S    
