data_mof_unit_33400.cif
_audit_creation_date              2012-12-11T17:00:21-0500
_audit_creation_method            fapswitch 2.2
_symmetry_space_group_name_H-M    P1
_symmetry_Int_Tables_number       1
_space_group_crystal_system       triclinic
_cell_length_a                    6.944039
_cell_length_b                    13.628765
_cell_length_c                    20.224255
_cell_angle_alpha                 103.041048
_cell_angle_beta                  89.932341
_cell_angle_gamma                 90.874532
_cell_volume                      1864.40992716

loop_
_atom_site_label
_atom_site_type_symbol
_atom_type_description
_atom_site_fract_x
_atom_site_fract_y
_atom_site_fract_z
_atom_type_partial_charge
O1    O     O_R   0.506770 0.599700 0.449550 -0.524212
O2    O     O_R   0.179980 0.595740 0.587960 -0.528251
O3    O     O_R   0.004580 0.400300 0.550450 -0.556317
C1    C     C_R   0.348859 0.618845 0.614612 0.789480
O4    O     O_R   0.177380 0.611700 0.452380 -0.551142
O5    O     O_R   0.001970 0.416370 0.413900 -0.542688
C2    C     C_R   0.346759 0.636703 0.434194 0.763543
O6    O     O_R   0.509390 0.583630 0.586100 -0.545018
O7    O     O_3   0.337530 0.435890 0.487530 -0.373681
V1    V     V_3+5 0.064660 0.511890 0.502310 1.577150
O8    O     O_R   0.671950 0.404260 0.412040 -0.516113
C3    C     C_R   0.840409 0.379439 0.385965 0.795310
O9    O     O_R   0.674540 0.388300 0.547620 -0.538801
C4    C     C_R   0.842643 0.360840 0.563735 0.778536
V2    V     V_3+5 0.564030 0.488110 0.497690 1.622729
O10   O     O_3   0.841030 0.564110 0.512470 -0.371198
C5    C     C_R   0.847462 0.103908 0.603897 0.365394
C6    C     C_R   0.850095 0.280799 0.601337 -0.245712
C7    C     C_R   0.911826 0.312885 0.926603 0.184469
C8    C     C_R   0.965550 0.383301 0.888734 0.668595
C9    C     C_R   0.978091 0.355166 0.818170 0.311657
C10   C     C_R   0.906100 0.258955 0.782491 -0.144480
C11   C     C_R   0.861020 0.185654 0.820692 -0.283862
C12   C     C_R   0.880552 0.232774 0.710352 0.011356
C13   C     C_R   0.850957 0.130371 0.676227 -0.300529
C14   C     C_R   0.812145 0.058873 0.715053 0.651696
C15   C     C_R   0.810588 0.086729 0.785596 0.621946
C16   C     C_R   0.868815 0.306589 0.671713 -0.248369
C17   C     C_R   0.843262 0.179647 0.567400 0.601603
C18   C     C_R   0.870210 0.212997 0.892923 -0.174189
H1    H     H_    0.864795 0.385154 0.695809 0.211665
C19   C     C_R   0.703348 0.237037 0.208590 -0.276037
C20   C     C_R   0.864238 0.178590 0.185956 -0.189915
C21   C     C_R   0.007217 0.173261 0.234670 0.597636
C22   C     C_R   0.998849 0.233563 0.301560 0.368546
C23   C     C_R   0.846416 0.303554 0.320342 -0.208930
C24   C     C_R   0.695133 0.297926 0.273849 -0.205204
C25   C     C_3   0.594468 0.380203 0.250710 1.120098
C26   C     C_3   0.605666 0.314766 0.178875 0.891910
C27   C     C_R   0.476205 0.669783 0.733501 -0.052530
C28   C     C_R   0.353599 0.687314 0.682812 -0.319920
C29   C     C_R   0.219742 0.765974 0.701386 0.545006
C30   C     C_R   0.223035 0.829727 0.766968 0.573793
C31   C     C_R   0.354652 0.814216 0.816587 -0.294515
C32   C     C_R   0.475702 0.730849 0.798855 -0.014823
C33   C     C_3   0.688822 0.722071 0.805559 0.853268
C34   C     C_3   0.689518 0.658606 0.733256 0.157417
H2    H     H_    0.763503 0.693358 0.695036 0.147479
C35   C     C_R   0.489670 0.884297 0.391768 0.474494
C36   C     C_R   0.361935 0.718655 0.397830 -0.316630
C37   C     C_R   0.320868 0.687403 0.073090 0.442555
C38   C     C_R   0.328958 0.611743 0.108697 0.568145
C39   C     C_R   0.360259 0.635540 0.178511 0.618143
C40   C     C_R   0.372568 0.737468 0.215391 -0.175447
C41   C     C_R   0.389249 0.813616 0.177855 -0.257726
C42   C     C_R   0.381126 0.764955 0.287886 -0.016017
C43   C     C_R   0.453580 0.861996 0.320708 -0.186588
C44   C     C_R   0.484045 0.935715 0.282150 0.410339
C45   C     C_R   0.442812 0.912426 0.212226 0.577597
C46   C     C_R   0.309363 0.700470 0.328569 0.436618
C47   C     C_R   0.452505 0.810777 0.429555 0.217074
C48   C     C_R   0.356468 0.787641 0.106425 -0.306913
O11   O     O_R   0.203450 0.916320 0.913910 -0.540974
O12   O     O_R   0.535520 0.888300 0.047620 -0.538690
O13   O     O_R   0.710860 0.083650 0.086100 -0.523228
C49   C     C_R   0.366084 0.862478 0.064815 0.967773
O14   O     O_R   0.532860 0.904250 0.912040 -0.528703
O15   O     O_R   0.708190 0.099710 0.949550 -0.526867
C50   C     C_R   0.364212 0.883234 0.884600 0.842184
O16   O     O_R   0.206120 0.900260 0.050460 -0.543902
O17   O     O_3   0.375280 0.064080 0.012470 -0.368663
V3    V     V_3+5 0.648180 0.988110 0.997690 1.691919
O18   O     O_R   0.038220 0.111740 0.952370 -0.549612
C51   C     C_R   0.870866 0.136460 0.933988 0.934211
O19   O     O_R   0.040880 0.095790 0.087940 -0.518910
C52   C     C_R   0.872751 0.116351 0.115598 0.842063
V4    V     V_3+5 0.148800 0.011950 0.002300 1.692976
O20   O     O_3   0.871820 0.935920 0.987530 -0.396904
F1    F     F_    0.834772 0.154342 0.498522 -0.643271
O21   O     O_3   0.142166 0.221473 0.346120 -0.570960
H3    H     H_    0.092514 0.241953 0.393018 0.319009
F2    F     F_    0.703567 0.468286 0.260470 -0.615560
F3    F     F_    0.409728 0.394647 0.276634 -0.641793
F4    F     F_    0.724645 0.354801 0.136306 -0.580820
O22   O     O_3   0.425976 0.283254 0.148732 -0.574230
H4    H     H_    0.356345 0.244860 0.177809 0.320583
F5    F     F_    0.094452 0.785813 0.654752 -0.627403
F6    F     F_    0.109097 0.911735 0.779928 -0.617053
F7    F     F_    0.738416 0.669906 0.854592 -0.607900
O23   O     O_3   0.787746 0.813841 0.811154 -0.592041
H5    H     H_    0.862932 0.826088 0.853933 0.346506
O24   O     O_3   0.740612 0.558968 0.729941 -0.610125
H6    H     H_    0.883482 0.559995 0.731317 0.317086
F8    F     F_    0.755929 0.963118 0.685489 -0.589123
O25   O     O_3   0.505063 0.832348 0.497449 -0.600292
H7    H     H_    0.437464 0.786319 0.521488 0.309294
O26   O     O_3   0.547732 0.031498 0.314112 -0.559831
H8    H     H_    0.567874 0.073833 0.280798 0.359124
O27   O     O_3   0.566075 0.977651 0.423076 -0.540669
H9    H     H_    0.559229 0.987875 0.473016 0.385290
O28   O     O_3   0.178671 0.624949 0.300142 -0.561392
H10   H     H_    0.113626 0.597423 0.335543 0.330531
F9    F     F_    0.290975 0.662317 0.004921 -0.570363
F10   F     F_    0.399593 0.557994 0.207822 -0.532182
F11   F     F_    0.313015 0.513900 0.074919 -0.533528
F12   F     F_    0.463318 0.986899 0.177965 -0.678984
O29   O     O_3   0.850228 0.005618 0.567136 -0.564356
H11   H     H_    0.938052 0.967970 0.590636 0.373618
O30   O     O_3   0.911415 0.337493 0.996827 -0.572661
H12   H     H_    0.940937 0.410250 0.013305 0.410260
O31   O     O_3   0.080062 0.419880 0.787227 -0.595081
H13   H     H_    0.156115 0.378396 0.749930 0.299125
F13   F     F_    0.024644 0.477577 0.920694 -0.547003
F14   F     F_    0.754121 0.015418 0.818856 -0.630471
F15   F     F_    0.154181 0.107925 0.218052 -0.637494

loop_
_geom_bond_atom_site_label_1
_geom_bond_atom_site_label_2
_ccdc_geom_bond_type
C14   F8    S    
C27   C34   S    
O28   H10   S    
C41   C45   A    
C25   F3    S    
C5    C17   A    
C28   C29   A    
C4    C6    S    
O25   H7    S    
C1    O6    A    
O26   H8    S    
O23   H5    S    
C33   F7    S    
V4    O20   S    
C31   C32   A    
C37   C48   A    
C14   C15   A    
O13   C52   A    
C30   F6    S    
C23   C24   A    
C26   F4    S    
O14   V3    S    
C5    O29   S    
O22   H4    S    
C8    F13   S    
C18   C51   S    
C1    C28   S    
C39   F10   S    
O15   C51   A    
V2    O10   S    
C41   C48   A    
C22   O21   S    
C35   C43   A    
C42   C43   A    
C21   C22   A    
O18   C51   A    
C19   C26   S    
V3    O20   S    
C40   C41   A    
O8    V2    S    
O11   C50   A    
O29   H11   S    
O1    V2    S    
C11   C15   A    
C3    C23   S    
O7    V1    S    
O9    C4    A    
C25   F2    S    
O16   V4    S    
C44   O26   S    
C34   O24   S    
C9    O31   S    
C7    O30   S    
C27   C32   A    
C40   C42   A    
C45   F12   S    
C35   C47   A    
C48   C49   S    
C37   C38   A    
C11   C18   A    
C6    C16   A    
C12   C13   A    
O4    C2    A    
C21   F15   S    
C32   C33   S    
C42   C46   A    
O14   C50   A    
C22   C23   A    
O12   C49   A    
O2    C1    A    
O19   C52   A    
C24   C25   S    
C35   O27   S    
C20   C52   S    
C34   H2    S    
C17   F1    S    
O15   V3    S    
C20   C21   A    
C31   C50   S    
C6    C17   A    
C19   C24   A    
O19   V4    S    
O3    C4    A    
C27   C28   A    
C38   F11   S    
O6    V2    S    
O9    V2    S    
C30   C31   A    
C10   C12   A    
C44   C45   A    
C29   C30   A    
C26   O22   S    
C46   O28   S    
O2    V1    S    
O17   V4    S    
C38   C39   A    
O11   V4    S    
C33   C34   S    
O31   H13   S    
O1    C2    A    
C16   H1    S    
C12   C16   A    
C2    C36   S    
O21   H3    S    
O5    V1    S    
O8    C3    A    
C47   O25   S    
C39   C40   A    
C33   O23   S    
O13   V3    S    
O27   H9    S    
C36   C46   A    
C19   C20   A    
C7    C8    A    
C13   C14   A    
C5    C13   A    
O17   V3    S    
O3    V1    S    
V1    O10   S    
O30   H12   S    
O5    C3    A    
C43   C44   A    
C49   O16   A    
C25   C26   S    
O24   H6    S    
O12   V3    S    
O7    V2    S    
C15   F14   S    
O4    V1    S    
C8    C9    A    
C36   C47   A    
O18   V4    S    
C10   C11   A    
C29   F5    S    
C9    C10   A    
C7    C18   A    
C37   F9    S    
