data_mof_unit_13740.cif
_audit_creation_date              2013-03-05T16:01:36-0500
_audit_creation_method            fapswitch 2.2
_symmetry_space_group_name_H-M    P1
_symmetry_Int_Tables_number       1
_space_group_crystal_system       triclinic
_cell_length_a                    14.676825
_cell_length_b                    14.988251
_cell_length_c                    23.538488
_cell_angle_alpha                 76.392752
_cell_angle_beta                  102.445458
_cell_angle_gamma                 114.164597
_cell_volume                      4549.98572695

loop_
_atom_site_label
_atom_site_type_symbol
_atom_site_description
_atom_site_fract_x
_atom_site_fract_y
_atom_site_fract_z
_atom_type_partial_charge
O1    O     O_R   0.977900 0.338110 0.520250 -0.594913
O2    O     O_R   0.022100 0.661890 0.479750 -0.572870
O3    O     O_R   0.839850 0.379180 0.494310 -0.554757
O4    O     O_R   0.160150 0.620820 0.505690 -0.581868
C1    C     C_R   0.879717 0.313208 0.509441 0.855430
C2    C     C_R   0.119756 0.686398 0.493260 0.853647
O5    O     O_R   0.069020 0.479430 0.595090 -0.583544
O6    O     O_R   0.930980 0.520570 0.404910 -0.566353
O7    O     O_R   0.930970 0.520500 0.569150 -0.571281
O8    O     O_R   0.069030 0.479500 0.430850 -0.586539
C3    C     C_R   0.002950 0.505573 0.608408 0.864689
C4    C     C_R   0.998848 0.497837 0.391319 0.851704
Cu1   Cu    Cu3+1 0.081740 0.475680 0.515360 0.997112
Cu2   Cu    Cu3+1 0.918260 0.524320 0.484640 1.036932
C5    C     C_R   0.023932 0.594296 0.109886 0.575110
C6    C     C_R   0.950761 0.429370 0.883149 0.587830
N1    N     N_R   0.989017 0.504301 0.145896 -0.452653
N2    N     N_R   0.003400 0.517263 0.849998 -0.450246
C7    C     C_R   0.950091 0.417292 0.123644 0.581647
C8    C     C_R   0.047631 0.603609 0.873134 0.580940
C9    C     C_R   0.946407 0.418691 0.063399 -0.017947
C10   C     C_R   0.039990 0.603579 0.931538 -0.019389
C11   C     C_R   0.988736 0.510143 0.026941 -0.009626
C12   C     C_R   0.991888 0.512830 0.967051 -0.011079
C13   C     C_R   0.028558 0.598834 0.050315 -0.007631
C14   C     C_R   0.947572 0.424677 0.942946 -0.009301
C15   C     C_R   0.902960 0.330985 0.039027 -0.140377
C16   C     C_R   0.080188 0.691677 0.955384 -0.139677
C17   C     C_R   0.902151 0.334132 0.979200 -0.136002
C18   C     C_R   0.073093 0.689487 0.013916 -0.137009
O9    O     O_2   0.054870 0.679040 0.131812 -0.523594
O10   O     O_2   0.902311 0.346666 0.858396 -0.523473
O11   O     O_2   0.916233 0.329587 0.159829 -0.522359
O12   O     O_2   0.099772 0.689073 0.839944 -0.516689
H1    H     H_    0.869150 0.259732 0.066012 0.196792
H2    H     H_    0.116820 0.762589 0.928862 0.196993
H3    H     H_    0.867752 0.265219 0.961777 0.196516
H4    H     H_    0.104568 0.758749 0.030866 0.196196
C19   C     C_R   0.972619 0.579831 0.744685 -0.150454
C20   C     C_R   0.903204 0.456568 0.233129 -0.131239
H5    H     H_    0.942739 0.626815 0.756910 0.203907
H6    H     H_    0.832869 0.424734 0.205299 0.191883
C21   C     C_R   0.977242 0.584308 0.685214 -0.092868
C22   C     C_R   0.903475 0.449103 0.293502 -0.064452
C23   C     C_R   0.009126 0.516355 0.670078 -0.126718
C24   C     C_R   0.995458 0.493812 0.329003 -0.133570
C25   C     C_R   0.049878 0.457771 0.715138 -0.233534
C26   C     C_R   0.084896 0.540843 0.303685 -0.238848
H7    H     H_    0.079883 0.410317 0.703696 0.208723
H8    H     H_    0.154136 0.577391 0.330753 0.221163
C27   C     C_R   0.055070 0.461281 0.774690 0.019068
C28   C     C_R   0.085607 0.541429 0.244160 0.014690
C29   C     C_R   0.010745 0.519196 0.789557 0.251964
C30   C     C_R   0.993117 0.500806 0.208130 0.240829
C31   C     C_R   0.809679 0.208090 0.517342 -0.104593
C32   C     C_R   0.189280 0.791327 0.490012 -0.093983
C33   C     C_R   0.783575 0.041195 0.569107 -0.160455
C34   C     C_R   0.223213 0.956728 0.435796 -0.168315
C35   C     C_R   0.848263 0.135651 0.547436 -0.175388
C36   C     C_R   0.155012 0.863441 0.454901 -0.163270
C37   C     C_R   0.703057 0.179682 0.501234 -0.042335
C38   C     C_R   0.292915 0.818374 0.514978 -0.059123
C39   C     C_R   0.639403 0.078564 0.513848 0.021858
C40   C     C_R   0.362655 0.916955 0.499080 0.016917
C41   C     C_R   0.679335 0.014477 0.555188 0.132517
C42   C     C_R   0.326346 0.981108 0.454092 0.144291
C43   C     C_R   0.534794 0.041450 0.491615 0.080518
C44   C     C_R   0.468275 0.952648 0.521695 0.077429
C45   C     C_R   0.510727 0.905398 0.573537 -0.135379
C46   C     C_R   0.495960 0.089734 0.439311 -0.173558
C47   C     C_R   0.614224 0.929158 0.586006 -0.163696
C48   C     C_R   0.393486 0.065531 0.424012 -0.170144
H9    H     H_    0.643566 0.885078 0.622805 0.164141
H10   H     H_    0.366638 0.109817 0.386107 0.162081
H11   H     H_    0.076243 0.845058 0.437278 0.180016
H12   H     H_    0.928571 0.154478 0.559405 0.179525
H13   H     H_    0.814968 0.990214 0.598386 0.156902
H14   H     H_    0.195636 0.007998 0.403664 0.157728
H15   H     H_    0.466222 0.850434 0.605679 0.167305
H16   H     H_    0.544543 0.147627 0.409885 0.176876
N3    N     N_R   0.795430 0.560810 0.461550 -0.203085
N4    N     N_R   0.204570 0.439190 0.538450 -0.219569
C49   C     C_R   0.707909 0.659295 0.397195 -0.150021
C50   C     C_R   0.292336 0.343133 0.606085 -0.152849
C51   C     C_R   0.794088 0.635466 0.415602 0.125549
C52   C     C_R   0.205582 0.365757 0.585501 0.109110
C53   C     C_R   0.716317 0.513025 0.493052 0.090344
C54   C     C_R   0.284599 0.485156 0.507389 0.103687
C55   C     C_R   0.628603 0.536537 0.478264 -0.019333
C56   C     C_R   0.372084 0.460788 0.523917 0.021232
C57   C     C_R   0.619579 0.600723 0.424435 0.023267
C58   C     C_R   0.380830 0.399388 0.578834 0.005737
C59   C     C_R   0.548433 0.495708 0.514039 -0.021457
C60   C     C_R   0.452057 0.498616 0.488412 0.030214
C61   C     C_R   0.437358 0.535759 0.427326 -0.098124
C62   C     C_R   0.562253 0.455570 0.574954 -0.093330
C63   C     C_R   0.521893 0.598211 0.398101 -0.074504
C64   C     C_R   0.477916 0.400319 0.605524 -0.070183
H17   H     H_    0.280619 0.542512 0.470414 0.143316
H18   H     H_    0.721087 0.453722 0.528247 0.146458
C65   C     C_2   0.504945 0.648743 0.337015 0.922958
O13   O     O_2   0.515091 0.618961 0.295557 -0.555021
O14   O     O_R   0.478165 0.730984 0.327406 -0.701635
H19   H     H_    0.474091 0.762861 0.284401 0.347363
C66   C     C_2   0.495926 0.359315 0.668861 0.894762
O15   O     O_2   0.485420 0.397008 0.706540 -0.569156
O16   O     O_R   0.524243 0.277436 0.685044 -0.679615
H20   H     H_    0.534217 0.256215 0.729378 0.355192
C67   C     C_1   0.118254 0.312092 0.616065 0.313383
N5    N     N_1   0.049267 0.268294 0.641292 -0.282169
C68   C     C_1   0.879589 0.687298 0.383367 0.321763
N6    N     N_1   0.947115 0.729042 0.356791 -0.279875
C69   C     C_1   0.714927 0.747665 0.353631 0.272714
N7    N     N_1   0.721290 0.818377 0.319055 -0.214027
C70   C     C_1   0.285698 0.257194 0.651698 0.284505
N8    N     N_1   0.279693 0.188468 0.687906 -0.206473
C71   C     C_2   0.336731 0.492456 0.391975 0.817283
O17   O     O_2   0.307672 0.542560 0.349030 -0.578651
O18   O     O_R   0.275791 0.392759 0.407695 -0.751610
H21   H     H_    0.209288 0.371934 0.380793 0.344800
C72   C     C_2   0.664256 0.486585 0.609860 0.825584
O19   O     O_2   0.716489 0.574789 0.607415 -0.560825
O20   O     O_R   0.700838 0.415668 0.644524 -0.710480
H22   H     H_    0.771091 0.446480 0.665948 0.337936
C73   C     C_2   0.956937 0.666381 0.641936 0.920957
O21   O     O_2   0.995939 0.699423 0.596600 -0.584377
O22   O     O_R   0.898754 0.711121 0.655153 -0.720112
H23   H     H_    0.892087 0.767418 0.623050 0.348726
C74   C     C_2   0.807477 0.389606 0.318138 0.897724
O23   O     O_2   0.807555 0.337912 0.366761 -0.576983
O24   O     O_R   0.716287 0.389228 0.284585 -0.735320
H24   H     H_    0.655989 0.344872 0.305841 0.360106
C75   C     C_2   0.109302 0.405857 0.819792 0.906164
O25   O     O_2   0.146105 0.431813 0.867872 -0.571037
O26   O     O_R   0.120973 0.325200 0.806577 -0.739259
H25   H     H_    0.159948 0.294089 0.840478 0.354459
C76   C     C_2   0.183510 0.583959 0.220918 0.955985
O27   O     O_2   0.197024 0.546660 0.184094 -0.572789
O28   O     O_R   0.260781 0.666781 0.241339 -0.699420
H26   H     H_    0.322824 0.690035 0.221088 0.348484
C77   C     C_2   0.328331 0.739902 0.550463 0.837923
O29   O     O_2   0.387139 0.718048 0.532116 -0.588072
O30   O     O_R   0.291849 0.689241 0.603958 -0.739412
H27   H     H_    0.319746 0.636061 0.623496 0.342641
C78   C     C_2   0.654494 0.253938 0.485186 0.844118
O31   O     O_2   0.662464 0.309725 0.437748 -0.565983
O32   O     O_R   0.593806 0.254546 0.523336 -0.730523
H28   H     H_    0.559422 0.303357 0.506468 0.330068

loop_
_geom_bond_atom_site_label_1
_geom_bond_atom_site_label_2
_geom_bond_distance
_ccdc_geom_bond_type
C39   C41   1.410088 A    
C59   C60   1.427206 A    
C31   C35   1.403522 A    
C15   C17   1.395521 A    
C49   C69   1.453013 S    
C68   N6    1.157743 T    
C21   C73   1.489766 S    
C78   O31   1.223340 D    
C58   C64   1.423814 A    
O20   H22   1.013077 S    
C19   H5    1.083341 S    
C19   C29   1.401645 A    
C61   C71   1.494823 S    
O5    C3    1.300783 A    
C66   O16   1.397590 S    
C65   O13   1.223015 D    
C64   C66   1.484006 S    
C62   C72   1.487332 S    
O1    C1    1.314109 A    
C40   C44   1.439432 A    
C10   C12   1.407279 A    
C59   C62   1.423950 A    
C7    C9    1.402921 A    
C12   C14   1.407395 A    
C69   N7    1.157677 T    
C26   C28   1.401339 A    
C77   O30   1.398808 S    
C33   C35   1.390816 A    
C34   C36   1.382560 A    
O30   H27   1.013916 S    
C18   H4    1.083085 S    
C37   C39   1.416518 A    
O4    Cu1   1.984641 S    
C45   C47   1.390848 A    
C37   C78   1.491650 S    
C38   C40   1.427450 A    
N2    C29   1.442439 S    
C34   C42   1.396569 A    
C42   C48   1.389886 A    
O32   H28   1.013288 S    
C22   C24   1.416501 A    
C44   C45   1.416228 A    
C62   C64   1.414207 A    
O16   H20   1.013746 S    
C55   C57   1.416646 A    
C67   N5    1.157690 T    
C8    O12   1.349482 S    
C26   H8    1.080803 S    
C9    C15   1.405232 A    
C65   O14   1.397212 S    
C10   C16   1.405306 A    
Cu1   Cu2   2.692133 S    
O2    C2    1.310649 A    
C78   O32   1.398256 S    
C28   C30   1.415189 A    
C56   C60   1.432696 A    
C24   C26   1.398958 A    
C23   C25   1.404284 A    
C6    C14   1.402646 A    
C39   C43   1.425465 A    
C46   H16   1.079192 S    
C43   C44   1.420092 A    
C33   H13   1.083841 S    
O26   H25   1.013888 S    
C52   C67   1.445153 S    
C25   H7    1.081690 S    
C7    O11   1.349523 S    
C2    C32   1.477709 S    
C47   H9    1.084040 S    
N1    C30   1.442486 S    
C19   C21   1.400620 A    
C15   H1    1.083072 S    
C22   C74   1.482171 S    
C41   C47   1.391594 A    
Cu1   N4    2.022247 S    
C32   C36   1.396372 A    
C27   C29   1.415116 A    
C4    C24   1.471526 S    
C40   C42   1.423752 A    
O7    Cu2   1.946881 S    
O7    C3    1.302108 A    
C56   C58   1.414149 A    
C20   C22   1.398267 A    
O6    C4    1.295048 A    
C28   C76   1.481623 S    
C57   C63   1.422998 A    
O18   H21   1.014027 S    
C21   C23   1.419879 A    
C72   O19   1.221562 D    
N3    C53   1.360641 A    
O3    Cu2   1.984640 S    
O8    C4    1.304109 A    
C48   H10   1.084374 S    
C49   C51   1.405671 A    
C8    C10   1.403069 A    
C50   C70   1.453614 S    
C20   C30   1.400731 A    
C9    C11   1.407266 A    
C73   O21   1.222390 D    
C32   C38   1.430117 A    
C45   H15   1.075603 S    
O4    C2    1.292360 A    
O1    Cu1   1.994657 S    
C38   C77   1.484026 S    
O24   H24   1.013974 S    
C73   O22   1.398996 S    
C53   H18   1.077368 S    
C76   O27   1.223119 D    
C13   C18   1.404981 A    
C5    N1    1.372540 A    
O6    Cu2   1.941479 S    
C76   O28   1.396926 S    
C1    C31   1.480587 S    
C33   C41   1.397297 A    
C20   H6    1.083856 S    
O3    C1    1.290385 A    
O8    Cu1   1.946883 S    
C25   C27   1.399617 A    
O28   H26   1.013395 S    
C61   C63   1.415214 A    
C5    O9    1.349488 S    
O22   H23   1.014039 S    
C6    O10   1.349560 S    
C49   C57   1.422728 A    
C66   O15   1.222952 D    
C36   H11   1.082025 S    
C43   C46   1.407256 A    
C71   O18   1.399296 S    
C54   C56   1.426605 A    
C74   O23   1.221942 D    
N4    C52   1.367815 A    
C77   O29   1.223695 D    
C27   C75   1.487565 S    
C75   O25   1.222944 D    
C3    C23   1.477567 S    
N4    C54   1.363612 A    
C31   C37   1.431283 A    
C16   C18   1.395667 A    
N1    C7    1.372546 A    
N2    C8    1.372695 A    
C11   C13   1.407427 A    
C55   C59   1.436388 A    
C60   C61   1.418431 A    
O2    Cu2   1.994657 S    
C63   C65   1.480071 S    
C72   O20   1.397916 S    
C54   H17   1.080309 S    
C5    C13   1.402777 A    
C34   H14   1.084258 S    
C11   C12   1.411011 A    
C51   C68   1.445298 S    
O5    Cu1   1.941477 S    
C16   H2    1.083072 S    
C14   C17   1.404982 A    
C6    N2    1.372632 A    
C17   H3    1.083084 S    
O14   H19   1.013043 S    
C75   O26   1.398921 S    
C53   C55   1.422406 A    
C50   C52   1.407560 A    
C46   C48   1.380072 A    
C50   C58   1.420327 A    
Cu2   N3    2.022248 S    
C71   O17   1.219385 D    
C35   H12   1.081770 S    
N3    C51   1.364408 A    
C70   N8    1.157654 T    
C74   O24   1.398333 S    
