data_mof_unit_45822.cif
_audit_creation_date              2013-03-05T16:13:09-0500
_audit_creation_method            fapswitch 2.2
_symmetry_space_group_name_H-M    P1
_symmetry_Int_Tables_number       1
_space_group_crystal_system       triclinic
_cell_length_a                    8.239898
_cell_length_b                    16.245374
_cell_length_c                    18.791593
_cell_angle_alpha                 112.044355
_cell_angle_beta                  91.351783
_cell_angle_gamma                 84.011533
_cell_volume                      2318.49745708

loop_
_atom_site_label
_atom_site_type_symbol
_atom_site_description
_atom_site_fract_x
_atom_site_fract_y
_atom_site_fract_z
_atom_type_partial_charge
P1    P     P_3+3 0.582960 0.413890 0.320860 0.476143
O1    O     O_2   0.402610 0.439360 0.314250 -0.398250
O2    O     O_3   0.648560 0.446300 0.404730 -0.338556
O3    O     O_3   0.108870 0.604000 0.387500 -0.388084
O4    O     O_2   0.249191 0.535858 0.250294 -0.396696
O5    O     O_3   0.618201 0.297624 0.272646 -0.646829
O6    O     O_3   0.115145 0.698994 0.288407 -0.535911
H1    H     H_    0.108122 0.770089 0.405801 0.149146
C1    C     C_3   0.032659 0.855195 0.344357 -0.957649
H2    H     H_    0.158087 0.869976 0.336506 0.288322
H3    H     H_    0.959118 0.853555 0.293633 0.253870
P2    P     P_3+3 0.071690 0.707860 0.593450 0.513065
P3    P     P_3+3 0.497943 0.765773 0.451559 0.462464
O7    O     O_2   0.241370 0.719440 0.573960 -0.310817
O8    O     O_3   0.507090 0.652150 0.432150 -0.379290
O9    O     O_2   0.352892 0.812371 0.507889 -0.378138
O10   O     O_3   0.068686 0.740434 0.693095 -0.557804
O11   O     O_3   0.444387 0.782928 0.367142 -0.533957
C2    C     C_3   0.529562 0.715179 0.305158 0.472102
H4    H     H_    0.480760 0.650288 0.293746 0.148871
H5    H     H_    0.662280 0.708862 0.316297 0.005865
C3    C     C_3   0.506992 0.737711 0.233756 -0.975558
H6    H     H_    0.375572 0.742331 0.219646 0.285712
H7    H     H_    0.554784 0.802500 0.243649 0.256199
C4    C     C_3   0.538066 0.771764 0.757931 1.565076
C5    C     C_3   0.516024 0.753942 0.831519 -1.132857
H8    H     H_    0.443262 0.698234 0.822273 0.181502
H9    H     H_    0.635743 0.740460 0.854039 0.264943
H10   H     H_    0.455179 0.813427 0.877684 0.229752
Ba1   Ba    Ba6+2 0.333520 0.539550 0.472180 1.599962
C6    C     C_3   0.509066 0.250730 0.294196 0.798205
H11   H     H_    0.393730 0.291954 0.318020 0.036994
C7    C     C_3   0.469731 0.171305 0.222680 -0.932075
H12   H     H_    0.413726 0.195764 0.179125 0.267318
H13   H     H_    0.383691 0.131673 0.237466 0.255997
H14   H     H_    0.582987 0.127508 0.197020 0.250833
C8    C     C_3   0.119770 0.668480 0.714589 0.441678
H15   H     H_    0.248808 0.644788 0.696928 -0.013869
H16   H     H_    0.045177 0.612394 0.688443 0.111862
C9    C     C_3   0.103932 0.701348 0.801620 0.086756
H17   H     H_    0.193191 0.750678 0.825793 0.096729
H18   H     H_    0.136440 0.644342 0.819873 0.026401
P4    P     P_3+3 0.606720 0.586180 0.679160 0.497643
O12   O     O_2   0.787080 0.560670 0.685800 -0.352508
O13   O     O_3   0.541120 0.553770 0.595290 -0.348212
O14   O     O_3   0.080800 0.396070 0.612520 -0.387737
O15   O     O_3   0.634033 0.700370 0.700414 -0.584286
P5    P     P_3+3 0.694559 0.234248 0.551664 0.536289
O16   O     O_3   0.164600 0.390590 0.443970 -0.394432
O17   O     O_3   0.682580 0.347920 0.567870 -0.340697
O18   O     O_2   0.842409 0.188415 0.496767 -0.329610
O19   O     O_3   0.748643 0.218242 0.636485 -0.533815
Ba2   Ba    Ba6+2 0.856270 0.460520 0.527840 1.614174
P6    P     P_3+3 0.095275 0.594584 0.292491 0.429243
C10   C     C_3   0.038189 0.765776 0.353486 0.493805
H19   H     H_    0.911180 0.752770 0.360518 -0.002770
H20   H     H_    0.976337 0.909244 0.396236 0.229737
O20   O     O_3   0.025080 0.609480 0.556050 -0.395210
C11   C     C_3   0.040666 0.311704 0.281392 0.307934
H21   H     H_    0.931463 0.345303 0.318413 0.064608
H22   H     H_    0.126756 0.361975 0.287058 0.079371
C12   C     C_3   0.983824 0.273776 0.198563 0.169595
H23   H     H_    0.897045 0.223896 0.194094 0.130188
H24   H     H_    0.919565 0.329246 0.184463 0.022064
P7    P     P_3+3 0.129003 0.277762 0.401087 0.462273
O21   O     O_2   0.948320 0.280590 0.426090 -0.274857
O22   O     O_3   0.118432 0.241949 0.300940 -0.581814
H25   H     H_    0.574378 0.684976 0.184409 0.226480
C13   C     C_3   0.671457 0.289222 0.698791 0.286195
H26   H     H_    0.725571 0.351750 0.706758 0.130027
H27   H     H_    0.538341 0.299365 0.689953 0.003047
C14   C     C_3   0.697757 0.269838 0.771965 -0.076071
H28   H     H_    0.661822 0.331646 0.822334 0.073355
H29   H     H_    0.828975 0.249727 0.777713 0.153574
P8    P     P_3+3 0.097727 0.403772 0.707250 0.410122
C15   C     C_3   0.166186 0.233342 0.648715 0.476452
H30   H     H_    0.294230 0.248460 0.648155 0.016390
O23   O     O_2   0.943916 0.461847 0.749489 -0.417250
O24   O     O_3   0.076583 0.299004 0.710258 -0.534106
H31   H     H_    0.107926 0.227901 0.593419 0.129718
H32   H     H_    0.241595 0.091382 0.609461 0.218614
C16   C     C_3   0.168639 0.143658 0.657089 -0.914483
H33   H     H_    0.042439 0.124846 0.655445 0.278248
H34   H     H_    0.224446 0.147425 0.712454 0.285133
C17   C     C_R   0.513107 0.457449 0.041267 0.014346
C18   C     C_R   0.430625 0.415777 0.081155 0.123040
C19   C     C_R   0.285330 0.378966 0.051377 -0.188252
C20   C     C_R   0.223417 0.382521 0.982444 -0.157832
C21   C     C_R   0.306813 0.421932 0.941170 0.154992
C22   C     C_R   0.452150 0.459653 0.970559 0.015815
C23   C     C_R   0.247948 0.422965 0.870692 -0.182616
C24   C     C_R   0.334079 0.459337 0.827190 -0.029408
C25   C     C_R   0.478709 0.499214 0.857268 -0.006955
C26   C     C_R   0.536808 0.499109 0.929255 -0.031329
C27   C     C_R   0.282393 0.455193 0.753663 0.183925
C28   C     C_R   0.372899 0.490658 0.711915 -0.527801
C29   C     C_R   0.510157 0.535301 0.741713 0.162623
C30   C     C_R   0.566676 0.538117 0.815353 -0.044370
C31   C     C_R   0.657100 0.496015 0.071594 -0.021774
C32   C     C_R   0.714251 0.497466 0.144034 -0.011736
C33   C     C_R   0.627665 0.458386 0.185993 -0.056077
C34   C     C_R   0.492400 0.412701 0.150726 -0.135361
H35   H     H_    0.218288 0.348484 0.082077 0.161958
H36   H     H_    0.110637 0.353793 0.961128 0.126774
H37   H     H_    0.332435 0.485623 0.655373 0.175969
H38   H     H_    0.135458 0.394048 0.850005 0.176431
H39   H     H_    0.429984 0.376476 0.177603 0.170905
C35   C     C_R   0.708402 0.577612 0.848506 -0.161797
C36   C     C_R   0.768177 0.575253 0.918279 0.133814
C37   C     C_R   0.682249 0.536262 0.959116 0.006492
C38   C     C_R   0.742472 0.534617 0.029951 0.012100
C39   C     C_R   0.914830 0.610581 0.947454 -0.190584
C40   C     C_R   0.974974 0.608498 0.016823 -0.209456
C41   C     C_R   0.888774 0.571524 0.058895 0.131566
C42   C     C_R   0.858407 0.537836 0.174033 -0.027016
C43   C     C_R   0.946354 0.572044 0.129705 -0.229398
C44   C     C_R   0.909252 0.543891 0.247948 0.197364
C45   C     C_R   0.816528 0.511461 0.291309 -0.551075
C46   C     C_R   0.678815 0.467316 0.261733 0.244727
H40   H     H_    0.777566 0.608774 0.819752 0.206828
H41   H     H_    0.983792 0.639637 0.916586 0.151828
H42   H     H_    0.088610 0.636413 0.037800 0.137129
H43   H     H_    0.059451 0.600478 0.149871 0.186484
H44   H     H_    0.856536 0.517160 0.348063 0.185488
C47   C     C_2   0.382633 0.241258 0.495349 -0.434450
C48   C     C_R   0.798202 0.750342 0.518637 -0.457276
C49   C     C_2   0.227443 0.118405 0.417719 -0.246939
C50   C     C_2   0.251332 0.204813 0.440718 0.238196
C51   C     C_2   0.504902 0.186357 0.507374 0.210665
C52   C     C_3   0.501171 0.086516 0.467217 0.093831
C53   C     C_3   0.326893 0.059434 0.451061 0.011590
C54   C     C_2   0.591264 0.034502 0.508869 -0.190778
C55   C     C_2   0.637234 0.948160 0.470634 -0.117654
C56   C     C_R   0.870113 0.924058 0.548052 0.096852
C57   C     C_R   0.730315 0.893247 0.506936 -0.054735
C58   C     C_R   0.972765 0.868571 0.574692 -0.335186
C59   C     C_R   0.939209 0.780680 0.557911 0.272684
C60   C     C_R   0.691178 0.806828 0.494436 0.169327
H45   H     H_    0.131333 0.091396 0.377879 0.175687
H46   H     H_    0.079305 0.893654 0.607089 0.176002
H47   H     H_    0.388043 0.312969 0.519252 0.177055
H48   H     H_    0.769510 0.683534 0.509007 0.192196
H49   H     H_    0.613528 0.065440 0.569902 0.199566
H50   H     H_    0.606596 0.917168 0.410524 0.169624
N1    N     N_R   0.586662 0.221682 0.352080 0.196990
O25   O     O_R   0.630893 0.282784 0.414502 -0.352924
O26   O     O_R   0.636604 0.138225 0.337893 -0.436324
O27   O     O_3   0.942268 0.739095 0.825565 -0.573670
C61   C     C_3   0.943746 0.814051 0.895148 -0.137655
H51   H     H_    0.996840 0.869449 0.885722 0.139225
H52   H     H_    0.011927 0.796666 0.940288 0.100330
H53   H     H_    0.816986 0.838881 0.916649 0.170090
O28   O     O_3   0.119451 0.234073 0.148694 -0.597289
C62   C     C_3   0.064662 0.193708 0.072998 -0.220639
H54   H     H_    0.991370 0.243055 0.053942 0.130866
H55   H     H_    0.993105 0.137263 0.067467 0.146293
H56   H     H_    0.172635 0.166233 0.033978 0.172611
N2    N     N_R   0.600898 0.199390 0.771466 0.261274
O29   O     O_R   0.637341 0.117667 0.723798 -0.414241
O30   O     O_R   0.483464 0.216979 0.821704 -0.412382
O31   O     O_3   0.624847 0.849029 0.780916 -0.663866
C63   C     C_3   0.680614 0.866106 0.717695 -0.175396
H57   H     H_    0.692288 0.938552 0.736236 0.185926
H58   H     H_    0.597254 0.847418 0.667882 0.138687
H59   H     H_    0.802923 0.830368 0.699823 0.186027
O32   O     O_3   0.383960 0.787780 0.726744 -0.669359
C64   C     C_3   0.306147 0.875489 0.765838 -0.188893
H60   H     H_    0.285724 0.890680 0.827776 0.112371
H61   H     H_    0.184866 0.881928 0.740736 0.185659
H62   H     H_    0.373022 0.927359 0.757960 0.166426

loop_
_geom_bond_atom_site_label_1
_geom_bond_atom_site_label_2
_geom_bond_distance
_ccdc_geom_bond_type
C20   H36   1.083714 S    
C57   C60   1.404795 A    
C10   H19   1.109491 S    
C48   C59   1.394105 A    
C25   C26   1.424825 A    
C43   H43   1.080359 S    
C13   C14   1.527629 S    
C27   C28   1.400047 A    
C35   H40   1.073814 S    
Ba1   O13   2.797513 S    
C2    H4    1.110716 S    
C15   O24   1.403704 S    
O6    C10   1.404205 S    
C28   H37   1.081899 S    
H32   C16   1.109932 S    
P8    C27   1.851904 S    
C64   H61   1.106853 S    
C17   C18   1.408184 A    
C5    H8    1.094950 S    
C33   C34   1.414503 A    
O16   P7    1.757088 S    
P3    O11   1.749867 S    
C24   C25   1.419084 A    
C2    H5    1.110038 S    
O11   C2    1.405592 S    
C8    C9    1.522130 S    
C61   H52   1.113179 S    
N1    O25   1.294373 A    
C42   C43   1.409928 A    
C29   C30   1.435418 A    
C7    H14   1.111214 S    
C30   C35   1.409087 A    
C35   C36   1.402315 A    
P1    O1    1.515453 D    
P1    C46   1.876161 S    
C13   H27   1.109989 S    
C45   C46   1.397032 A    
C39   C40   1.394670 A    
C12   H24   1.111606 S    
O19   C13   1.404873 S    
C11   O22   1.406951 S    
C37   C38   1.418301 A    
C61   H51   1.112726 S    
O12   Ba2   2.836219 S    
P4    Ba2   3.394690 S    
P5    O18   1.547975 D    
C40   H42   1.083885 S    
C31   C32   1.422438 A    
C47   H47   1.085360 S    
C54   C55   1.331406 D    
C42   C44   1.411754 A    
P2    O10   1.744288 S    
C47   C50   1.483228 S    
C6    C7    1.530037 S    
C1    C10   1.521373 S    
C21   C23   1.405074 A    
C1    H2    1.110474 S    
C4    O15   1.430614 S    
C62   H55   1.112508 S    
C58   H46   1.081916 S    
P2    O20   1.570963 S    
C54   H49   1.085475 S    
P5    O17   1.747515 S    
O5    C6    1.394523 S    
O13   Ba2   2.921977 S    
C11   H21   1.110671 S    
N2    O30   1.300813 A    
C23   H38   1.080608 S    
C32   C42   1.418540 A    
C49   H45   1.085407 S    
O7    Ba1   2.860906 S    
H1    C10   1.110588 S    
O14   P8    1.740311 S    
N1    O26   1.302320 A    
C22   C26   1.411455 A    
C64   H62   1.109055 S    
C63   H58   1.113576 S    
Ba1   Ba2   4.523533 S    
C11   H22   1.110656 S    
O17   Ba2   2.755025 S    
C9    O27   1.415524 S    
P1    O5    1.756726 S    
C33   C46   1.433129 A    
P7    C50   1.831094 S    
C15   H31   1.111020 S    
O4    P6    1.540952 D    
C2    C3    1.520383 S    
O27   C61   1.414147 S    
C62   H56   1.109349 S    
C14   H29   1.111181 S    
C36   C39   1.402663 A    
C4    O31   1.427988 S    
C64   H60   1.108545 S    
C18   C19   1.403800 A    
C58   C59   1.398151 A    
C56   C58   1.392212 A    
P7    O22   1.751756 S    
C4    C5    1.533747 S    
P2    Ba1   3.412885 S    
C26   C37   1.407251 A    
C24   C27   1.415406 A    
P1    O2    1.565128 S    
O2    Ba1   2.921211 S    
C52   C54   1.488590 S    
P4    O12   1.515753 D    
C8    H15   1.106426 S    
C17   C31   1.407214 A    
C63   H59   1.101397 S    
C1    H3    1.110641 S    
C6    H11   1.101955 S    
Ba2   O20   2.788622 S    
C31   C38   1.409557 A    
C28   C29   1.398246 A    
C12   H23   1.114427 S    
C7    H12   1.108500 S    
C34   H39   1.079083 S    
C45   H44   1.081816 S    
C15   H30   1.109110 S    
Ba2   O21   2.861083 S    
P4    O13   1.565128 S    
C3    H25   1.109438 S    
C62   H54   1.113496 S    
C40   C41   1.400835 A    
C5    H10   1.108115 S    
C19   H35   1.081540 S    
C9    H17   1.106104 S    
Ba1   O16   2.789153 S    
P2    O7    1.501700 D    
P7    O21   1.562675 D    
C21   C22   1.408031 A    
C16   H34   1.110469 S    
P3    O8    1.735739 S    
N2    O29   1.300748 A    
C3    H7    1.110683 S    
P5    C51   1.856463 S    
C61   H53   1.107512 S    
O10   C8    1.396557 S    
C15   C16   1.521077 S    
C49   C50   1.339491 D    
C18   C34   1.408244 A    
C23   C24   1.413702 A    
O8    Ba1   2.754436 S    
C63   H57   1.109057 S    
C14   N2    1.459114 S    
C48   C60   1.397165 A    
C11   C12   1.525641 S    
O3    P6    1.735692 S    
P2    C59   1.823825 S    
P4    C29   1.899649 S    
C14   H28   1.108854 S    
C41   C43   1.399410 A    
C17   C22   1.421095 A    
C56   C57   1.400872 A    
C4    O32   1.426190 S    
C55   H50   1.085947 S    
C5    H9    1.097715 S    
C12   O28   1.410117 S    
O1    Ba1   2.835714 S    
P3    C60   1.840362 S    
C52   C53   1.535876 S    
C51   C52   1.513822 S    
C39   H41   1.076664 S    
C8    H16   1.102699 S    
O31   C63   1.413955 S    
C44   C45   1.400293 A    
O2    Ba2   2.798056 S    
O32   C64   1.423681 S    
P4    O15   1.782735 S    
O16   Ba2   2.910652 S    
Ba1   O20   2.911418 S    
O14   Ba2   2.785467 S    
C9    H18   1.108754 S    
P1    Ba1   3.394179 S    
C7    H13   1.110492 S    
C48   H48   1.081970 S    
C38   C41   1.408424 A    
C1    H20   1.109297 S    
C13   H26   1.109165 S    
P8    O23   1.536958 D    
C49   C53   1.498136 S    
C6    N1    1.450590 S    
C47   C51   1.347081 D    
P5    O19   1.749342 S    
C20   C21   1.404777 A    
C19   C20   1.400146 A    
C16   H33   1.110588 S    
P6    C44   1.847635 S    
P3    O9    1.546429 D    
C55   C57   1.462463 S    
C3    H6    1.110412 S    
C32   C33   1.424999 A    
O6    P6    1.750986 S    
O28   C62   1.410144 S    
C36   C37   1.405525 A    
P8    O24   1.750687 S    
C25   C30   1.428776 A    
O3    Ba1   2.786070 S    
