data_mof_unit_66413.cif
_audit_creation_date              2012-12-10T19:08:05-0500
_audit_creation_method            fapswitch 2.2
_symmetry_space_group_name_H-M    P1
_symmetry_Int_Tables_number       1
_space_group_crystal_system       triclinic
_cell_length_a                    13.047596
_cell_length_b                    13.621705
_cell_length_c                    23.452743
_cell_angle_alpha                 89.985232
_cell_angle_beta                  92.751016
_cell_angle_gamma                 85.778918
_cell_volume                      4152.14042901

loop_
_atom_site_label
_atom_site_type_symbol
_atom_type_description
_atom_site_fract_x
_atom_site_fract_y
_atom_site_fract_z
_atom_type_partial_charge
C1    C     C_R   0.481238 0.685172 0.499385 0.901764
C2    C     C_R   0.594986 0.507728 0.300081 -0.190076
C3    C     C_R   0.404140 0.491689 0.759101 -0.084695
C4    C     C_R   0.595892 0.508071 0.240902 -0.084707
C5    C     C_R   0.495860 0.499115 0.791522 0.301755
C6    C     C_R   0.504153 0.500808 0.208478 0.301810
C7    C     C_1   0.533661 0.211669 0.501101 -0.151336
C8    C     C_1   0.466339 0.788331 0.498898 -0.151336
C9    C     C_2   0.544598 0.020497 0.501456 -0.144300
C10   C     C_2   0.455402 0.979503 0.498544 -0.144300
C11   C     C_1   0.457446 0.875756 0.498609 0.037503
C12   C     C_R   0.518762 0.314828 0.500615 0.901760
C13   C     C_1   0.542554 0.124244 0.501391 0.037502
C14   C     C_2   0.032949 0.476841 0.481876 0.042028
C15   C     C_2   0.967051 0.523159 0.518124 0.042025
C16   C     C_R   0.499339 0.499985 0.610862 0.875357
C17   C     C_R   0.500661 0.500013 0.389138 0.875356
C18   C     C_1   0.854799 0.518247 0.512510 0.184131
C19   C     C_1   0.145201 0.481753 0.487490 0.184132
C20   C     C_R   0.494768 0.414569 0.119666 0.530945
C21   C     C_R   0.505236 0.585351 0.880337 0.530933
C22   C     C_R   0.513913 0.587730 0.120022 0.531513
C23   C     C_R   0.588578 0.506797 0.765055 -0.089230
C24   C     C_R   0.486118 0.412184 0.879980 0.531503
C25   C     C_R   0.512563 0.590541 0.059963 -0.080955
C26   C     C_R   0.487455 0.409376 0.940039 -0.080945
C27   C     C_R   0.501304 0.500886 0.030076 -0.045927
C28   C     C_R   0.498710 0.499031 0.969926 -0.045928
C29   C     C_R   0.492529 0.412764 0.060239 -0.045768
C30   C     C_R   0.507480 0.587153 0.939764 -0.045757
C31   C     C_R   0.521338 0.678360 0.028490 0.209007
C32   C     C_R   0.478673 0.321558 0.971512 0.209011
C33   C     C_R   0.518603 0.675314 0.969180 -0.180200
C34   C     C_R   0.411411 0.493314 0.234941 -0.089277
C35   C     C_R   0.481403 0.324604 0.030822 -0.180200
C36   C     C_R   0.589795 0.507089 0.705941 -0.193234
C37   C     C_R   0.410190 0.493051 0.294056 -0.193209
C38   C     C_R   0.497979 0.499743 0.673002 -0.055184
C39   C     C_R   0.502025 0.500237 0.326998 -0.055205
C40   C     C_R   0.405042 0.492062 0.699922 -0.190085
H1    H     H_    0.525453 0.743092 0.945955 0.215400
H2    H     H_    0.667597 0.513753 0.220151 0.151902
H3    H     H_    0.382053 0.023072 0.496150 0.172168
H4    H     H_    0.617947 0.976927 0.503850 0.172169
H5    H     H_    0.474545 0.256828 0.054047 0.215398
H6    H     H_    0.659474 0.512393 0.790413 0.149571
H7    H     H_    0.340501 0.487846 0.209580 0.149528
H8    H     H_    0.662380 0.513092 0.686139 0.177385
H9    H     H_    0.337587 0.487200 0.313856 0.177384
H10   H     H_    0.333298 0.486303 0.675375 0.181143
H11   H     H_    0.666745 0.513355 0.324630 0.181169
H12   H     H_    0.332453 0.485861 0.779853 0.151940
I1    I     I_    0.539367 0.821664 0.062711 -0.170746
I2    I     I_    0.460623 0.178259 0.937291 -0.170756
I3    I     I_    0.022562 0.607405 0.587525 -0.327099
I4    I     I_    0.977438 0.392596 0.412475 -0.327122
N1    N     N_R   0.504940 0.500954 0.147850 -0.363370
N2    N     N_R   0.495078 0.498963 0.852151 -0.363352
N3    N     N_1   0.234540 0.484780 0.490870 -0.084674
N4    N     N_1   0.765460 0.515220 0.509130 -0.084674
O1    O     O_R   0.402510 0.634760 0.496660 -0.599276
O2    O     O_2   0.512964 0.669220 0.850628 -0.534102
O3    O     O_2   0.523071 0.670098 0.150975 -0.505091
O4    O     O_2   0.476990 0.329811 0.849028 -0.505119
O5    O     O_R   0.597490 0.365240 0.503340 -0.599278
O6    O     O_R   0.572960 0.644530 0.502520 -0.601853
O7    O     O_R   0.427040 0.355470 0.497480 -0.601854
O8    O     O_R   0.414760 0.495140 0.580910 -0.611616
O9    O     O_R   0.585240 0.504860 0.419090 -0.611622
O10   O     O_R   0.585200 0.504910 0.586770 -0.615102
O11   O     O_R   0.414800 0.495090 0.413230 -0.615098
O12   O     O_2   0.487019 0.330704 0.149376 -0.534074
Zn1   Zn    Zn3+2 0.386190 0.493470 0.496090 1.012272
Zn2   Zn    Zn3+2 0.613810 0.506530 0.503910 1.012269

loop_
_geom_bond_atom_site_label_1
_geom_bond_atom_site_label_2
_ccdc_geom_bond_type
O10   Zn2   S    
C15   C18   S    
C2    C4    A    
C3    H12   S    
C31   C33   A    
C25   C31   A    
C16   O8    A    
C25   C27   A    
C34   C37   A    
C37   H9    S    
C9    C10   D    
N3    Zn1   S    
C21   C30   A    
C26   C28   A    
C5    C23   A    
C7    C13   T    
C33   H1    S    
C22   N1    A    
C28   C30   A    
C1    O6    A    
C10   H3    S    
C10   C11   S    
O1    Zn1   S    
C21   N2    A    
C24   O4    S    
C23   H6    S    
C16   C38   S    
C31   I1    S    
C14   I4    S    
C38   C40   A    
C6    N1    S    
C21   O2    S    
C4    H2    S    
C5    N2    S    
C8    C11   T    
C40   H10   S    
O7    Zn1   S    
C2    C39   A    
C32   I2    S    
C24   C26   A    
C3    C40   A    
C17   O11   A    
C36   H8    S    
C20   C29   A    
C17   C39   S    
C7    C12   S    
C37   C39   A    
C12   O7    A    
C18   N4    T    
C4    C6    A    
C27   C29   A    
C2    H11   S    
C36   C38   A    
C35   H5    S    
C32   C35   A    
C6    C34   A    
O9    Zn2   S    
C16   O10   A    
C24   N2    A    
C23   C36   A    
C12   O5    A    
C15   I3    S    
N4    Zn2   S    
C27   C28   A    
O11   Zn1   S    
C29   C35   A    
C14   C15   D    
C20   O12   S    
C9    H4    S    
C9    C13   S    
C34   H7    S    
C17   O9    A    
C30   C33   A    
C19   N3    T    
O8    Zn1   S    
C20   N1    A    
C14   C19   S    
C26   C32   A    
O5    Zn2   S    
C22   O3    S    
C1    C8    S    
C1    O1    A    
C3    C5    A    
C22   C25   A    
O6    Zn2   S    
