data_mof_unit_36711.cif
_audit_creation_date              2013-03-05T15:46:58-0500
_audit_creation_method            fapswitch 2.2
_symmetry_space_group_name_H-M    P1
_symmetry_Int_Tables_number       1
_space_group_crystal_system       triclinic
_cell_length_a                    10.183375
_cell_length_b                    10.846661
_cell_length_c                    14.98582
_cell_angle_alpha                 90.536785
_cell_angle_beta                  81.743253
_cell_angle_gamma                 96.786929
_cell_volume                      1626.58252689

loop_
_atom_site_label
_atom_site_type_symbol
_atom_site_description
_atom_site_fract_x
_atom_site_fract_y
_atom_site_fract_z
_atom_type_partial_charge
O1    O     O_R   0.431060 0.692470 0.507460 -0.625802
O2    O     O_R   0.568940 0.307530 0.492540 -0.624982
O3    O     O_R   0.651120 0.659650 0.483670 -0.545459
O4    O     O_R   0.348880 0.340350 0.516330 -0.581445
C1    C     C_R   0.557791 0.732681 0.494464 0.942314
C2    C     C_R   0.442172 0.267450 0.505087 0.954868
O5    O     O_R   0.389960 0.516440 0.644050 -0.591089
O6    O     O_R   0.610040 0.483560 0.355950 -0.616791
O7    O     O_R   0.610030 0.483620 0.620260 -0.645715
O8    O     O_R   0.389970 0.516380 0.379740 -0.544432
C3    C     C_R   0.500651 0.498560 0.672484 1.018588
C4    C     C_R   0.499435 0.500377 0.327468 1.007555
Zn1   Zn    Zn3+2 0.353060 0.521920 0.515880 1.085067
Zn2   Zn    Zn3+2 0.646940 0.478080 0.484120 1.054527
C5    C     C_R   0.458059 0.394418 0.189161 0.250474
C6    C     C_R   0.516406 0.609070 0.812911 0.243410
C7    C     C_R   0.500586 0.503647 0.231603 -0.182871
C8    C     C_R   0.504347 0.496233 0.767671 -0.202609
C9    C     C_R   0.556328 0.611494 0.182717 -0.137500
C10   C     C_R   0.507529 0.383246 0.811661 -0.142477
C11   C     C_R   0.554587 0.614394 0.088428 0.001155
C12   C     C_R   0.495605 0.382152 0.906597 -0.019838
C13   C     C_R   0.521544 0.499694 0.044665 0.045104
C14   C     C_R   0.522231 0.497086 0.951000 0.046137
C15   C     C_R   0.484876 0.387550 0.094889 -0.024091
C16   C     C_R   0.546417 0.609964 0.901464 -0.014508
C17   C     C_R   0.588525 0.726020 0.036167 -0.112627
C18   C     C_R   0.461848 0.270158 0.957522 -0.118212
C19   C     C_R   0.594910 0.721003 0.942021 -0.064189
C20   C     C_R   0.470061 0.272114 0.050123 -0.044227
H1    H     H_    0.597732 0.105153 0.447672 0.213291
H2    H     H_    0.399339 0.894292 0.547642 0.221116
C21   C     C_2   0.593896 0.866155 0.488821 0.202882
C22   C     C_2   0.405604 0.134286 0.510735 0.199160
C23   C     C_2   0.494369 0.935847 0.512074 -0.163990
C24   C     C_2   0.503804 0.064032 0.485097 -0.166002
N1    N     N_2   0.842700 0.448880 0.462930 -0.208311
N2    N     N_2   0.157300 0.551120 0.537070 -0.201466
C25   C     C_2   0.924314 0.502705 0.514417 -0.086068
C26   C     C_2   0.065671 0.475251 0.506705 -0.093401
H3    H     H_    0.131258 0.634364 0.563305 0.209926
H4    H     H_    0.878522 0.389520 0.413737 0.194580
N3    N     N_R   0.378596 0.294545 0.241584 0.221652
O9    O     O_R   0.261378 0.252176 0.221736 -0.334668
O10   O     O_R   0.425796 0.241117 0.305457 -0.385319
N4    N     N_R   0.489899 0.720697 0.771006 0.200110
O11   O     O_R   0.400841 0.786640 0.811775 -0.341427
O12   O     O_R   0.558276 0.759628 0.694404 -0.389764
C27   C     C_2   0.622121 0.716157 0.231012 0.424422
H5    H     H_    0.725173 0.752520 0.207827 0.142758
O13   O     O_2   0.559751 0.765038 0.294565 -0.570063
C28   C     C_2   0.536005 0.270287 0.758622 0.420108
H6    H     H_    0.606414 0.211953 0.778753 0.120008
O14   O     O_2   0.477096 0.238482 0.695407 -0.568561
C29   C     C_2   0.604452 0.850211 0.078609 0.380700
H7    H     H_    0.524466 0.877705 0.127828 0.138781
O15   O     O_2   0.708159 0.920040 0.061517 -0.515686
C30   C     C_2   0.400213 0.155235 0.917125 0.386501
H8    H     H_    0.323164 0.161865 0.874888 0.147260
O16   O     O_2   0.438170 0.054329 0.927085 -0.578308
C31   C     C_2   0.662923 0.829334 0.886093 0.620218
H9    H     H_    0.643916 0.923088 0.904512 0.134552
O17   O     O_2   0.744898 0.814184 0.820209 -0.505548
C32   C     C_2   0.473836 0.153300 0.097900 0.590754
H10   H     H_    0.399059 0.074692 0.092618 0.098617
O18   O     O_2   0.562746 0.142549 0.142943 -0.501614
N5    N     N_R   0.272510 0.083124 0.548895 0.214905
O19   O     O_R   0.207081 0.139135 0.615143 -0.336542
O20   O     O_R   0.209537 0.992163 0.508885 -0.309728
N6    N     N_R   0.728421 0.918303 0.454598 0.239323
O21   O     O_R   0.800403 0.860660 0.392616 -0.298416
O22   O     O_R   0.785656 0.012529 0.494724 -0.328361
C33   C     C_2   0.097650 0.356443 0.466115 0.557351
H11   H     H_    0.048358 0.269915 0.497002 0.100953
O23   O     O_2   0.170848 0.354296 0.394530 -0.469183
C34   C     C_2   0.877393 0.590667 0.583893 0.572847
H12   H     H_    0.854851 0.561178 0.653960 0.046110
O24   O     O_2   0.871882 0.698575 0.564022 -0.456795

loop_
_geom_bond_atom_site_label_1
_geom_bond_atom_site_label_2
_geom_bond_distance
_ccdc_geom_bond_type
C29   H7    1.084970 S    
C3    C8    1.432880 S    
C20   C32   1.487221 S    
C17   C19   1.403835 A    
C33   H11   1.084954 S    
C23   C24   1.440009 S    
O7    Zn2   2.022369 S    
O5    C3    1.296514 A    
O1    C1    1.300019 A    
C9    C11   1.416331 A    
C34   O24   1.220089 D    
C17   C29   1.485716 S    
C5    C15   1.402841 A    
C30   O16   1.220338 D    
N1    H4    1.029783 S    
C26   C33   1.471165 S    
O4    Zn1   1.964907 S    
C31   O17   1.221198 D    
C7    C9    1.402497 A    
C27   O13   1.219809 D    
C1    C21   1.451155 S    
C4    C7    1.435710 S    
C13   C14   1.402703 A    
N6    O21   1.301112 A    
C22   C24   1.338873 D    
C11   C17   1.428257 A    
C12   C18   1.421105 A    
C33   O23   1.216943 D    
O2    C2    1.300006 A    
C28   O14   1.218402 D    
N4    O12   1.300352 A    
C11   C13   1.428386 A    
C6    C16   1.403595 A    
C19   C31   1.490717 S    
N5    O19   1.301176 A    
H2    C23   1.084904 S    
C34   H12   1.085012 S    
N2    H3    1.029639 S    
O4    C2    1.298169 A    
C6    N4    1.439928 S    
C25   C26   1.492337 S    
C30   H8    1.085482 S    
C2    C22   1.448516 S    
N5    O20   1.301527 A    
C32   O18   1.221049 D    
N3    O9    1.301647 A    
N3    O10   1.300555 A    
C9    C27   1.485122 S    
O6    C4    1.293131 A    
C25   C34   1.472698 S    
O7    C3    1.292023 A    
Zn1   N2    2.034874 S    
O3    Zn2   1.964905 S    
O8    C4    1.295661 A    
C21   N6    1.442274 S    
C6    C8    1.394805 A    
C10   C12   1.410427 A    
C29   O15   1.221252 D    
C12   C14   1.423664 A    
O1    Zn1   1.922823 S    
C28   H6    1.085529 S    
C15   C20   1.417485 A    
C5    C7    1.392652 A    
N4    O11   1.301281 A    
O6    Zn2   2.012127 S    
C14   C16   1.415631 A    
O3    C1    1.299344 A    
O8    Zn1   2.022366 S    
C22   N5    1.441353 S    
C18   C30   1.491417 S    
C32   H10   1.084297 S    
C18   C20   1.401977 A    
C5    N3    1.439333 S    
C10   C28   1.488814 S    
Zn2   N1    2.034874 S    
N2    C26   1.299372 D    
C21   C23   1.339697 D    
C8    C10   1.402929 A    
C13   C15   1.419358 A    
C31   H9    1.083375 S    
O2    Zn2   1.922825 S    
O5    Zn1   2.012130 S    
C16   C19   1.412710 A    
N1    C25   1.299218 D    
C27   H5    1.085161 S    
H1    C24   1.085434 S    
N6    O22   1.301614 A    
