data_mof_unit_16453.cif
_audit_creation_date              2012-12-11T14:54:23-0500
_audit_creation_method            fapswitch 2.2
_symmetry_space_group_name_H-M    P1
_symmetry_Int_Tables_number       1
_space_group_crystal_system       triclinic
_cell_length_a                    18.999376
_cell_length_b                    10.904915
_cell_length_c                    18.847269
_cell_angle_alpha                 90.019526
_cell_angle_beta                  90.072321
_cell_angle_gamma                 90.013233
_cell_volume                      3904.89777069

loop_
_atom_site_label
_atom_site_type_symbol
_atom_type_description
_atom_site_fract_x
_atom_site_fract_y
_atom_site_fract_z
_atom_type_partial_charge
C1    C     C_R   0.730521 0.377094 0.646201 0.543432
C2    C     C_R   0.271304 0.375276 0.354982 0.554678
C3    C     C_R   0.230521 0.877095 0.646201 0.543437
C4    C     C_R   0.771303 0.875278 0.354982 0.554665
C5    C     C_3   0.536593 0.340763 0.443717 -0.226900
C6    C     C_3   0.561064 0.341769 0.520443 -0.224732
C7    C     C_3   0.036591 0.840779 0.443722 -0.226902
C8    C     C_3   0.061052 0.841784 0.520447 -0.224732
C9    C     C_R   0.690997 0.885577 0.534649 0.129010
C10   C     C_R   0.292560 0.848132 0.460144 0.089295
C11   C     C_R   0.190999 0.385571 0.534651 0.129012
C12   C     C_R   0.792557 0.348128 0.460143 0.089312
C13   C     C_R   0.695946 0.883225 0.461240 -0.089676
C14   C     C_R   0.292492 0.837094 0.533645 -0.125933
C15   C     C_R   0.195947 0.383223 0.461242 -0.089674
C16   C     C_R   0.792489 0.337089 0.533644 -0.125921
C17   C     C_R   0.760098 0.904711 0.428796 -0.024792
C18   C     C_R   0.249882 0.913951 0.575114 -0.052429
C19   C     C_R   0.260100 0.404705 0.428797 -0.024790
C20   C     C_R   0.749881 0.413948 0.575113 -0.052424
C21   C     C_R   0.819555 0.933326 0.469557 -0.083177
C22   C     C_R   0.209300 0.004251 0.543365 -0.124002
C23   C     C_R   0.319558 0.433315 0.469559 -0.083177
C24   C     C_R   0.709299 0.504249 0.543365 -0.124008
C25   C     C_R   0.815768 0.942023 0.541861 0.117726
C26   C     C_R   0.203776 0.009546 0.470837 0.115691
C27   C     C_R   0.315771 0.442015 0.541863 0.117729
C28   C     C_R   0.703774 0.509543 0.470836 0.115688
C29   C     C_R   0.750527 0.921658 0.575797 0.022807
C30   C     C_R   0.248857 0.936364 0.427779 0.028230
C31   C     C_R   0.250529 0.421653 0.575799 0.022808
C32   C     C_R   0.748855 0.436361 0.427778 0.028243
C33   C     C_R   0.552771 0.056946 0.978375 -0.134914
C34   C     C_R   0.534258 0.059366 0.049317 -0.129774
C35   C     C_R   0.052802 0.556989 0.978386 -0.134915
C36   C     C_R   0.034291 0.559413 0.049328 -0.129755
C37   C     C_R   0.505720 0.166156 0.079158 0.026725
C38   C     C_R   0.545031 0.161605 0.936306 0.011213
C39   C     C_R   0.005705 0.666169 0.079153 0.026802
C40   C     C_R   0.045012 0.661609 0.936302 0.011201
C41   C     C_R   0.501569 0.273557 0.038353 -0.076102
C42   C     C_R   0.521298 0.271382 0.967150 -0.104895
C43   C     C_R   0.001490 0.773532 0.038330 -0.076049
C44   C     C_R   0.021219 0.771354 0.967127 -0.104982
C45   C     C_R   0.531469 0.154848 0.646528 0.564769
C46   C     C_R   0.435149 0.150473 0.360753 0.546733
C47   C     C_R   0.031469 0.654847 0.646526 0.564762
C48   C     C_R   0.935149 0.650472 0.360747 0.546758
C49   C     C_R   0.815841 0.954691 0.960135 0.365657
C50   C     C_R   0.183792 0.941045 0.041455 0.361237
C51   C     C_R   0.315889 0.454502 0.960095 0.365706
C52   C     C_R   0.683798 0.441136 0.041442 0.361208
C53   C     C_R   0.817377 0.949813 0.032761 -0.094978
C54   C     C_R   0.180194 0.935487 0.968850 -0.096327
C55   C     C_R   0.317442 0.449615 0.032723 -0.094944
C56   C     C_R   0.680210 0.435596 0.968836 -0.096353
C57   C     C_R   0.761043 0.898895 0.070659 -0.031344
C58   C     C_R   0.239087 0.900399 0.928769 -0.031170
C59   C     C_R   0.261078 0.398811 0.070636 -0.031333
C60   C     C_R   0.739093 0.400417 0.928766 -0.031187
C61   C     C_R   0.703334 0.849594 0.033994 -0.157080
C62   C     C_R   0.302031 0.869278 0.962771 -0.141811
C63   C     C_R   0.203342 0.349578 0.033982 -0.157094
C64   C     C_R   0.802021 0.369208 0.962780 -0.141776
C65   C     C_R   0.700398 0.858886 0.960397 -0.200645
C66   C     C_R   0.306898 0.880559 0.036053 -0.185128
C67   C     C_R   0.200400 0.358860 0.960385 -0.200639
C68   C     C_R   0.806881 0.380484 0.036063 -0.185123
C69   C     C_R   0.754893 0.917898 0.923612 0.034564
C70   C     C_R   0.248275 0.920493 0.075412 0.031566
C71   C     C_R   0.254908 0.417817 0.923589 0.034572
C72   C     C_R   0.748268 0.420496 0.075412 0.031549
C73   C     C_R   0.741347 0.968408 0.647439 0.576826
C74   C     C_R   0.258472 0.971186 0.353638 0.573471
C75   C     C_R   0.241348 0.468406 0.647440 0.576831
C76   C     C_R   0.758472 0.471185 0.353637 0.573463
C77   C     C_R   0.727943 0.374707 0.854193 0.539976
C78   C     C_R   0.272222 0.373975 0.145478 0.550690
C79   C     C_R   0.227940 0.874702 0.854194 0.539985
C80   C     C_R   0.772212 0.874000 0.145488 0.550674
C81   C     C_R   0.562850 0.153299 0.860977 0.547836
C82   C     C_R   0.469015 0.157216 0.147109 0.553315
C83   C     C_R   0.062843 0.653300 0.860978 0.547816
C84   C     C_R   0.969011 0.657217 0.147108 0.553334
C85   C     C_R   0.742242 0.968395 0.853358 0.556533
C86   C     C_R   0.258424 0.969422 0.146205 0.572744
C87   C     C_R   0.242246 0.468377 0.853351 0.556552
C88   C     C_R   0.758423 0.469421 0.146206 0.572712
C89   C     C_R   0.449381 0.157305 0.436814 0.000349
C90   C     C_R   0.491488 0.163008 0.580465 0.030610
C91   C     C_R   0.949404 0.657303 0.436802 0.000381
C92   C     C_R   0.991492 0.663002 0.580458 0.030594
C93   C     C_R   0.476335 0.263737 0.467232 0.006547
C94   C     C_R   0.498189 0.265540 0.537059 0.059068
C95   C     C_R   0.976338 0.763736 0.467225 0.006548
C96   C     C_R   0.998186 0.765537 0.537053 0.059051
C97   C     C_R   0.454807 0.060735 0.553336 -0.115494
C98   C     C_R   0.434738 0.057563 0.481634 -0.136099
C99   C     C_R   0.954835 0.560721 0.553321 -0.115522
C100  C     C_R   0.934784 0.557548 0.481619 -0.136106
Cr1   Cr    Cr6+3 0.771950 0.169480 0.750100 1.102088
Cr2   Cr    Cr6+3 0.228050 0.169480 0.249900 1.100022
Cr3   Cr    Cr6+3 0.271950 0.669480 0.750100 1.102083
Cr4   Cr    Cr6+3 0.728050 0.669480 0.249900 1.100024
Cr5   Cr    Cr6+3 0.614930 0.323340 0.749170 1.070342
Cr6   Cr    Cr6+3 0.385070 0.323340 0.250830 1.064689
Cr7   Cr    Cr6+3 0.114930 0.823340 0.749170 1.070317
Cr8   Cr    Cr6+3 0.885070 0.823340 0.250830 1.064706
Cr9   Cr    Cr6+3 0.616590 0.010620 0.750610 1.072782
Cr10  Cr    Cr6+3 0.383410 0.010620 0.249390 1.072473
Cr11  Cr    Cr6+3 0.116590 0.510620 0.750610 1.072792
Cr12  Cr    Cr6+3 0.883410 0.510620 0.249390 1.072465
H1    H     H_    0.447043 0.979569 0.585497 0.177395
H2    H     H_    0.412256 0.974696 0.460179 0.181013
H3    H     H_    0.947076 0.479550 0.585479 0.177419
H4    H     H_    0.912321 0.474672 0.460163 0.181054
H5    H     H_    0.864437 0.983189 0.058910 0.163505
H6    H     H_    0.130020 0.956043 0.944365 0.160776
H7    H     H_    0.364528 0.482912 0.058861 0.163463
H8    H     H_    0.630048 0.456232 0.944344 0.160766
H9    H     H_    0.660951 0.804108 0.061956 0.167910
H10   H     H_    0.347212 0.837909 0.932832 0.172291
H11   H     H_    0.160938 0.304167 0.061956 0.167843
H12   H     H_    0.847192 0.337768 0.932850 0.172387
H13   H     H_    0.654485 0.824768 0.932643 0.144491
H14   H     H_    0.357270 0.863966 0.061261 0.158546
H15   H     H_    0.154468 0.324797 0.932641 0.144496
H16   H     H_    0.857243 0.363818 0.061282 0.158548
H17   H     H_    0.017793 0.931139 0.424328 0.213989
H18   H     H_    0.111286 0.791481 0.528879 0.138108
H19   H     H_    0.517800 0.431125 0.424323 0.213990
H20   H     H_    0.611295 0.291454 0.528871 0.138097
H21   H     H_    0.573134 0.291517 0.407496 0.162588
H22   H     H_    0.558098 0.433683 0.545654 0.220890
H23   H     H_    0.073139 0.791551 0.407505 0.162599
H24   H     H_    0.058076 0.933692 0.545660 0.220900
H25   H     H_    0.650142 0.861835 0.429399 0.206206
H26   H     H_    0.322677 0.763871 0.557801 0.205178
H27   H     H_    0.150143 0.361837 0.429400 0.206203
H28   H     H_    0.822673 0.263865 0.557800 0.205176
H29   H     H_    0.870566 0.947854 0.445406 0.201110
H30   H     H_    0.174891 0.061617 0.575026 0.201842
H31   H     H_    0.370571 0.447836 0.445408 0.201103
H32   H     H_    0.674891 0.561616 0.575026 0.201835
H33   H     H_    0.570749 0.971741 0.955641 0.133520
H34   H     H_    0.538406 0.975253 0.079621 0.142305
H35   H     H_    0.070818 0.471811 0.955662 0.133492
H36   H     H_    0.038481 0.475328 0.079646 0.142281
H37   H     H_    0.479505 0.356955 0.060178 0.169239
H38   H     H_    0.515190 0.353884 0.935813 0.176344
H39   H     H_    0.979378 0.856895 0.060140 0.169196
H40   H     H_    0.015064 0.853824 0.935777 0.176337
O1    O     O_R   0.787510 0.042610 0.670410 -0.463899
O2    O     O_R   0.212490 0.042610 0.329590 -0.464678
O3    O     O_R   0.287510 0.542610 0.670410 -0.463894
O4    O     O_R   0.712490 0.542610 0.329590 -0.464687
O5    O     O_R   0.556450 0.252890 0.823790 -0.492687
O6    O     O_R   0.443550 0.252890 0.176210 -0.494084
O7    O     O_R   0.056450 0.752890 0.823790 -0.492742
O8    O     O_R   0.943550 0.752890 0.176210 -0.494054
O9    O     O_R   0.545750 0.051070 0.830560 -0.504623
O10   O     O_R   0.454250 0.051070 0.169440 -0.517332
O11   O     O_R   0.045750 0.551070 0.830560 -0.504604
O12   O     O_R   0.954250 0.551070 0.169440 -0.517327
O13   O     O_R   0.681210 0.959150 0.825320 -0.541725
O14   O     O_R   0.318790 0.959150 0.174680 -0.519066
O15   O     O_R   0.181210 0.459150 0.825320 -0.541723
O16   O     O_R   0.818790 0.459150 0.174680 -0.519063
O17   O     O_3   0.667820 0.167810 0.749960 -0.300374
O18   O     O_3   0.332180 0.167810 0.250040 -0.303556
O19   O     O_3   0.167820 0.667810 0.749960 -0.300360
O20   O     O_3   0.832180 0.667810 0.250040 -0.303555
O21   O     O_R   0.765670 0.292090 0.675090 -0.497106
O22   O     O_R   0.234330 0.292090 0.324910 -0.483403
O23   O     O_R   0.265670 0.792090 0.675090 -0.497107
O24   O     O_R   0.734330 0.792090 0.324910 -0.483407
O25   O     O_R   0.670220 0.409020 0.668560 -0.511044
O26   O     O_R   0.329780 0.409020 0.331440 -0.504220
O27   O     O_R   0.170220 0.909020 0.668560 -0.511041
O28   O     O_R   0.829780 0.909020 0.331440 -0.504231
O29   O     O_R   0.556580 0.251590 0.674980 -0.480764
O30   O     O_R   0.443420 0.251590 0.325020 -0.499389
O31   O     O_R   0.056580 0.751590 0.674980 -0.480766
O32   O     O_R   0.943420 0.751590 0.325020 -0.499391
O33   O     O_R   0.545890 0.049670 0.670030 -0.475562
O34   O     O_R   0.454110 0.049670 0.329970 -0.480347
O35   O     O_R   0.045890 0.549670 0.670030 -0.475565
O36   O     O_R   0.954110 0.549670 0.329970 -0.480379
O37   O     O_R   0.681340 0.957860 0.676500 -0.465495
O38   O     O_R   0.318660 0.957860 0.323500 -0.483959
O39   O     O_R   0.181340 0.457860 0.676500 -0.465493
O40   O     O_R   0.818660 0.457860 0.323500 -0.483962
O41   O     O_R   0.787380 0.044010 0.830940 -0.426241
O42   O     O_R   0.212620 0.044010 0.169060 -0.435734
O43   O     O_R   0.287380 0.544010 0.830940 -0.426271
O44   O     O_R   0.712620 0.544010 0.169060 -0.435710
O45   O     O_R   0.765540 0.293390 0.823910 -0.492657
O46   O     O_R   0.234460 0.293390 0.176090 -0.495879
O47   O     O_R   0.265540 0.793390 0.823910 -0.492677
O48   O     O_R   0.734460 0.793390 0.176090 -0.495868
O49   O     O_R   0.670090 0.410410 0.829090 -0.529239
O50   O     O_R   0.329910 0.410410 0.170910 -0.518570
O51   O     O_R   0.170090 0.910410 0.829090 -0.529218
O52   O     O_R   0.829910 0.910410 0.170910 -0.518595
F1    F     F_    0.872950 0.001905 0.926410 -0.623829
F2    F     F_    0.124904 0.973214 0.077838 -0.628988
F3    F     F_    0.373011 0.501631 0.926352 -0.623799
F4    F     F_    0.624914 0.473379 0.077811 -0.629038
Br1   Br    Br    0.601047 0.836550 0.572302 -0.434116
Br2   Br    Br    0.349597 0.734852 0.407266 -0.473556
Br3   Br    Br    0.101052 0.336535 0.572305 -0.434142
Br4   Br    Br    0.849599 0.234855 0.407265 -0.473593
Br5   Br    Br    0.902707 0.989120 0.587983 -0.473174
Br6   Br    Br    0.126305 0.109543 0.438206 -0.488204
Br7   Br    Br    0.402710 0.489115 0.587985 -0.473139
Br8   Br    Br    0.626302 0.609541 0.438206 -0.488200

loop_
_geom_bond_atom_site_label_1
_geom_bond_atom_site_label_2
_ccdc_geom_bond_type
C28   Br8   S    
C27   Br7   S    
C49   C53   A    
C58   C62   A    
C93   C94   A    
C73   O1    A    
C55   C59   A    
C63   H11   S    
C8    H24   S    
C34   C37   A    
C56   H8    S    
C41   C42   A    
C88   O44   A    
Cr1   O21   S    
C95   C96   A    
C8    C96   S    
C3    O23   A    
C23   H31   S    
C97   C98   A    
Cr10  O10   S    
C45   O29   A    
C7    C8    S    
Cr4   O24   S    
C46   C89   S    
Cr7   O19   S    
C15   C19   A    
C1    O21   A    
C44   H40   S    
Cr5   O17   S    
C37   C41   A    
C52   C72   A    
C64   C68   A    
C39   C84   S    
C48   O36   A    
C5    H19   S    
C83   O11   A    
Cr2   O46   S    
C99   H3    S    
C5    C6    S    
C30   C74   S    
C53   H5    S    
C98   H2    S    
C10   Br2   S    
C41   H37   S    
C80   O48   A    
C14   H26   S    
Cr5   O49   S    
C92   C96   A    
Cr8   O28   S    
C3    C18   S    
C61   H9    S    
C47   C92   S    
Cr1   O45   S    
C78   O50   A    
C6    H22   S    
C9    C13   A    
Cr6   O30   S    
C3    O27   A    
C11   Br3   S    
C74   O38   A    
C11   C15   A    
C36   H36   S    
C87   O15   A    
C35   C36   A    
Cr9   O17   S    
C88   O16   A    
C48   C91   S    
C86   O14   A    
Cr1   O17   S    
C2    O26   A    
C23   C27   A    
C91   C100  A    
Cr2   O2    S    
C90   C97   A    
C67   C71   A    
C84   O12   A    
C9    C29   A    
Cr6   O26   S    
Cr4   O20   S    
C49   C69   A    
C51   F3    S    
C11   C31   A    
C18   C22   A    
C12   C32   A    
Cr3   O19   S    
Cr4   O48   S    
C57   C80   S    
C40   C83   S    
C16   H28   S    
C1    O25   A    
C4    O28   A    
C75   O39   A    
Cr2   O42   S    
C59   C78   S    
C72   C88   S    
Cr1   O41   S    
C60   C64   A    
C90   C94   A    
C15   H27   S    
C25   C29   A    
Cr12  O12   S    
Cr5   O5    S    
C60   C77   S    
C59   C63   A    
C81   O5    A    
Cr8   O32   S    
C27   C31   A    
C12   C16   A    
Cr11  O39   S    
C28   C32   A    
Cr11  O11   S    
C12   Br4   S    
C6    H20   S    
C10   C14   A    
Cr9   O37   S    
Cr3   O43   S    
C62   C66   A    
Cr3   O47   S    
C82   O10   A    
C51   C55   A    
Cr9   O33   S    
Cr6   O6    S    
Cr10  O38   S    
C17   C21   A    
C56   C60   A    
Cr7   O31   S    
C68   C72   A    
C74   O2    A    
C13   H25   S    
C19   C23   A    
C43   C44   A    
C63   C67   A    
Cr7   O51   S    
C76   O40   A    
C69   C85   S    
C67   H15   S    
Cr6   O50   S    
C10   C30   A    
C31   C75   S    
C99   C100  A    
Cr1   O1    S    
C16   C20   A    
C21   H29   S    
Cr7   O7    S    
C22   H30   S    
Cr3   O23   S    
C33   C34   A    
C5    H21   S    
C83   O7    A    
C35   H35   S    
C46   O34   A    
C45   C90   S    
C33   H33   S    
Cr12  O40   S    
C71   C87   S    
C4    C17   S    
C58   C79   S    
C47   O31   A    
C49   F1    S    
C26   C30   A    
Cr9   O13   S    
C79   O51   A    
C54   H6    S    
C38   C81   S    
C22   C26   A    
C68   H16   S    
C37   C82   S    
Cr4   O4    S    
Cr11  O15   S    
C97   H1    S    
C70   C86   S    
C50   F2    S    
C62   H10   S    
C43   H39   S    
C48   O32   A    
Cr12  O36   S    
C54   C58   A    
Cr3   O3    S    
C65   C69   A    
C21   C25   A    
Cr10  O34   S    
C1    C20   S    
C53   C57   A    
C79   O47   A    
Cr7   O27   S    
C2    C19   S    
C52   F4    S    
C81   O9    A    
C14   C18   A    
C36   C39   A    
C24   C28   A    
Cr5   O25   S    
C77   O49   A    
C32   C76   S    
C5    C93   S    
C51   C71   A    
C57   C61   A    
C55   H7    S    
Cr8   O8    S    
Cr2   O22   S    
C7    C95   S    
Cr11  O35   S    
C33   C38   A    
C13   C17   A    
C89   C98   A    
C26   Br6   S    
C85   O13   A    
C100  H4    S    
C46   O30   A    
Cr8   O20   S    
C84   O8    A    
C50   C70   A    
C66   H14   S    
C87   O43   A    
C50   C54   A    
C64   H12   S    
C86   O42   A    
C8    H18   S    
Cr10  O14   S    
C45   O33   A    
C65   H13   S    
C66   C70   A    
C77   O45   A    
Cr2   O18   S    
C24   H32   S    
C82   O6    A    
C25   Br5   S    
C76   O4    A    
C35   C40   A    
Cr11  O19   S    
C85   O41   A    
C61   C65   A    
C89   C93   A    
C42   H38   S    
C73   O37   A    
C7    H17   S    
C4    O24   A    
C7    H23   S    
C91   C95   A    
C38   C42   A    
C75   O3    A    
C40   C44   A    
C29   C73   S    
Cr10  O18   S    
Cr8   O52   S    
Cr6   O18   S    
C6    C94   S    
C9    Br1   S    
C34   H34   S    
Cr9   O9    S    
C78   O46   A    
Cr5   O29   S    
C80   O52   A    
C47   O35   A    
C39   C43   A    
C20   C24   A    
C2    O22   A    
C52   C56   A    
C92   C99   A    
Cr4   O44   S    
Cr12  O20   S    
Cr12  O16   S    
