data_mof_unit_10421.cif
_audit_creation_date              2013-03-05T15:53:44-0500
_audit_creation_method            fapswitch 2.2
_symmetry_space_group_name_H-M    P1
_symmetry_Int_Tables_number       1
_space_group_crystal_system       triclinic
_cell_length_a                    15.113831
_cell_length_b                    14.784655
_cell_length_c                    17.041089
_cell_angle_alpha                 108.946109
_cell_angle_beta                  106.733639
_cell_angle_gamma                 108.360235
_cell_volume                      3078.43646175

loop_
_atom_site_label
_atom_site_type_symbol
_atom_site_description
_atom_site_fract_x
_atom_site_fract_y
_atom_site_fract_z
_atom_type_partial_charge
C1    C     C_R   0.090176 0.273595 0.034968 -0.139740
H1    H     H_    0.169382 0.288297 0.065026 0.102698
N1    N     N_R   0.055640 0.348550 0.045600 -0.048808
C2    C     C_R   0.933529 0.453236 0.734546 -0.128580
H2    H     H_    0.854682 0.402816 0.683248 0.096270
N2    N     N_R   0.960830 0.507850 0.823710 -0.041302
C3    C     C_R   0.717000 0.219134 0.825666 -0.119074
H3    H     H_    0.683559 0.172813 0.856354 0.097003
N3    N     N_R   0.811290 0.303400 0.871650 -0.037097
C4    C     C_R   0.279882 0.558913 0.971551 -0.142837
H4    H     H_    0.305491 0.608522 0.940914 0.099806
N4    N     N_R   0.205180 0.552990 0.997660 -0.038688
C5    C     C_R   0.726616 0.311322 0.746939 -0.154427
H5    H     H_    0.705469 0.347547 0.703600 0.082767
N5    N     N_R   0.814810 0.361830 0.823710 -0.041200
C6    C     C_R   0.274202 0.461005 0.047197 -0.141930
H6    H     H_    0.296870 0.420646 0.085744 0.089333
N6    N     N_R   0.201660 0.494570 0.045600 -0.037017
C7    C     C_R   0.106237 0.541447 0.808952 -0.129176
H7    H     H_    0.185998 0.577278 0.822056 0.086066
N7    N     N_R   0.068420 0.560530 0.871650 -0.038199
C8    C     C_R   0.918959 0.190014 0.957418 0.037940
N8    N     N_R   0.948050 0.295860 0.997660 -0.049178
C9    C     C_R   0.006356 0.172677 0.976881 0.065427
C10   C     C_R   0.023416 0.470169 0.723032 0.056757
C11   C     C_R   0.661904 0.221530 0.746896 0.071680
C12   C     C_R   0.318893 0.494439 0.995174 0.068487
C13   C     C_R   0.220612 0.703083 0.265457 -0.126435
H8    H     H_    0.225046 0.676762 0.317831 0.094373
N9    N     N_R   0.185190 0.638170 0.176290 -0.041336
C14   C     C_R   0.705290 0.497514 0.915171 0.032861
N10   N     N_R   0.798340 0.505430 0.954400 -0.055553
C15   C     C_R   0.892337 0.395133 0.174690 -0.137094
H9    H     H_    0.812444 0.336949 0.145457 0.087837
N11   N     N_R   0.931580 0.439470 0.128350 -0.038439
C16   C     C_R   0.081623 0.807658 0.021719 -0.198678
H10   H     H_    0.160233 0.866588 0.047233 0.099885
N12   N     N_R   0.051950 0.704140 0.002340 -0.037600
C17   C     C_R   0.910240 0.724252 0.951558 -0.065405
H11   H     H_    0.830315 0.706618 0.917249 0.156452
N13   N     N_R   0.944360 0.651450 0.954400 -0.060605
C18   C     C_R   0.064025 0.479618 0.252666 -0.135175
H12   H     H_    0.142597 0.503731 0.297753 0.106517
N14   N     N_R   0.039170 0.492150 0.176290 -0.042648
C19   C     C_R   0.229768 0.800034 0.188960 -0.123818
H13   H     H_    0.246227 0.865771 0.172402 0.088997
N15   N     N_R   0.188710 0.696600 0.128350 -0.038941
C20   C     C_R   0.700059 0.408939 0.998307 -0.150975
H14   H     H_    0.672489 0.352239 0.023171 0.095094
N16   N     N_R   0.794820 0.447010 0.002340 -0.044286
Ni1   Ni    Ni4+2 0.119330 0.493420 0.109950 0.210990
Ni2   Ni    Ni4+2 0.880670 0.506580 0.890050 0.204263
Ni3   Ni    Ni4+2 0.872590 0.372590 0.000000 0.206753
Ni4   Ni    Ni4+2 0.127410 0.627410 0.000000 0.214284
C21   C     C_R   0.246649 0.806338 0.275574 0.056087
C22   C     C_R   0.641987 0.439808 0.943159 0.043091
C23   C     C_R   0.973451 0.416927 0.252862 0.075259
C24   C     C_R   0.994834 0.824418 0.993527 0.141544
C25   C     C_R   0.424664 0.503962 0.910879 0.145877
C26   C     C_R   0.382280 0.457047 0.958623 0.053311
C27   C     C_R   0.399503 0.371922 0.967008 -0.221858
H15   H     H_    0.361875 0.328089 0.997500 0.122818
C28   C     C_R   0.475517 0.351246 0.945577 -0.189922
H16   H     H_    0.495878 0.293404 0.961665 0.123650
C29   C     C_R   0.535469 0.418405 0.919092 0.037241
C30   C     C_R   0.501134 0.485673 0.891786 0.144403
C31   C     C_3   0.559343 0.600873 0.913752 -0.442520
C32   C     C_3   0.474478 0.619709 0.933547 -0.546537
H17   H     H_    0.634767 0.645459 0.976121 0.202053
H18   H     H_    0.562113 0.610537 0.852337 0.203721
H19   H     H_    0.500721 0.674695 0.007093 0.206934
H20   H     H_    0.428671 0.638292 0.882607 0.189920
C33   C     C_R   0.962472 0.375232 0.318966 0.106453
C34   C     C_R   0.028396 0.423793 0.635270 0.128308
C35   C     C_R   0.128801 0.413773 0.547600 -0.225822
C36   C     C_R   0.122995 0.437466 0.631492 -0.168587
C37   C     C_R   0.937999 0.372865 0.553473 -0.263028
C38   C     C_R   0.943985 0.355884 0.470877 0.179107
C39   C     C_R   0.040828 0.381292 0.467748 0.135092
C40   C     C_R   0.048289 0.383705 0.387903 -0.065210
C41   C     C_R   0.865039 0.337883 0.319694 -0.204112
C42   C     C_R   0.855474 0.325298 0.393994 -0.224457
H21   H     H_    0.796497 0.326152 0.266626 0.124807
H22   H     H_    0.203878 0.430075 0.547869 0.125798
H23   H     H_    0.780521 0.303138 0.395272 0.129530
H24   H     H_    0.193295 0.470977 0.693394 0.116383
H25   H     H_    0.863431 0.357203 0.553998 0.114076
C43   C     C_R   0.552604 0.150363 0.681876 0.112829
C44   C     C_R   0.288389 0.903618 0.362148 0.128013
C45   C     C_R   0.389361 0.095992 0.449379 -0.215508
C46   C     C_R   0.325013 0.005177 0.365308 -0.171354
C47   C     C_R   0.302881 0.895747 0.444315 -0.269654
C48   C     C_R   0.372780 0.985175 0.528786 0.146349
C49   C     C_R   0.420245 0.085023 0.530032 0.172474
C50   C     C_R   0.506856 0.168509 0.608292 -0.286674
C51   C     C_R   0.497997 0.056619 0.685576 -0.221636
C52   C     C_R   0.406110 0.974200 0.609911 0.006018
H26   H     H_    0.544704 0.242538 0.606257 0.117611
H27   H     H_    0.529718 0.043711 0.744135 0.115751
H28   H     H_    0.423301 0.172870 0.450101 0.123149
H29   H     H_    0.310656 0.014692 0.303290 0.113063
H30   H     H_    0.269436 0.818492 0.442492 0.130945
C53   C     C_R   0.079547 0.085456 0.880795 0.104654
C54   C     C_R   0.012550 0.075490 0.923096 -0.235673
C55   C     C_R   0.940578 0.969958 0.898002 0.407378
C56   C     C_R   0.925155 0.881738 0.820599 0.456984
C57   C     C_R   0.984992 0.897661 0.771815 -0.214627
C58   C     C_R   0.067089 0.998132 0.807742 0.121802
C59   C     C_3   0.095682 0.062105 0.759182 -0.444979
C60   C     C_3   0.108146 0.157753 0.838490 -0.432737
H31   H     H_    0.170049 0.070348 0.755788 0.188007
H32   H     H_    0.030539 0.035896 0.692604 0.195281
H33   H     H_    0.189143 0.221352 0.879877 0.188606
H34   H     H_    0.049758 0.186628 0.818103 0.198741
N17   N     N_3   0.670418 0.507214 0.831924 -0.223817
H35   H     H_    0.611053 0.432603 0.779678 0.101219
H36   H     H_    0.730287 0.523854 0.811767 0.107553
N18   N     N_3   0.141891 0.397599 0.377656 -0.225495
H37   H     H_    0.201815 0.471785 0.430048 0.095886
H38   H     H_    0.160013 0.336868 0.383937 0.111308
N19   N     N_3   0.353094 0.875875 0.611866 -0.218476
H39   H     H_    0.391509 0.879181 0.675267 0.106800
H40   H     H_    0.280410 0.868977 0.606724 0.105613
O1    O     O_3   0.881171 0.950241 0.944229 -0.740043
H41   H     H_    0.912834 0.013880 0.004865 0.305702
O2    O     O_3   0.846727 0.782002 0.790546 -0.736370
H42   H     H_    0.846528 0.730052 0.736092 0.309829
N20   N     N_3   0.814654 0.110115 0.898733 -0.225446
H43   H     H_    0.811357 0.061033 0.836801 0.128113
H44   H     H_    0.791489 0.063957 0.930771 0.141103

loop_
_geom_bond_atom_site_label_1
_geom_bond_atom_site_label_2
_geom_bond_distance
_ccdc_geom_bond_type
C4    C12   1.372920 A    
N9    Ni1   1.813217 S    
C28   C29   1.403683 A    
C48   C49   1.413518 A    
C19   C21   1.389682 A    
C36   H24   1.082009 S    
N11   Ni3   1.863831 S    
N1    N8    1.393626 A    
C7    H7    1.072179 S    
N20   H43   1.045237 S    
C43   C51   1.404328 A    
C2    C10   1.384900 A    
C50   H26   1.080728 S    
C3    H3    1.079183 S    
C17   N13   1.340125 A    
C37   C38   1.382216 A    
O2    H42   0.992555 S    
C3    C11   1.379249 A    
C34   C36   1.403052 A    
C53   C60   1.495937 S    
C16   H10   1.078953 S    
C7    N7    1.343630 A    
C10   C34   1.464219 S    
C16   C24   1.389960 A    
C12   C26   1.437029 S    
C59   H31   1.112308 S    
C25   C30   1.367860 A    
N7    Ni4   1.863834 S    
C35   H22   1.081503 S    
C56   C57   1.410790 A    
C23   C33   1.473311 S    
C22   C29   1.440371 S    
C51   H27   1.080699 S    
C58   C59   1.490901 S    
C3    N3    1.342222 A    
C1    H1    1.073944 S    
C45   H28   1.084051 S    
C27   C28   1.391781 A    
N18   H37   1.045494 S    
N10   Ni2   1.880340 S    
C52   N19   1.438554 S    
C6    H6    1.076396 S    
N17   H36   1.044455 S    
C34   C37   1.396535 A    
C57   C58   1.389899 A    
C45   C49   1.398642 A    
C53   C58   1.385734 A    
C14   C22   1.372408 A    
C44   C46   1.403771 A    
C60   H34   1.113000 S    
N13   Ni2   1.812391 S    
C47   H30   1.079473 S    
C6    C12   1.380404 A    
C20   N16   1.335321 A    
C30   C31   1.505772 S    
C43   C50   1.399468 A    
C25   C26   1.392862 A    
C5    H5    1.078525 S    
C49   C50   1.386923 A    
C18   N14   1.337282 A    
C46   H29   1.080520 S    
C18   C23   1.392248 A    
C14   N17   1.435279 S    
C54   C55   1.424844 A    
C41   H21   1.080063 S    
C13   C21   1.388029 A    
N6    Ni1   1.880337 S    
N8    Ni3   1.844211 S    
C19   N15   1.340851 A    
C40   N18   1.434044 S    
N16   Ni3   1.845804 S    
C31   C32   1.499890 S    
N9    N15   1.367790 A    
N12   N13   1.393628 A    
C2    N2    1.327908 A    
C59   H32   1.112504 S    
C17   H11   1.079317 S    
N1    Ni1   1.812392 S    
C38   C39   1.413445 A    
C19   H13   1.073435 S    
C17   C24   1.390021 A    
C41   C42   1.378446 A    
C28   H16   1.081970 S    
C55   O1    1.379573 S    
C26   C27   1.404946 A    
C9    C54   1.480683 S    
C35   C36   1.393062 A    
C25   C32   1.495366 S    
C38   C42   1.391223 A    
C8    N20   1.425690 S    
C14   N10   1.320043 A    
N12   Ni4   1.844211 S    
C32   H20   1.112196 S    
C51   C52   1.399491 A    
C15   H9    1.080352 S    
N5    Ni2   1.813218 S    
C44   C47   1.402627 A    
N11   N14   1.393626 A    
C60   H33   1.107790 S    
N10   N16   1.367671 A    
N19   H39   1.045656 S    
C4    N4    1.316288 A    
C33   C41   1.405804 A    
N15   Ni4   1.863299 S    
N14   Ni1   1.879985 S    
C6    N6    1.335450 A    
C20   H14   1.080814 S    
C5    N5    1.334273 A    
C8    C9    1.391651 A    
C5    C11   1.378380 A    
N3    Ni3   1.863302 S    
C18   H12   1.075946 S    
C48   C52   1.409743 A    
C31   H17   1.112474 S    
C20   C22   1.384812 A    
C13   H8    1.077037 S    
C15   C23   1.383234 A    
C2    H2    1.075787 S    
N20   H44   1.042994 S    
C42   H23   1.084498 S    
C55   C56   1.417606 A    
C56   O2    1.378622 S    
C31   H18   1.111791 S    
N2    Ni2   1.879983 S    
C13   N9    1.333225 A    
N3    N5    1.367792 A    
C21   C44   1.468919 S    
C59   C60   1.518653 S    
N2    N7    1.393626 A    
C45   C46   1.388182 A    
C32   H19   1.112635 S    
C16   N12   1.344113 A    
C47   C48   1.394545 A    
C15   N11   1.328906 A    
C33   C40   1.415161 A    
C27   H15   1.081692 S    
C7    C10   1.390273 A    
N18   H38   1.045533 S    
N19   H40   1.045485 S    
C4    H4    1.070763 S    
C39   C40   1.408078 A    
C37   H25   1.080086 S    
C1    C9    1.392465 A    
C11   C43   1.468889 S    
C29   C30   1.400548 A    
N4    N6    1.367673 A    
C53   C54   1.400700 A    
C8    N8    1.344826 A    
C1    N1    1.349753 A    
C35   C39   1.407731 A    
N4    Ni4   1.845805 S    
N17   H35   1.045601 S    
O1    H41   0.991091 S    
