data_mof_unit_43388.cif
_audit_creation_date              2012-12-11T17:02:20-0500
_audit_creation_method            fapswitch 2.2
_symmetry_space_group_name_H-M    P1
_symmetry_Int_Tables_number       1
_space_group_crystal_system       triclinic
_cell_length_a                    21.650451
_cell_length_b                    7.065077
_cell_length_c                    14.868628
_cell_angle_alpha                 90.000452
_cell_angle_beta                  106.132417
_cell_angle_gamma                 90.000686
_cell_volume                      2184.77801434

loop_
_atom_site_label
_atom_site_type_symbol
_atom_type_description
_atom_site_fract_x
_atom_site_fract_y
_atom_site_fract_z
_atom_type_partial_charge
O1    O     O_R   0.585850 0.505770 0.002130 -0.533902
O2    O     O_R   0.414150 0.005770 0.997870 -0.533900
O3    O     O_R   0.467530 0.173560 0.861970 -0.538874
O4    O     O_R   0.532470 0.673560 0.138030 -0.538879
C1    C     C_R   0.455697 0.344452 0.825357 0.684203
C2    C     C_R   0.544301 0.844456 0.174642 0.684205
O5    O     O_R   0.588690 0.175900 0.993250 -0.547092
O6    O     O_R   0.411310 0.675900 0.006750 -0.547097
O7    O     O_R   0.536170 0.007950 0.130090 -0.537550
O8    O     O_R   0.463830 0.507950 0.869910 -0.537550
C3    C     C_R   0.615235 0.344760 0.998552 0.691264
C4    C     C_R   0.384767 0.844758 0.001459 0.691286
O9    O     O_3   0.482630 0.339970 0.044740 -0.372597
O10   O     O_3   0.517370 0.839970 0.955260 -0.372594
V1    V     V_3+5 0.503220 0.064200 0.991700 1.413503
V2    V     V_3+5 0.496780 0.564200 0.008300 1.413493
C5    C     C_R   0.286760 0.027896 0.008684 0.037730
C6    C     C_R   0.713247 0.527908 0.991351 0.037792
C7    C     C_R   0.315256 0.855743 0.995577 -0.082839
C8    C     C_R   0.684748 0.355750 0.004444 -0.082833
C9    C     C_R   0.274130 0.697781 0.970115 -0.193627
C10   C     C_R   0.725870 0.197779 0.029888 -0.193620
H1    H     H_    0.292623 0.564416 0.952905 0.124932
H2    H     H_    0.707376 0.064419 0.047104 0.124918
C11   C     C_R   0.208657 0.709413 0.968433 -0.201777
C12   C     C_R   0.791339 0.209400 0.031553 -0.201767
C13   C     C_R   0.182472 0.879283 0.992193 -0.086564
C14   C     C_R   0.817523 0.379267 0.007784 -0.086384
C15   C     C_R   0.222383 0.038877 0.007588 0.029951
C16   C     C_R   0.777614 0.538862 0.992393 0.030097
C17   C     C_3   0.236248 0.182941 0.084384 0.283516
C18   C     C_3   0.763733 0.682863 0.915569 0.283426
C19   C     C_3   0.307489 0.171492 0.084972 -0.500489
C20   C     C_3   0.692508 0.671526 0.915086 -0.500634
H3    H     H_    0.214399 0.321519 0.058169 0.082308
H4    H     H_    0.785618 0.821426 0.941732 0.082291
H5    H     H_    0.343084 0.113102 0.147357 0.147441
H6    H     H_    0.656852 0.613217 0.852751 0.147415
H7    H     H_    0.324515 0.303039 0.058719 0.157549
H8    H     H_    0.675536 0.803092 0.941385 0.157544
C21   C     C_R   0.927173 0.883942 0.723820 -0.029087
C22   C     C_R   0.072828 0.383917 0.276180 -0.029228
C23   C     C_R   0.572471 0.852211 0.275847 -0.025135
C24   C     C_R   0.427527 0.352181 0.724150 -0.025143
C25   C     C_R   0.939256 0.861896 0.567811 -0.163783
C26   C     C_R   0.060745 0.361529 0.432177 -0.163788
C27   C     C_R   0.966596 0.871845 0.664159 -0.181097
C28   C     C_R   0.033406 0.371635 0.335832 -0.181084
C29   C     C_R   0.860332 0.886732 0.687385 -0.228480
C30   C     C_R   0.139668 0.386706 0.312621 -0.228503
C31   C     C_R   0.831083 0.872919 0.589799 0.071412
C32   C     C_R   0.168916 0.372653 0.410197 0.071490
C33   C     C_R   0.872129 0.862021 0.530271 0.143807
C34   C     C_R   0.127871 0.361636 0.469720 0.143759
C35   C     C_R   0.762857 0.868478 0.549570 0.058271
C36   C     C_R   0.237141 0.368123 0.450422 0.058246
C37   C     C_R   0.736923 0.859025 0.450052 0.059247
C38   C     C_R   0.263076 0.358661 0.549940 0.059210
C39   C     C_R   0.780080 0.849386 0.394183 -0.189587
C40   C     C_R   0.219920 0.348899 0.605806 -0.189574
C41   C     C_R   0.846126 0.850414 0.433710 -0.205675
C42   C     C_R   0.153874 0.349894 0.566277 -0.205677
C43   C     C_R   0.719731 0.872093 0.605528 -0.208730
C44   C     C_R   0.280265 0.371659 0.394461 -0.208902
C45   C     C_R   0.653708 0.866495 0.566252 -0.239175
C46   C     C_R   0.346289 0.366098 0.433735 -0.239085
C47   C     C_R   0.627656 0.860324 0.469620 0.149448
C48   C     C_R   0.372342 0.360044 0.530371 0.149453
C49   C     C_R   0.668662 0.858208 0.409835 0.084382
C50   C     C_R   0.331336 0.357945 0.590157 0.084373
C51   C     C_R   0.560526 0.856743 0.432265 -0.166385
C52   C     C_R   0.439472 0.356560 0.567729 -0.166375
C53   C     C_R   0.533108 0.851834 0.335832 -0.180275
C54   C     C_R   0.466890 0.351772 0.664164 -0.180284
C55   C     C_R   0.639351 0.855912 0.312039 -0.212645
C56   C     C_R   0.360646 0.355791 0.687956 -0.212634
H9    H     H_    0.877258 0.841745 0.387942 0.122188
H10   H     H_    0.122743 0.341119 0.612040 0.122196
H11   H     H_    0.666694 0.857279 0.261601 0.092971
H12   H     H_    0.333300 0.357218 0.738393 0.092975
H13   H     H_    0.481255 0.848255 0.307948 0.098240
H14   H     H_    0.518744 0.348250 0.692049 0.098237
H15   H     H_    0.622672 0.868793 0.612289 0.124025
H16   H     H_    0.377324 0.368342 0.387696 0.124064
H17   H     H_    0.970661 0.853055 0.522481 0.117745
H18   H     H_    0.029340 0.352569 0.477501 0.117754
H19   H     H_    0.018442 0.870161 0.692227 0.103402
H20   H     H_    0.981562 0.369924 0.307760 0.103407
H21   H     H_    0.832984 0.899147 0.737502 0.131166
H22   H     H_    0.167018 0.399309 0.262518 0.131236
H23   H     H_    0.764607 0.838558 0.319082 0.122408
H24   H     H_    0.235396 0.337961 0.680902 0.122414
H25   H     H_    0.735220 0.880062 0.680646 0.154088
H26   H     H_    0.264772 0.379513 0.319338 0.154312
H27   H     H_    0.529180 0.857578 0.477834 0.117472
H28   H     H_    0.470819 0.357371 0.522159 0.117469
O11   O     O_R   0.036080 0.231270 0.130120 -0.531280
O12   O     O_R   0.963920 0.731270 0.869880 -0.531272
O13   O     O_R   0.911300 0.558970 0.006750 -0.536177
O14   O     O_R   0.088700 0.058970 0.993250 -0.536135
C57   C     C_R   0.884958 0.389906 0.002566 0.718425
C58   C     C_R   0.115040 0.889910 0.997425 0.718375
O15   O     O_R   0.032450 0.561140 0.138040 -0.545433
O16   O     O_R   0.967550 0.061140 0.861960 -0.545403
O17   O     O_R   0.085870 0.728910 0.002130 -0.547245
O18   O     O_R   0.914130 0.228910 0.997870 -0.547233
C59   C     C_R   0.044710 0.392514 0.174983 0.699990
C60   C     C_R   0.955292 0.892514 0.825017 0.699969
O19   O     O_3   0.017320 0.394650 0.955270 -0.377204
O20   O     O_3   0.982680 0.894650 0.044730 -0.377232
V3    V     V_3+5 0.996780 0.670490 0.008300 1.431398
V4    V     V_3+5 0.003220 0.170490 0.991700 1.431481
H29   H     H_    0.178979 0.584216 0.950414 0.127985
H30   H     H_    0.821015 0.084198 0.049564 0.127966
O21   O     O_3   0.216086 0.123313 0.163559 -0.570250
C61   C     C_3   0.259025 0.000365 0.225715 0.079462
H31   H     H_    0.301427 0.082446 0.266263 0.132920
H32   H     H_    0.274798 0.881838 0.187949 0.123739
C62   C     C_3   0.225215 0.915388 0.294048 -0.293178
H33   H     H_    0.194294 0.023417 0.314136 0.222448
H34   H     H_    0.193874 0.796504 0.259452 0.182071
C63   C     C_3   0.273642 0.844096 0.382835 -0.816241
H35   H     H_    0.307919 0.744441 0.364723 0.233338
H36   H     H_    0.247905 0.771552 0.427964 0.244599
H37   H     H_    0.301120 0.964161 0.422902 0.243180
O22   O     O_3   0.783850 0.623014 0.836386 -0.570211
C64   C     C_3   0.740736 0.500697 0.774119 0.079513
H38   H     H_    0.698407 0.583264 0.733763 0.132872
H39   H     H_    0.724895 0.382108 0.811778 0.123869
C65   C     C_3   0.774350 0.415793 0.705554 -0.293353
H40   H     H_    0.805160 0.523882 0.685290 0.222406
H41   H     H_    0.805754 0.296944 0.740002 0.182387
C66   C     C_3   0.725752 0.344441 0.616966 -0.816644
H42   H     H_    0.691639 0.244559 0.635301 0.233342
H43   H     H_    0.751334 0.272132 0.571583 0.244736
H44   H     H_    0.698124 0.464431 0.577089 0.243190

loop_
_geom_bond_atom_site_label_1
_geom_bond_atom_site_label_2
_ccdc_geom_bond_type
C23   C53   A    
C46   C48   A    
C43   C45   A    
O22   C64   S    
C21   C60   S    
C13   C15   A    
C5    C15   A    
C25   H17   S    
O1    C3    A    
O2    C4    A    
C2    O7    A    
C64   H39   S    
O18   V4    S    
O5    C3    A    
C19   H7    S    
C20   H8    S    
C18   H4    S    
C10   H2    S    
O15   V3    S    
C7    C9    A    
O19   V3    S    
C52   H28   S    
C45   H15   S    
C51   H27   S    
C38   C40   A    
O21   C61   S    
O12   C60   A    
C61   H31   S    
C58   O17   A    
C40   C42   A    
C18   O22   S    
C24   C56   A    
O20   V3    S    
C33   C41   A    
C14   C57   S    
C30   H22   S    
C41   H9    S    
C45   C47   A    
C35   C43   A    
C66   H44   S    
C30   C32   A    
C28   H20   S    
C6    C16   A    
C36   C38   A    
C22   C59   S    
C47   C51   A    
O6    C4    A    
O5    V1    S    
O17   V3    S    
C25   C33   A    
O6    V2    S    
C5    C19   S    
C54   H14   S    
C53   H13   S    
C32   C34   A    
C25   C27   A    
C23   C55   A    
C26   C28   A    
C3    C8    S    
C39   C41   A    
C17   C19   S    
C52   C54   A    
O19   V4    S    
C51   C53   A    
O11   V4    S    
C38   C50   A    
C22   C28   A    
C34   C42   A    
C31   C35   A    
C29   C31   A    
C19   H5    S    
C31   C33   A    
C44   C46   A    
O4    V2    S    
C65   H41   S    
C12   H30   S    
C11   H29   S    
C48   C52   A    
O13   V3    S    
C26   C34   A    
C36   C44   A    
C21   C27   A    
O1    V2    S    
C39   H23   S    
C24   C54   A    
O2    V1    S    
C6    C20   S    
C62   H34   S    
C22   C30   A    
O4    C2    A    
O13   C57   A    
C1    C24   S    
C8    C10   A    
O14   V4    S    
C2    C23   S    
C9    H1    S    
C50   C56   A    
C66   H42   S    
C17   H3    S    
C65   C66   S    
C63   H36   S    
C64   H38   S    
O16   C60   A    
O3    V1    S    
O16   V4    S    
O14   C58   A    
C62   C63   S    
C57   O18   A    
C9    C11   A    
O12   V3    S    
C20   H6    S    
C42   H10   S    
C56   H12   S    
C29   H21   S    
O3    C1    A    
C62   H33   S    
C11   C13   A    
C21   C29   A    
C43   H25   S    
C13   C58   S    
C12   C14   A    
C61   C62   S    
C37   C49   A    
C63   H37   S    
C35   C37   A    
C65   H40   S    
O7    V1    S    
C64   C65   S    
C44   H26   S    
C1    O8    A    
C15   C17   S    
O8    V2    S    
C16   C18   S    
C4    C7    S    
C14   C16   A    
C5    C7    A    
C61   H32   S    
C49   C55   A    
C6    C8    A    
C17   O21   S    
O20   V4    S    
C37   C39   A    
C46   H16   S    
O11   C59   A    
C48   C50   A    
C10   C12   A    
O9    V2    S    
C66   H43   S    
O10   V1    S    
O15   C59   A    
C47   C49   A    
C63   H35   S    
C40   H24   S    
C55   H11   S    
C32   C36   A    
C18   C20   S    
C26   H18   S    
C27   H19   S    
