data_mof_unit_30584.cif
_audit_creation_date              2012-12-10T16:51:19-0500
_audit_creation_method            fapswitch 2.2
_symmetry_space_group_name_H-M    P1
_symmetry_Int_Tables_number       1
_space_group_crystal_system       triclinic
_cell_length_a                    27.841667
_cell_length_b                    8.67313
_cell_length_c                    7.420076
_cell_angle_alpha                 103.038807
_cell_angle_beta                  93.682458
_cell_angle_gamma                 92.436149
_cell_volume                      1738.96221165

loop_
_atom_site_label
_atom_site_type_symbol
_atom_type_description
_atom_site_fract_x
_atom_site_fract_y
_atom_site_fract_z
_atom_type_partial_charge
C1    C     C_R   0.498540 0.199588 0.453132 0.883118
C2    C     C_R   0.869829 0.357036 0.458138 -0.026592
C3    C     C_R   0.354505 0.501812 0.510757 -0.127936
C4    C     C_R   0.645523 0.498299 0.489298 -0.128491
C5    C     C_R   0.971724 0.353417 0.459865 0.043824
C6    C     C_R   0.028285 0.646361 0.540674 0.043860
C7    C     C_R   0.977193 0.646810 0.539573 0.044962
C8    C     C_R   0.022820 0.352970 0.461144 0.044976
C9    C     C_R   0.949254 0.500333 0.499134 0.069789
C10   C     C_R   0.050757 0.499446 0.501483 0.069756
C11   C     C_R   0.941972 0.211416 0.420409 -0.214676
C12   C     C_R   0.501458 0.800411 0.546868 0.883631
C13   C     C_R   0.058031 0.788361 0.579849 -0.214672
C14   C     C_R   0.892174 0.213608 0.419807 -0.142023
C15   C     C_R   0.107826 0.786170 0.580308 -0.142039
C16   C     C_R   0.407466 0.501436 0.503877 0.838969
C17   C     C_R   0.592544 0.498673 0.496132 0.838692
C18   C     C_R   0.047266 0.210503 0.423295 -0.213621
C19   C     C_R   0.952752 0.789280 0.577701 -0.213645
C20   C     C_2   0.497827 0.031660 0.426677 -0.334784
C21   C     C_2   0.502168 0.968339 0.573323 -0.334778
C22   C     C_R   0.175306 0.357094 0.466905 0.544075
C23   C     C_R   0.101866 0.499011 0.502691 -0.042932
C24   C     C_R   0.824712 0.642698 0.533986 0.544222
C25   C     C_R   0.180519 0.639745 0.542393 0.551202
C26   C     C_R   0.819483 0.360048 0.457740 0.551421
C27   C     C_R   0.281669 0.549829 0.674789 -0.131498
C28   C     C_R   0.718431 0.452929 0.325150 -0.131505
C29   C     C_R   0.331905 0.552564 0.678483 0.344207
C30   C     C_R   0.668192 0.450387 0.321254 0.344927
C31   C     C_R   0.325485 0.450113 0.343454 -0.216806
C32   C     C_R   0.674504 0.547119 0.657045 -0.216295
C33   C     C_R   0.275467 0.448242 0.341943 -0.084790
C34   C     C_R   0.898145 0.500772 0.497897 -0.042914
C35   C     C_R   0.724520 0.548820 0.658726 -0.085186
C36   C     C_R   0.253450 0.498107 0.507410 0.280789
C37   C     C_R   0.746582 0.501718 0.492977 0.281660
C38   C     C_R   0.124836 0.354859 0.464483 -0.024045
C39   C     C_R   0.875181 0.644932 0.536364 -0.024185
C40   C     C_R   0.097144 0.211846 0.425147 -0.150413
C41   C     C_R   0.902876 0.787943 0.575928 -0.150423
C42   C     C_R   0.130176 0.642743 0.542150 -0.026405
Cl1   Cl    Cl    0.636355 0.381637 0.102428 -0.606094
Cl2   Cl    Cl    0.363859 0.625563 0.896414 -0.603019
Cu1   Cu    Cu3+1 0.505380 0.517380 0.684380 1.026371
Cu2   Cu    Cu3+1 0.494620 0.482620 0.315620 1.026151
H1    H     H_    0.341414 0.410223 0.212789 0.208093
H2    H     H_    0.264312 0.588824 0.802505 0.174462
H3    H     H_    0.871178 0.101443 0.388546 0.193541
H4    H     H_    0.128817 0.898337 0.611352 0.193524
H5    H     H_    0.955704 0.095168 0.388658 0.137935
H6    H     H_    0.044296 0.904608 0.611404 0.137834
H7    H     H_    0.029174 0.094528 0.391168 0.135664
H8    H     H_    0.970848 0.905256 0.610061 0.135758
H9    H     H_    0.493727 0.959832 0.285439 0.189381
H10   H     H_    0.506268 0.040167 0.714561 0.189202
H11   H     H_    0.658551 0.584848 0.787984 0.210830
H12   H     H_    0.462182 0.378666 0.948563 0.238055
H13   H     H_    0.537815 0.621342 0.051438 0.238852
H14   H     H_    0.253744 0.408703 0.211843 0.161276
H15   H     H_    0.746208 0.586098 0.789148 0.160769
H16   H     H_    0.113939 0.099365 0.395051 0.186957
H17   H     H_    0.886084 0.900425 0.606226 0.187015
H18   H     H_    0.735845 0.416165 0.197212 0.173343
N1    N     N_R   0.201965 0.498251 0.505410 -0.463020
N2    N     N_R   0.798055 0.501547 0.495080 -0.463269
N3    N     N_2   0.486510 0.456430 0.038510 -0.182937
N4    N     N_2   0.513490 0.543570 0.961490 -0.182407
O1    O     O_R   0.503500 0.286120 0.619780 -0.585514
O2    O     O_2   0.802396 0.780326 0.568875 -0.509975
O3    O     O_2   0.792125 0.222763 0.421542 -0.501377
O4    O     O_2   0.207854 0.777057 0.578025 -0.501600
O5    O     O_R   0.496500 0.713880 0.380220 -0.585476
O6    O     O_R   0.494410 0.256780 0.308360 -0.579098
O7    O     O_R   0.505590 0.743220 0.691640 -0.578793
O8    O     O_R   0.434810 0.514700 0.655690 -0.544832
O9    O     O_R   0.565190 0.485300 0.344310 -0.544327
O10   O     O_R   0.425720 0.485350 0.344280 -0.573381
O11   O     O_R   0.574280 0.514650 0.655720 -0.573060
O12   O     O_2   0.197621 0.219451 0.432497 -0.510265

loop_
_geom_bond_atom_site_label_1
_geom_bond_atom_site_label_2
_ccdc_geom_bond_type
C27   H2    S    
C27   C29   A    
C24   C39   A    
C24   O2    S    
C39   C41   A    
Cu1   Cu2   S    
C23   C42   A    
Cu1   O8    S    
C1    O6    A    
C35   C37   A    
C5    C11   A    
C11   C14   A    
C14   H3    S    
C22   C38   A    
C17   O11   A    
C33   C36   A    
C40   H16   S    
C15   H4    S    
C3    C29   A    
C18   C40   A    
C18   H7    S    
C31   C33   A    
C24   N2    A    
C2    C34   A    
C31   H1    S    
C12   O5    A    
C26   O3    S    
C32   H11   S    
C20   H9    S    
Cu1   O1    S    
C34   C39   A    
C26   N2    A    
C32   C35   A    
C25   N1    A    
C35   H15   S    
Cu2   O10   S    
C36   N1    S    
C12   C21   S    
C8    C18   A    
N3    N4    D    
Cu1   O11   S    
C22   N1    A    
C5    C9    A    
H13   N4    S    
Cu2   O9    S    
C13   H6    S    
C37   N2    S    
Cu1   N4    S    
C17   O9    A    
C2    C26   A    
C25   O4    S    
C3    C31   A    
C4    C32   A    
C4    C17   S    
C28   H18   S    
C19   H8    S    
C33   H14   S    
C7    C19   A    
C13   C15   A    
C29   Cl2   S    
C9    C34   A    
C10   C23   A    
C30   Cl1   S    
C5    C8    A    
C41   H17   S    
Cu2   O6    S    
C7    C9    A    
C1    C20   S    
C16   O8    A    
C15   C42   A    
C25   C42   A    
C6    C10   A    
C21   H10   S    
C6    C7    A    
C27   C36   A    
C23   C38   A    
Cu1   O7    S    
C28   C30   A    
C22   O12   S    
Cu2   N3    S    
C6    C13   A    
C38   C40   A    
C28   C37   A    
C16   O10   A    
C2    C14   A    
C1    O1    A    
C11   H5    S    
H12   N3    S    
C20   C21   D    
C8    C10   A    
C12   O7    A    
Cu2   O5    S    
C4    C30   A    
C3    C16   S    
C19   C41   A    
