data_mof_unit_52448.cif
_audit_creation_date              2012-12-11T14:52:37-0500
_audit_creation_method            fapswitch 2.2
_symmetry_space_group_name_H-M    P1
_symmetry_Int_Tables_number       1
_space_group_crystal_system       triclinic
_cell_length_a                    18.736465
_cell_length_b                    10.969884
_cell_length_c                    18.74492
_cell_angle_alpha                 89.931559
_cell_angle_beta                  90.616421
_cell_angle_gamma                 90.076628
_cell_volume                      3852.54266601

loop_
_atom_site_label
_atom_site_type_symbol
_atom_type_description
_atom_site_fract_x
_atom_site_fract_y
_atom_site_fract_z
_atom_type_partial_charge
C1    C     C_R   0.270854 0.046294 0.852476 0.555751
C2    C     C_R   0.683880 0.574600 0.030782 -0.139815
C3    C     C_3   0.009767 0.329983 0.069027 0.058036
C4    C     C_3   0.092643 0.752129 0.061127 -0.003580
C5    C     C_3   0.040784 0.792907 0.118217 -0.344851
C6    C     C_3   0.907559 0.752484 0.938660 -0.003454
C7    C     C_3   0.959408 0.793414 0.881482 -0.345352
C8    C     C_3   0.592644 0.252137 0.061127 -0.003587
C9    C     C_3   0.540785 0.292901 0.118220 -0.344856
C10   C     C_3   0.407562 0.252447 0.938653 -0.003450
C11   C     C_3   0.459409 0.293425 0.881484 -0.345358
C12   C     C_R   0.816093 0.074692 0.969237 -0.140230
C13   C     C_R   0.183880 0.074599 0.030782 -0.139813
C14   C     C_R   0.307654 0.547748 0.041330 -0.201398
C15   C     C_R   0.692297 0.547644 0.958712 -0.201105
C16   C     C_R   0.807654 0.047749 0.041330 -0.201400
C17   C     C_R   0.192297 0.047644 0.958712 -0.201104
C18   C     C_R   0.252068 0.600986 0.079809 0.038302
C19   C     C_R   0.747980 0.600860 0.920169 0.038544
C20   C     C_R   0.752068 0.100986 0.079809 0.038306
C21   C     C_R   0.729144 0.046324 0.147527 0.556712
C22   C     C_R   0.247980 0.100860 0.920169 0.038538
C23   C     C_R   0.209839 0.693154 0.047492 0.265610
C24   C     C_R   0.790344 0.693021 0.952395 0.265843
C25   C     C_R   0.709838 0.193153 0.047492 0.265612
C26   C     C_R   0.290344 0.193021 0.952396 0.265835
C27   C     C_R   0.219131 0.719318 0.975394 -0.136754
C28   C     C_R   0.781104 0.719137 0.024480 -0.136705
C29   C     C_R   0.719131 0.219317 0.975394 -0.136754
C30   C     C_R   0.281103 0.219138 0.024480 -0.136699
C31   C     C_R   0.269417 0.656681 0.935257 -0.022569
C32   C     C_R   0.770854 0.546294 0.852476 0.555757
C33   C     C_R   0.730686 0.656555 0.064693 -0.022438
C34   C     C_R   0.769417 0.156681 0.935257 -0.022567
C35   C     C_R   0.230686 0.156555 0.064693 -0.022440
C36   C     C_R   0.526602 0.729721 0.544754 -0.135927
C37   C     C_R   0.533129 0.725204 0.471930 -0.129305
C38   C     C_R   0.026602 0.229720 0.544754 -0.135928
C39   C     C_R   0.033128 0.225203 0.471930 -0.129306
C40   C     C_R   0.516168 0.827464 0.429864 0.033287
C41   C     C_R   0.499607 0.834557 0.576579 0.054365
C42   C     C_R   0.016168 0.327465 0.429864 0.033287
C43   C     C_R   0.229144 0.546324 0.147527 0.556711
C44   C     C_R   0.999607 0.334557 0.576580 0.054366
C45   C     C_R   0.494597 0.935744 0.461954 -0.149246
C46   C     C_R   0.485046 0.938806 0.535259 -0.119885
C47   C     C_R   0.994598 0.435745 0.461954 -0.149243
C48   C     C_R   0.985047 0.438807 0.535259 -0.119876
C49   C     C_R   0.470660 0.821885 0.855436 0.541907
C50   C     C_R   0.529358 0.821891 0.144550 0.543023
C51   C     C_R   0.970660 0.321885 0.855436 0.541908
C52   C     C_R   0.029358 0.321892 0.144549 0.543022
C53   C     C_R   0.179695 0.585561 0.545386 0.232576
C54   C     C_3   0.529854 0.729831 0.972110 -0.117762
C55   C     C_R   0.815925 0.624060 0.462196 0.237605
C56   C     C_R   0.679695 0.085561 0.545386 0.232575
C57   C     C_R   0.315925 0.124058 0.462195 0.237604
C58   C     C_R   0.175036 0.580445 0.471963 -0.120026
C59   C     C_R   0.813893 0.630367 0.535239 -0.121075
C60   C     C_R   0.675036 0.080444 0.471963 -0.120026
C61   C     C_R   0.313894 0.130364 0.535239 -0.121076
C62   C     C_R   0.236378 0.560713 0.431234 0.004799
C63   C     C_R   0.757329 0.577743 0.572424 0.002671
C64   C     C_R   0.736378 0.060714 0.431234 0.004801
C65   C     C_3   0.470022 0.729931 0.028035 -0.117815
C66   C     C_R   0.257329 0.077742 0.572424 0.002671
C67   C     C_R   0.301977 0.536990 0.463962 -0.148023
C68   C     C_R   0.699058 0.527042 0.535780 -0.153886
C69   C     C_R   0.801977 0.036993 0.463961 -0.148023
C70   C     C_R   0.199058 0.027043 0.535780 -0.153886
C71   C     C_R   0.307492 0.544077 0.537224 -0.181913
C72   C     C_R   0.697162 0.531510 0.462077 -0.186691
C73   C     C_R   0.807493 0.044081 0.537224 -0.181914
C74   C     C_R   0.197161 0.031511 0.462077 -0.186691
C75   C     C_R   0.247343 0.575928 0.577363 0.067212
C76   C     C_3   0.029855 0.229832 0.972109 -0.117763
C77   C     C_R   0.754189 0.584361 0.425324 0.067863
C78   C     C_R   0.747344 0.075929 0.577362 0.067213
C79   C     C_R   0.254189 0.084361 0.425324 0.067863
C80   C     C_R   0.274370 0.685008 0.859167 0.562248
C81   C     C_R   0.725686 0.684995 0.140757 0.561422
C82   C     C_R   0.774370 0.185008 0.859167 0.562249
C83   C     C_R   0.225686 0.184995 0.140757 0.561421
C84   C     C_R   0.271489 0.045669 0.645492 0.555270
C85   C     C_R   0.726565 0.040974 0.356320 0.556323
C86   C     C_R   0.771488 0.545669 0.645492 0.555269
C87   C     C_3   0.970023 0.229929 0.028034 -0.117817
C88   C     C_R   0.226565 0.540974 0.356321 0.556323
C89   C     C_R   0.470734 0.824111 0.647491 0.558986
C90   C     C_R   0.533104 0.822649 0.354862 0.555354
C91   C     C_R   0.970735 0.324111 0.647491 0.558986
C92   C     C_R   0.033105 0.322649 0.354862 0.555354
C93   C     C_R   0.258920 0.632386 0.645590 0.596937
C94   C     C_R   0.741391 0.633187 0.354993 0.584405
C95   C     C_R   0.758920 0.132387 0.645590 0.596938
C96   C     C_R   0.241391 0.133187 0.354993 0.584405
C97   C     C_3   0.470345 0.930954 0.028274 -0.132913
C98   C     C_R   0.316093 0.574690 0.969237 -0.140224
C99   C     C_3   0.529965 0.930859 0.971508 -0.132574
C100  C     C_3   0.970344 0.430953 0.028274 -0.132905
C101  C     C_3   0.029964 0.430860 0.971508 -0.132569
C102  C     C_3   0.430036 0.830586 0.986218 -0.105278
C103  C     C_3   0.570058 0.830471 0.013749 -0.105475
C104  C     C_3   0.930035 0.330583 0.986218 -0.105272
C105  C     C_3   0.070058 0.330473 0.013749 -0.105480
C106  C     C_3   0.490322 0.829898 0.930937 0.058796
C107  C     C_3   0.509767 0.829983 0.069027 0.058040
C108  C     C_3   0.990322 0.329898 0.930937 0.058799
Cr1   Cr    Cr6+3 0.229630 0.835900 0.747350 1.028946
Cr2   Cr    Cr6+3 0.614200 0.677120 0.250660 1.014030
Cr3   Cr    Cr6+3 0.885800 0.177120 0.749340 1.014304
Cr4   Cr    Cr6+3 0.114200 0.177120 0.250660 1.014030
Cr5   Cr    Cr6+3 0.770370 0.835900 0.252650 1.035171
Cr6   Cr    Cr6+3 0.729630 0.335900 0.747350 1.028946
Cr7   Cr    Cr6+3 0.270370 0.335900 0.252650 1.035171
Cr8   Cr    Cr6+3 0.387410 0.989850 0.750850 1.024802
Cr9   Cr    Cr6+3 0.612590 0.989850 0.249150 1.022681
Cr10  Cr    Cr6+3 0.887410 0.489850 0.750850 1.024803
Cr11  Cr    Cr6+3 0.112590 0.489850 0.249150 1.022681
Cr12  Cr    Cr6+3 0.385800 0.677120 0.749340 1.014308
H1    H     H_    0.372139 0.832949 0.973366 0.112530
H2    H     H_    0.655908 0.482816 0.563872 0.141020
H3    H     H_    0.848796 0.015575 0.432951 0.144956
H4    H     H_    0.155908 0.982818 0.563872 0.141018
H5    H     H_    0.359897 0.534546 0.561586 0.144276
H6    H     H_    0.650141 0.498437 0.434088 0.129810
H7    H     H_    0.859898 0.034551 0.561586 0.144276
H8    H     H_    0.150141 0.998439 0.434088 0.129810
H9    H     H_    0.445609 0.012065 0.053234 0.108197
H10   H     H_    0.554883 0.011899 0.946412 0.108856
H11   H     H_    0.945607 0.512062 0.053235 0.108198
H12   H     H_    0.627958 0.832736 0.026606 0.112410
H13   H     H_    0.054881 0.511902 0.946413 0.108857
H14   H     H_    0.553732 0.647911 0.947391 0.119597
H15   H     H_    0.445989 0.648093 0.052926 0.119914
H16   H     H_    0.053734 0.147913 0.947390 0.119600
H17   H     H_    0.945991 0.148090 0.052925 0.119912
H18   H     H_    0.358102 0.529864 0.940049 0.166477
H19   H     H_    0.641766 0.529832 0.060009 0.166275
H20   H     H_    0.858103 0.029867 0.940049 0.166470
H21   H     H_    0.141766 0.029831 0.060009 0.166275
H22   H     H_    0.343123 0.482553 0.066404 0.116761
H23   H     H_    0.872139 0.332944 0.973366 0.112532
H24   H     H_    0.656711 0.482499 0.933704 0.116405
H25   H     H_    0.843124 0.982554 0.066404 0.116754
H26   H     H_    0.156711 0.982499 0.933704 0.116406
H27   H     H_    0.186558 0.788061 0.950156 0.118555
H28   H     H_    0.813783 0.787871 0.049636 0.118183
H29   H     H_    0.686556 0.288059 0.950156 0.118554
H30   H     H_    0.313782 0.287873 0.049635 0.118190
H31   H     H_    0.538457 0.648449 0.575594 0.126041
H32   H     H_    0.552426 0.641318 0.448834 0.135818
H33   H     H_    0.038456 0.148448 0.575594 0.126040
H34   H     H_    0.127959 0.332740 0.026606 0.112410
H35   H     H_    0.052425 0.141316 0.448833 0.135817
H36   H     H_    0.484633 0.016447 0.430283 0.155196
H37   H     H_    0.463478 0.020545 0.559008 0.129052
H38   H     H_    0.984635 0.516450 0.430284 0.155194
H39   H     H_    0.963480 0.520547 0.559009 0.129053
H40   H     H_    0.079402 0.628951 0.554770 0.305950
H41   H     H_    0.912266 0.693965 0.460084 0.297893
H42   H     H_    0.579401 0.128938 0.554770 0.305952
H43   H     H_    0.412266 0.193963 0.460083 0.297894
H44   H     H_    0.078967 0.656449 0.046363 0.133048
H45   H     H_    0.122950 0.590119 0.446977 0.127664
H46   H     H_    0.085164 0.812570 0.014071 0.101089
H47   H     H_    0.051350 0.889373 0.132931 0.154088
H48   H     H_    0.985118 0.784866 0.097868 0.070359
H49   H     H_    0.046793 0.734697 0.166419 0.179116
H50   H     H_    0.921233 0.656884 0.953603 0.132987
H51   H     H_    0.915047 0.813039 0.985598 0.101147
H52   H     H_    0.948823 0.889806 0.866578 0.153808
H53   H     H_    0.015077 0.785689 0.901841 0.070600
H54   H     H_    0.953402 0.735087 0.833396 0.178680
H55   H     H_    0.578967 0.156462 0.046355 0.133041
H56   H     H_    0.859793 0.668594 0.562876 0.119554
H57   H     H_    0.585165 0.312589 0.014076 0.101095
H58   H     H_    0.551353 0.389359 0.132945 0.154097
H59   H     H_    0.485119 0.284873 0.097871 0.070356
H60   H     H_    0.546791 0.234677 0.166414 0.179117
H61   H     H_    0.421231 0.156828 0.953561 0.133026
H62   H     H_    0.415059 0.312953 0.985612 0.101136
H63   H     H_    0.448839 0.389840 0.866625 0.153780
H64   H     H_    0.515079 0.285644 0.901829 0.070612
H65   H     H_    0.453385 0.235163 0.833374 0.178683
H66   H     H_    0.622950 0.090117 0.446977 0.127664
H67   H     H_    0.359794 0.168589 0.562875 0.119554
H68   H     H_    0.348795 0.515571 0.432951 0.144957
O1    O     O_R   0.214270 0.709000 0.827470 -0.516040
O2    O     O_R   0.543270 0.717630 0.330160 -0.525837
O3    O     O_R   0.956730 0.217630 0.669840 -0.527905
O4    O     O_R   0.043270 0.217630 0.330160 -0.525837
O5    O     O_R   0.320620 0.625640 0.672920 -0.520104
O6    O     O_R   0.679380 0.625640 0.327080 -0.521492
O7    O     O_R   0.820620 0.125640 0.672920 -0.520105
O8    O     O_R   0.179380 0.125640 0.327080 -0.521492
O9    O     O_3   0.334280 0.834290 0.749180 -0.277491
O10   O     O_3   0.665720 0.834290 0.250820 -0.280419
O11   O     O_3   0.834280 0.334290 0.749180 -0.277492
O12   O     O_R   0.785730 0.709000 0.172530 -0.518044
O13   O     O_3   0.165720 0.334290 0.250820 -0.280419
O14   O     O_R   0.236160 0.958490 0.823130 -0.539155
O15   O     O_R   0.763840 0.958490 0.176870 -0.538171
O16   O     O_R   0.736160 0.458490 0.823130 -0.539158
O17   O     O_R   0.263840 0.458490 0.176870 -0.538171
O18   O     O_R   0.332080 0.075470 0.831280 -0.471836
O19   O     O_R   0.667920 0.075470 0.168720 -0.471054
O20   O     O_R   0.832080 0.575470 0.831280 -0.471826
O21   O     O_R   0.167920 0.575470 0.168720 -0.471056
O22   O     O_R   0.446300 0.918110 0.826620 -0.508305
O23   O     O_R   0.714270 0.209000 0.827470 -0.516040
O24   O     O_R   0.553700 0.918110 0.173380 -0.508027
O25   O     O_R   0.946300 0.418110 0.826620 -0.508305
O26   O     O_R   0.053700 0.418110 0.173380 -0.508027
O27   O     O_R   0.457110 0.716200 0.831760 -0.533593
O28   O     O_R   0.542890 0.716200 0.168240 -0.531662
O29   O     O_R   0.957110 0.216200 0.831760 -0.533594
O30   O     O_R   0.042890 0.216200 0.168240 -0.531662
O31   O     O_R   0.320980 0.624310 0.823030 -0.489875
O32   O     O_R   0.679020 0.624310 0.176970 -0.489945
O33   O     O_R   0.820980 0.124310 0.823030 -0.489877
O34   O     O_R   0.285730 0.209000 0.172530 -0.518044
O35   O     O_R   0.179020 0.124310 0.176970 -0.489944
O36   O     O_R   0.213890 0.710430 0.665540 -0.450736
O37   O     O_R   0.786110 0.710430 0.334460 -0.439346
O38   O     O_R   0.713890 0.210430 0.665540 -0.450734
O39   O     O_R   0.286110 0.210430 0.334460 -0.439346
O40   O     O_R   0.235810 0.959820 0.673020 -0.502498
O41   O     O_R   0.764190 0.959820 0.326980 -0.497068
O42   O     O_R   0.735810 0.459820 0.673020 -0.502498
O43   O     O_R   0.264190 0.459820 0.326980 -0.497068
O44   O     O_R   0.331700 0.076900 0.669350 -0.527655
O45   O     O_R   0.445950 0.919440 0.676520 -0.497216
O46   O     O_R   0.668300 0.076900 0.330650 -0.525575
O47   O     O_R   0.831700 0.576900 0.669350 -0.527654
O48   O     O_R   0.168300 0.576900 0.330650 -0.525575
O49   O     O_3   0.120085 0.606892 0.586416 -0.683205
O50   O     O_3   0.875956 0.662438 0.425883 -0.692521
O51   O     O_3   0.620085 0.106891 0.586416 -0.683205
O52   O     O_3   0.375956 0.162436 0.425882 -0.692521
O53   O     O_3   0.163206 0.761977 0.088164 -0.533454
O54   O     O_3   0.836998 0.761984 0.911608 -0.533593
O55   O     O_3   0.663207 0.261977 0.088164 -0.533455
O56   O     O_R   0.554050 0.919440 0.323480 -0.502250
O57   O     O_3   0.336999 0.261984 0.911611 -0.533597
O58   O     O_R   0.945950 0.419440 0.676520 -0.497217
O59   O     O_R   0.054050 0.419440 0.323480 -0.502250
O60   O     O_R   0.456730 0.717630 0.669840 -0.527904

loop_
_geom_bond_atom_site_label_1
_geom_bond_atom_site_label_2
_ccdc_geom_bond_type
C12   H20   S    
C58   C62   A    
C99   C103  S    
C14   H22   S    
Cr3   O3    S    
C76   C105  S    
H42   O51   S    
C53   C58   A    
C55   C59   A    
C43   O17   A    
C80   O1    A    
C57   C79   A    
C56   O51   S    
Cr1   O9    S    
Cr11  O13   S    
C61   H67   S    
Cr10  O25   S    
C17   H26   S    
C80   O31   A    
C76   H16   S    
C8    H55   S    
C92   O4    A    
C31   C80   S    
C82   O33   A    
C46   H37   S    
C45   C46   A    
C3    C105  S    
Cr12  O27   S    
C15   C19   A    
C31   C98   A    
C41   C46   A    
C62   C67   A    
C98   H18   S    
C2    H19   S    
C65   C102  S    
Cr1   O14   S    
C87   H17   S    
C13   C35   A    
C37   C40   A    
C90   O56   A    
C90   O2    A    
C38   C39   A    
C55   C77   A    
C30   H30   S    
Cr2   O10   S    
C20   C25   A    
C69   H3    S    
C45   H36   S    
C54   H14   S    
C7    H54   S    
C7    H53   S    
C77   C94   S    
C100  C104  S    
C56   C78   A    
C84   O44   A    
Cr3   O33   S    
C5    H48   S    
C89   O45   A    
C58   H45   S    
Cr11  O59   S    
Cr4   O8    S    
Cr8   O22   S    
Cr7   O34   S    
C94   O37   A    
Cr3   O11   S    
C83   O34   A    
C3    C100  S    
C92   O59   A    
C74   H8    S    
C6    C7    S    
C12   C16   A    
Cr1   O1    S    
C8    C9    S    
Cr8   O45   S    
C70   C74   A    
C47   C48   A    
C60   H66   S    
Cr5   O10   S    
C4    H44   S    
C24   O54   S    
C23   C27   A    
C32   O20   A    
C102  H1    S    
Cr2   O32   S    
C103  H12   S    
Cr7   O43   S    
C97   C102  S    
C9    H59   S    
C26   O57   S    
C68   C72   A    
C83   O35   A    
C51   O25   A    
C101  C108  S    
Cr5   O15   S    
C105  H34   S    
C91   O58   A    
C50   O24   A    
C1    C22   S    
C76   C108  S    
Cr2   O6    S    
C11   H65   S    
C7    H52   S    
Cr8   O44   S    
C25   C29   A    
C36   C41   A    
C53   C75   A    
Cr4   O13   S    
C81   O12   A    
Cr5   O41   S    
C1    O14   A    
C61   C66   A    
C9    H58   S    
C97   C99   S    
Cr1   O40   S    
C38   C44   A    
C14   C98   A    
C39   C42   A    
C6    H51   S    
C25   O55   S    
C101  C105  S    
C40   C45   A    
C88   O48   A    
C48   H39   S    
Cr10  O11   S    
C71   H5    S    
C100  H11   S    
C28   H28   S    
H40   O49   S    
C54   C106  S    
C3    C87   S    
C85   O46   A    
C86   O42   A    
C96   O39   A    
C54   C103  S    
C11   H63   S    
C59   H56   S    
C10   C11   S    
C53   O49   S    
C54   C65   S    
C35   C83   S    
Cr2   O28   S    
C51   C108  S    
H41   O50   S    
C8    O55   S    
C73   H7    S    
C73   C78   A    
C27   C31   A    
C29   C34   A    
Cr2   O2    S    
C51   O29   A    
C56   C60   A    
C72   H6    S    
C16   H25   S    
Cr6   O23   S    
C49   O22   A    
Cr10  O20   S    
Cr7   O39   S    
C72   C77   A    
C2    C15   A    
C42   C92   S    
C32   O16   A    
Cr6   O38   S    
Cr5   O37   S    
C18   C23   A    
C50   O28   A    
C78   C95   S    
C16   C20   A    
C86   O47   A    
C19   C32   S    
C52   O26   A    
Cr12  O9    S    
C104  H23   S    
C85   O41   A    
C10   O57   S    
C64   C69   A    
C69   C73   A    
C1    O18   A    
Cr1   O36   S    
C76   C87   S    
C29   H29   S    
C65   H15   S    
C44   C91   S    
Cr4   O4    S    
C62   C88   S    
C30   C35   A    
C2    C33   A    
C33   C81   S    
C28   C33   A    
C26   C30   A    
C13   H21   S    
Cr6   O11   S    
Cr7   O17   S    
C63   C86   S    
C50   C107  S    
C10   H62   S    
Cr4   O35   S    
Cr6   O16   S    
C23   O53   S    
C37   H32   S    
C68   H2    S    
C21   O15   A    
C84   O40   A    
C64   C85   S    
C104  C108  S    
C67   H68   S    
C75   C93   S    
C82   O23   A    
C6    H50   S    
C74   C79   A    
C99   C106  S    
C63   C68   A    
C36   C37   A    
C95   O7    A    
C99   H10   S    
C41   C89   S    
C94   O6    A    
Cr11  O21   S    
C52   O30   A    
C14   C18   A    
Cr9   O24   S    
C93   O5    A    
C11   H64   S    
C24   C28   A    
Cr12  O5    S    
C4    C5    S    
Cr9   O19   S    
Cr6   O42   S    
Cr12  O60   S    
C3    C52   S    
Cr10  O58   S    
C36   H31   S    
C57   C61   A    
C49   C106  S    
C101  H13   S    
Cr3   O29   S    
C49   O27   A    
C59   C63   A    
C17   C22   A    
C89   O60   A    
C13   C17   A    
C60   C64   A    
C9    H60   S    
C21   O19   A    
C19   C24   A    
C95   O38   A    
C97   H9    S    
C79   C96   S    
Cr4   O30   S    
C18   C43   S    
C71   C75   A    
Cr8   O9    S    
C81   O32   A    
C66   C70   A    
C91   O3    A    
Cr9   O46   S    
Cr12  O31   S    
Cr7   O13   S    
C100  C101  S    
Cr5   O12   S    
C4    H46   S    
C8    H57   S    
C93   O36   A    
C67   C71   A    
C42   C47   A    
C5    H47   S    
C55   O50   S    
C43   O21   A    
C57   O52   S    
C4    O53   S    
H43   O52   S    
C66   C84   S    
C87   C104  S    
C97   C107  S    
Cr9   O56   S    
C70   H4    S    
Cr11  O48   S    
C96   O8    A    
C88   O43   A    
C20   C21   S    
Cr11  O26   S    
C27   H27   S    
C15   H24   S    
C22   C26   A    
C102  C106  S    
C39   H35   S    
C10   H61   S    
C5    H49   S    
C6    O54   S    
C103  C107  S    
C34   C82   S    
C38   H33   S    
C40   C90   S    
Cr10  O47   S    
C12   C34   A    
C65   C107  S    
Cr8   O18   S    
Cr9   O10   S    
C44   C48   A    
Cr3   O7    S    
C47   H38   S    
