data_mof_unit_32293.cif
_audit_creation_date              2012-12-11T16:24:25-0500
_audit_creation_method            fapswitch 2.2
_symmetry_space_group_name_H-M    P1
_symmetry_Int_Tables_number       1
_space_group_crystal_system       triclinic
_cell_length_a                    14.690961
_cell_length_b                    14.704791
_cell_length_c                    33.207951
_cell_angle_alpha                 96.075096
_cell_angle_beta                  96.193487
_cell_angle_gamma                 61.285625
_cell_volume                      6242.90407349

loop_
_atom_site_label
_atom_site_type_symbol
_atom_type_description
_atom_site_fract_x
_atom_site_fract_y
_atom_site_fract_z
_atom_type_partial_charge
C1    C     C_R   0.389156 0.703966 0.447077 0.573981
C2    C     C_1   0.316643 0.364020 0.227601 0.113281
C3    C     C_2   0.781852 0.479034 0.169597 0.644840
C4    C     C_2   0.176932 0.811205 0.401967 0.632939
C5    C     C_2   0.514283 0.809231 0.431984 0.654587
C6    C     C_2   0.187540 0.826181 0.315082 0.640657
C7    C     C_2   0.178602 0.825661 0.157949 0.593181
C8    C     C_2   0.281806 0.455533 0.941867 0.614614
C9    C     C_2   0.506051 0.201469 0.298310 0.642543
C10   C     C_2   0.291301 0.518986 0.861410 0.632989
C11   C     C_2   0.273138 0.200870 0.796550 0.647237
C12   C     C_2   0.819003 0.139513 0.805955 0.615040
C13   C     C_1   0.322126 0.366323 0.264015 0.089614
C14   C     C_2   0.850109 0.190737 0.573480 0.593710
C15   C     C_2   0.923147 0.415325 0.795589 0.625973
C16   C     C_2   0.955964 0.431137 0.881994 0.646477
C17   C     C_2   0.533863 0.186985 0.384902 0.642690
C18   C     C_2   0.478907 0.865904 0.906676 0.630284
C19   C     C_2   0.525024 0.837554 0.687220 0.561440
C20   C     C_2   0.182414 0.807433 0.594339 0.632586
C21   C     C_2   0.166130 0.880961 0.679608 0.602720
C22   C     C_2   0.183022 0.495333 0.401180 0.603554
C23   C     C_2   0.134505 0.505316 0.181774 0.589371
C24   C     C_R   0.404858 0.384568 0.434169 0.571582
C25   C     C_R   0.296456 0.305132 0.100142 -0.016975
C26   C     C_R   0.752633 0.375227 0.408403 0.022805
C27   C     C_R   0.734804 0.451322 0.381470 0.101764
C28   C     C_R   0.754005 0.423418 0.340604 0.068991
C29   C     C_R   0.788350 0.319696 0.325713 -0.025708
C30   C     C_R   0.816452 0.240806 0.352768 0.064565
C31   C     C_R   0.803647 0.268348 0.394823 0.057467
C32   C     C_R   0.335227 0.361620 0.307504 -0.006548
C33   C     C_R   0.824485 0.285243 0.202009 0.360732
C34   C     C_R   0.800210 0.296014 0.282022 0.373583
C35   C     C_R   0.825950 0.379847 0.144003 0.019105
C36   C     C_R   0.701108 0.409921 0.447325 0.559674
C37   C     C_R   0.855047 0.376407 0.104298 -0.006320
C38   C     C_R   0.897780 0.193003 0.094992 0.115983
C39   C     C_R   0.869933 0.196596 0.134293 0.074300
C40   C     C_R   0.839583 0.287820 0.159422 -0.018653
C41   C     C_R   0.900027 0.279988 0.080974 -0.013100
C42   C     C_R   0.365436 0.769642 0.411915 -0.055859
C43   C     C_R   0.426224 0.281501 0.324877 -0.065896
C44   C     C_R   0.275500 0.792261 0.385479 -0.006003
C45   C     C_R   0.277515 0.807596 0.344344 0.020367
C46   C     C_R   0.364587 0.809590 0.331065 -0.027668
C47   C     C_R   0.442714 0.810307 0.359574 0.037937
C48   C     C_R   0.391903 0.704913 0.560822 0.573517
C49   C     C_R   0.441198 0.794197 0.400579 0.050581
C50   C     C_R   0.360218 0.829736 0.206403 0.389659
C51   C     C_R   0.371621 0.813079 0.287373 0.340489
C52   C     C_R   0.255612 0.844842 0.139825 0.025811
C53   C     C_R   0.235213 0.872356 0.099400 -0.132948
C54   C     C_R   0.441515 0.277543 0.367347 -0.004226
C55   C     C_R   0.386867 0.897906 0.103748 -0.088459
C56   C     C_R   0.410598 0.868365 0.143880 0.087788
C57   C     C_R   0.342922 0.845316 0.162618 0.041953
C58   C     C_R   0.297012 0.904298 0.081900 -0.020896
C59   C     C_R   0.371586 0.373460 0.586356 0.012675
C60   C     C_R   0.406785 0.388906 0.548968 0.565082
C61   C     C_R   0.268558 0.438112 0.597761 0.108580
C62   C     C_R   0.246080 0.444109 0.638723 0.087345
C63   C     C_R   0.325706 0.383194 0.667131 0.094912
C64   C     C_R   0.424819 0.311115 0.654130 0.058530
C65   C     C_R   0.399457 0.273717 0.165077 0.051322
C66   C     C_R   0.446808 0.306914 0.614051 -0.159036
C67   C     C_R   0.279832 0.391884 0.789502 0.391108
C68   C     C_R   0.306138 0.394130 0.710395 0.410718
C69   C     C_R   0.283459 0.423055 0.865329 0.023101
C70   C     C_R   0.283691 0.390357 0.904107 0.017955
C71   C     C_R   0.276054 0.236478 0.871229 0.075159
C72   C     C_R   0.702733 0.412764 0.562384 0.588778
C73   C     C_R   0.274305 0.268900 0.833056 0.092209
C74   C     C_R   0.277243 0.362587 0.830021 -0.038418
C75   C     C_R   0.281916 0.295955 0.906710 0.004793
C76   C     C_R   0.392112 0.249102 0.123014 0.027417
C77   C     C_R   0.758677 0.376699 0.602188 0.002279
C78   C     C_R   0.738654 0.450398 0.635520 0.053371
C79   C     C_R   0.769948 0.417118 0.675160 0.070227
C80   C     C_R   0.820116 0.310833 0.681602 0.079410
C81   C     C_R   0.846108 0.236290 0.648860 0.050105
C82   C     C_R   0.816972 0.268740 0.608640 0.015460
C83   C     C_R   0.858528 0.210819 0.825749 0.069774
C84   C     C_R   0.369039 0.359983 0.392434 -0.044388
C85   C     C_R   0.877097 0.215990 0.868374 0.052492
C86   C     C_R   0.925862 0.352168 0.863461 0.010064
C87   C     C_R   0.216678 0.397673 0.118215 0.061552
C88   C     C_R   0.909074 0.345455 0.820902 0.028244
C89   C     C_R   0.878405 0.272975 0.802213 -0.055622
C90   C     C_1   0.860984 0.270103 0.758646 0.097375
C91   C     C_1   0.844538 0.281106 0.722822 0.142184
C92   C     C_R   0.916617 0.282375 0.887432 -0.034112
C93   C     C_R   0.369483 0.770912 0.600028 -0.021101
C94   C     C_R   0.274596 0.804373 0.618572 -0.003603
C95   C     C_R   0.265502 0.841935 0.659701 0.010597
C96   C     C_R   0.270463 0.430225 0.374740 0.034634
C97   C     C_R   0.351178 0.844556 0.682205 -0.033578
C98   C     C_R   0.223165 0.419089 0.160774 0.050843
C99   C     C_R   0.439719 0.825895 0.662814 0.048182
C100  C     C_R   0.446685 0.793802 0.620856 0.052939
C101  C     C_R   0.410869 0.865073 0.834333 0.068572
C102  C     C_R   0.391985 0.881128 0.876009 0.044519
C103  C     C_R   0.215466 0.906499 0.858145 0.079237
C104  C     C_R   0.236177 0.887946 0.816823 0.097558
C105  C     C_R   0.331372 0.872517 0.805007 0.045370
C106  C     C_1   0.345816 0.863541 0.762233 0.066553
C107  C     C_1   0.350890 0.856360 0.726022 0.085371
C108  C     C_R   0.254979 0.432094 0.331830 0.085694
C109  C     C_R   0.313441 0.354252 0.183891 0.017362
C110  C     C_R   0.290670 0.910775 0.887943 0.001411
C111  C     C_R   0.961534 0.264396 0.045378 0.578343
C112  C     C_R   0.274129 0.261850 0.059593 0.579804
C113  C     C_R   0.259203 0.959856 0.044088 0.561534
C114  C     C_R   0.963447 0.267366 0.930123 0.542936
C115  C     C_R   0.270620 0.263881 0.945365 0.587299
C116  C     C_R   0.256858 0.963245 0.928915 0.577560
C117  C     C_2   0.485880 0.168349 0.103049 0.594123
C118  C     C_2   0.839624 0.473146 0.087717 0.644193
C119  C     C_2   0.852936 0.130860 0.336857 0.648683
Cr1   Cr    Cr6+3 0.576280 0.580550 0.506370 1.100966
Cr2   Cr    Cr6+3 0.346780 0.572400 0.496520 1.127991
Cr3   Cr    Cr6+3 0.576960 0.347070 0.497150 1.096623
Cr4   Cr    Cr6+3 0.087320 0.083240 0.984860 1.066881
Cr5   Cr    Cr6+3 0.087720 0.316210 0.996740 1.111714
Cr6   Cr    Cr6+3 0.317350 0.090340 0.995890 1.094128
H1    H     H_    0.165870 0.876798 0.082602 0.166244
H2    H     H_    0.951900 0.978684 0.343175 0.370416
H3    H     H_    0.786982 0.554391 0.223516 0.347424
H4    H     H_    0.863992 0.083024 0.066304 0.260065
H5    H     H_    0.989784 0.038121 0.084250 0.257845
H6    H     H_    0.801126 0.125034 0.158004 0.260526
H7    H     H_    0.928884 0.080480 0.173099 0.276921
H8    H     H_    0.045609 0.798058 0.394194 0.365896
H9    H     H_    0.537045 0.857581 0.489579 0.338393
H10   H     H_    0.555037 0.219447 0.177254 0.268266
H11   H     H_    0.509161 0.139494 0.189193 0.296805
H12   H     H_    0.436134 0.920872 0.090304 0.165900
H13   H     H_    0.104120 0.766385 0.281320 0.345248
H14   H     H_    0.492578 0.898747 0.335609 0.287606
H15   H     H_    0.562971 0.768699 0.324250 0.248814
H16   H     H_    0.096397 0.845990 0.206123 0.360664
H17   H     H_    0.552470 0.787532 0.172013 0.269441
H18   H     H_    0.540223 0.889158 0.148903 0.267304
H19   H     H_    0.118732 0.549111 0.579595 0.247569
H20   H     H_    0.176716 0.446093 0.546988 0.234490
H21   H     H_    0.334624 0.461065 0.000279 0.351418
H22   H     H_    0.127045 0.590589 0.647041 0.286591
H23   H     H_    0.525461 0.255582 0.605401 0.155068
H24   H     H_    0.090128 0.496128 0.636352 0.241907
H25   H     H_    0.527638 0.166191 0.670313 0.254458
H26   H     H_    0.568291 0.255997 0.682714 0.247795
H27   H     H_    0.548620 0.302434 0.281137 0.311947
H28   H     H_    0.238854 0.651710 0.833122 0.340147
H29   H     H_    0.339923 0.089264 0.888457 0.263104
H30   H     H_    0.207439 0.157474 0.889556 0.233415
H31   H     H_    0.208840 0.116856 0.766413 0.362855
H32   H     H_    0.916831 0.093821 0.902844 0.275199
H33   H     H_    0.807951 0.205151 0.916385 0.252969
H34   H     H_    0.582427 0.131330 0.058194 0.348639
H35   H     H_    0.724550 0.115704 0.762268 0.357201
H36   H     H_    0.856835 0.093270 0.648042 0.285043
H37   H     H_    0.970145 0.092992 0.640702 0.288667
H38   H     H_    0.868292 0.052871 0.547821 0.354207
H39   H     H_    0.726737 0.594372 0.640569 0.278549
H40   H     H_    0.613196 0.591857 0.644597 0.250391
H41   H     H_    0.991388 0.428064 0.748477 0.362041
H42   H     H_    0.917443 0.561945 0.918017 0.356505
H43   H     H_    0.689768 0.097343 0.388119 0.366529
H44   H     H_    0.668159 0.538880 0.709992 0.250809
H45   H     H_    0.832381 0.217463 0.452940 0.260026
H46   H     H_    0.783846 0.536811 0.706461 0.273318
H47   H     H_    0.603886 0.887000 0.923589 0.352919
H48   H     H_    0.502401 0.897530 0.803469 0.270613
H49   H     H_    0.540872 0.769138 0.805011 0.250734
H50   H     H_    0.565524 0.925123 0.728433 0.356818
H51   H     H_    0.572931 0.817793 0.615375 0.260564
H52   H     H_    0.494844 0.833810 0.574229 0.240214
H53   H     H_    0.072932 0.871867 0.549025 0.352852
H54   H     H_    0.141124 0.829574 0.791675 0.256626
H55   H     H_    0.092269 0.959562 0.788005 0.250290
H56   H     H_    0.922217 0.146095 0.421673 0.283947
H57   H     H_    0.057777 0.989660 0.855468 0.249351
H58   H     H_    0.106204 0.859994 0.860105 0.261049
H59   H     H_    0.057627 0.996108 0.713575 0.357252
H60   H     H_    0.112629 0.505876 0.451738 0.343874
H61   H     H_    0.085931 0.628734 0.222441 0.352455
H62   H     H_    0.086056 0.539924 0.108381 0.272596
H63   H     H_    0.163641 0.489132 0.070799 0.234966
H64   H     H_    0.098109 0.493682 0.321982 0.263711
H65   H     H_    0.144939 0.579204 0.320192 0.315179
H66   H     H_    0.621206 0.600265 0.378152 0.251161
H67   H     H_    0.862819 0.598577 0.095411 0.352188
H68   H     H_    0.742665 0.586018 0.389419 0.290597
H69   H     H_    0.674193 0.514027 0.293398 0.264784
H70   H     H_    0.803241 0.479847 0.299116 0.271664
N1    N     N_R   0.728037 0.335563 0.216011 -0.196901
N2    N     N_R   0.370746 0.896163 0.272772 -0.186422
N3    N     N_R   0.365365 0.904201 0.232954 -0.148141
N4    N     N_R   0.368354 0.386488 0.778330 -0.172507
N5    N     N_3   0.841451 0.187405 0.422922 -0.549965
N6    N     N_3   0.736230 0.503109 0.314449 -0.627694
N7    N     N_3   0.926581 0.099029 0.069706 -0.558347
N8    N     N_3   0.874159 0.105465 0.148385 -0.606951
N9    N     N_3   0.493781 0.216696 0.189470 -0.549216
N10   N     N_3   0.524910 0.825360 0.347114 -0.540447
N11   N     N_3   0.501394 0.865140 0.166336 -0.569453
N12   N     N_R   0.380919 0.388351 0.739440 -0.166575
N13   N     N_3   0.189771 0.498188 0.567574 -0.560586
N14   N     N_3   0.144785 0.514837 0.652386 -0.591199
N15   N     N_3   0.504285 0.242622 0.681809 -0.566273
N16   N     N_3   0.271262 0.141943 0.873470 -0.582153
N17   N     N_3   0.849506 0.157535 0.892021 -0.551455
N18   N     N_3   0.903486 0.128428 0.657135 -0.598310
N19   N     N_3   0.681245 0.559328 0.629129 -0.555458
N20   N     N_3   0.748497 0.491107 0.709470 -0.596405
N21   N     N_3   0.511414 0.840236 0.822053 -0.532286
N22   N     N_3   0.529539 0.786191 0.598619 -0.553130
N23   N     N_R   0.216040 0.403402 0.721813 -0.166275
N24   N     N_3   0.159302 0.887534 0.786254 -0.588060
N25   N     N_3   0.116327 0.924772 0.869648 -0.570234
N26   N     N_3   0.131356 0.469332 0.092767 -0.534586
N27   N     N_3   0.158015 0.503452 0.312232 -0.568102
N28   N     N_3   0.691400 0.559014 0.395057 -0.537954
N29   N     N_R   0.203221 0.402036 0.760708 -0.166863
N30   N     N_R   0.716194 0.340861 0.255460 -0.206670
N31   N     N_R   0.896456 0.243566 0.267837 -0.167684
N32   N     N_R   0.908327 0.237953 0.228367 -0.171971
N33   N     N_R   0.363223 0.745557 0.221007 -0.170425
N34   N     N_R   0.368545 0.737574 0.260837 -0.181133
O1    O     O_R   0.679450 0.499830 0.463150 -0.465697
O2    O     O_R   0.340240 0.172500 0.045430 -0.475324
O3    O     O_R   0.309670 0.000990 0.032050 -0.489194
O4    O     O_R   0.480650 0.664000 0.464630 -0.479781
O5    O     O_R   0.168330 0.982130 0.939200 -0.458766
O6    O     O_R   0.000140 0.178170 0.944610 -0.517110
O7    O     O_R   0.983010 0.336750 0.948660 -0.462971
O8    O     O_R   0.181800 0.312190 0.959860 -0.487074
O9    O     O_R   0.338500 0.175680 0.956950 -0.492821
O10   O     O_R   0.308050 0.003930 0.950020 -0.499310
O11   O     O_3   0.164130 0.163270 0.992500 -0.288232
O12   O     O_R   0.356040 0.477400 0.534170 -0.453490
O13   O     O_R   0.323930 0.675950 0.455370 -0.469923
O14   O     O_R   0.354700 0.475360 0.451930 -0.475009
O15   O     O_R   0.494470 0.320860 0.448390 -0.474782
O16   O     O_R   0.662580 0.357570 0.460050 -0.489786
O17   O     O_R   0.680900 0.502040 0.551870 -0.458295
O18   O     O_R   0.481990 0.666040 0.546870 -0.460524
O19   O     O_R   0.325370 0.678160 0.544080 -0.472004
O20   O     O_2   0.534582 0.081434 0.115794 -0.531156
O21   O     O_R   0.517893 0.192287 0.069328 -0.654145
O22   O     O_2   0.793122 0.498507 0.054589 -0.464352
O23   O     O_R   0.495910 0.323070 0.537100 -0.510666
O24   O     O_R   0.878016 0.535062 0.109966 -0.615000
O25   O     O_2   0.809681 0.111619 0.306138 -0.431907
O26   O     O_R   0.936083 0.049305 0.356776 -0.659106
O27   O     O_2   0.708372 0.556994 0.156091 -0.490687
O28   O     O_R   0.824081 0.482971 0.209143 -0.655515
O29   O     O_2   0.152833 0.858179 0.435042 -0.460573
O30   O     O_R   0.110830 0.777844 0.379854 -0.636576
O31   O     O_2   0.602145 0.787217 0.424012 -0.460854
O32   O     O_R   0.481047 0.850978 0.470810 -0.673196
O33   O     O_2   0.134819 0.911836 0.301572 -0.456512
O34   O     O_R   0.663920 0.359620 0.542290 -0.494326
O35   O     O_R   0.166404 0.744517 0.301683 -0.642569
O36   O     O_2   0.137202 0.779589 0.137585 -0.495685
O37   O     O_R   0.150002 0.863593 0.197554 -0.641994
O38   O     O_2   0.224975 0.549509 0.942940 -0.458912
O39   O     O_R   0.343729 0.408986 0.976432 -0.670815
O40   O     O_2   0.520806 0.112058 0.296081 -0.410422
O41   O     O_R   0.565432 0.226942 0.276179 -0.594165
O42   O     O_2   0.355802 0.535277 0.882767 -0.453587
O43   O     O_R   0.225596 0.590080 0.833022 -0.661146
O44   O     O_2   0.335878 0.176673 0.770832 -0.472316
O45   O     O_3   0.500010 0.500010 0.500010 -0.293558
O46   O     O_R   0.201382 0.162986 0.792136 -0.638566
O47   O     O_2   0.850944 0.053362 0.818472 -0.482507
O48   O     O_R   0.744983 0.170948 0.773063 -0.682247
O49   O     O_2   0.882967 0.207259 0.544271 -0.505626
O50   O     O_R   0.843246 0.099163 0.573461 -0.699809
O51   O     O_2   0.876605 0.509495 0.802625 -0.454123
O52   O     O_R   0.989375 0.372924 0.763718 -0.653027
O53   O     O_2   0.037986 0.425816 0.874320 -0.503435
O54   O     O_R   0.888833 0.512851 0.907396 -0.620984
O55   O     O_2   0.522301 0.136219 0.408861 -0.454215
O56   O     O_R   0.170070 0.978950 0.027680 -0.499908
O57   O     O_R   0.633482 0.160106 0.374073 -0.650175
O58   O     O_2   0.490075 0.820975 0.937252 -0.475040
O59   O     O_R   0.548324 0.902149 0.900551 -0.640873
O60   O     O_2   0.615053 0.768744 0.685551 -0.541218
O61   O     O_R   0.501484 0.926519 0.712998 -0.664447
O62   O     O_2   0.150778 0.747055 0.600210 -0.468551
O63   O     O_R   0.134263 0.877471 0.563843 -0.651896
O64   O     O_2   0.121438 0.828612 0.677682 -0.458927
O65   O     O_R   0.125287 0.977435 0.701412 -0.678812
O66   O     O_2   0.118592 0.583378 0.392785 -0.497824
O67   O     O_R   0.001760 0.175230 0.026640 -0.465218
O68   O     O_R   0.174514 0.454716 0.435991 -0.675781
O69   O     O_2   0.047012 0.514600 0.175203 -0.442823
O70   O     O_R   0.151894 0.574196 0.209814 -0.657540
O71   O     O_R   0.984760 0.333570 0.037150 -0.466628
O72   O     O_R   0.183410 0.309240 0.041890 -0.468865

loop_
_geom_bond_atom_site_label_1
_geom_bond_atom_site_label_2
_ccdc_geom_bond_type
C14   O50   S    
C5    O32   S    
C55   C56   A    
C119  O25   D    
C2    C109  S    
H57   N25   S    
C101  C102  A    
C17   O57   S    
C6    C45   S    
C39   N8    S    
C51   N34   A    
C73   C74   A    
C13   C32   S    
C50   N33   A    
C9    O41   S    
Cr6   O3    S    
C5    C49   S    
H15   N10   S    
C78   N19   S    
H29   N16   S    
C54   C84   A    
C81   C82   A    
C50   N3    A    
C23   O70   S    
C47   C49   A    
C45   C46   A    
C52   C53   A    
Cr2   O12   S    
C116  O10   A    
C60   O12   A    
C29   C30   A    
C112  O2    A    
C42   C44   A    
C103  C110  A    
H2    O26   S    
C28   N6    S    
C87   N26   S    
C28   C29   A    
C35   C37   A    
H24   N14   S    
C7    C52   S    
C48   O18   A    
C67   N4    A    
C118  O22   D    
H65   N27   S    
C59   C66   A    
C18   C102  S    
C38   C39   A    
H47   O59   S    
C86   C88   A    
Cr3   O34   S    
H18   N11   S    
C18   O59   S    
C30   C119  S    
Cr4   O67   S    
C101  N21   S    
C25   C87   A    
C56   C57   A    
C20   O62   D    
C24   O14   A    
C84   C96   A    
C72   O17   A    
C7    O36   D    
C2    C13   T    
C3    O27   D    
N33   N34   A    
H31   O46   S    
H36   N18   S    
Cr5   O72   S    
Cr4   O56   S    
C25   C112  S    
C113  O56   A    
C19   O60   D    
Cr2   O45   S    
C17   O55   D    
C37   C41   A    
C32   C43   A    
Cr2   O19   S    
C81   N18   S    
C37   C118  S    
C33   N1    A    
H27   O41   S    
H7    N8    S    
C19   O61   S    
C58   C113  S    
C4    O29   D    
C24   O15   A    
N31   N32   A    
Cr1   O18   S    
C27   N28   S    
N2    N3    A    
C51   N2    A    
C93   C94   A    
C66   H23   S    
Cr5   O71   S    
C8    O39   S    
C103  N25   S    
H20   N13   S    
C87   C98   A    
H46   N20   S    
H63   N26   S    
C14   O49   D    
C79   N20   S    
C96   C108  A    
C26   C31   A    
C63   C64   A    
C98   C109  A    
C10   O43   S    
C6    O35   S    
C16   C86   S    
C36   O16   A    
C50   C57   S    
C64   N15   S    
H61   O70   S    
C69   C70   A    
Cr1   O17   S    
C68   N12   A    
C8    O38   D    
C83   C89   A    
C22   O66   D    
H45   N5    S    
C31   N5    S    
C97   C99   A    
C85   C92   A    
C103  C104  A    
H66   N28   S    
H33   N17   S    
Cr2   O13   S    
H44   N20   S    
C9    C43   S    
C101  C105  A    
C59   C61   A    
C48   C93   S    
C47   N10   S    
H26   N15   S    
H53   O63   S    
C33   C40   S    
H48   N21   S    
C21   O64   D    
C38   C41   A    
C11   C73   S    
Cr1   O1    S    
C39   C40   A    
C115  O8    A    
C17   C54   S    
C117  O20   D    
H64   N27   S    
H14   N10   S    
C114  O7    A    
C18   O58   D    
C4    C44   S    
H39   N19   S    
C77   C78   A    
C41   C111  S    
C46   C51   S    
C5    O31   D    
C26   C36   S    
C12   C83   S    
C20   O63   S    
C7    O37   S    
C68   N23   A    
C104  N24   S    
C72   C77   S    
C118  O24   S    
Cr1   O4    S    
Cr4   O5    S    
C108  N27   S    
H40   N19   S    
C43   C54   A    
C99   C100  A    
C3    C35   S    
C117  O21   S    
C11   O46   S    
C12   O47   D    
C34   N30   A    
C62   C63   A    
N4    N12   A    
C112  O72   A    
C26   C27   A    
C69   C74   A    
C6    O33   D    
H58   N25   S    
C106  C107  T    
H21   O39   S    
C65   C76   A    
C93   C100  A    
C65   C109  A    
H10   N9    S    
Cr6   O11   S    
H41   O52   S    
Cr3   O16   S    
Cr4   O6    S    
H4    N7    S    
H43   O57   S    
C83   C85   A    
H13   O35   S    
C100  N22   S    
C111  O71   A    
H9    O32   S    
C71   N16   S    
H51   N22   S    
C21   C95   S    
C38   N7    S    
C53   H1    S    
C15   O52   S    
C22   O68   S    
C75   C115  S    
C14   C82   S    
H59   O65   S    
C52   C57   A    
C85   N17   S    
H25   N15   S    
H11   N9    S    
H6    N8    S    
C44   C45   A    
C113  O3    A    
C71   C73   A    
Cr4   O11   S    
H8    O30   S    
C110  C116  S    
Cr6   O10   S    
Cr2   O14   S    
C20   C94   S    
C46   C47   A    
C15   O51   D    
C72   O34   A    
C19   C99   S    
C111  O67   A    
C1    O4    A    
H54   N24   S    
C61   N13   S    
C78   C79   A    
H50   O61   S    
C22   C96   S    
C21   O65   S    
C76   C117  S    
H34   O21   S    
H52   N22   S    
C80   C81   A    
C33   N32   A    
C119  O26   S    
C104  C105  A    
H42   O54   S    
C115  O9    A    
Cr3   O15   S    
C53   C58   A    
C95   C97   A    
Cr1   O45   S    
C114  O6    A    
H70   N6    S    
C34   N31   A    
H62   N26   S    
C105  C106  S    
C63   C68   S    
C8    C70   S    
H28   O43   S    
C55   H12   S    
C10   O42   D    
C25   C76   A    
H3    O28   S    
C16   O54   S    
Cr3   O45   S    
C35   C40   A    
C24   C84   S    
H68   N28   S    
C48   O19   A    
C3    O28   S    
H16   O37   S    
C67   C74   S    
C71   C75   A    
Cr5   O8    S    
H69   N6    S    
C23   O69   D    
C90   C91   T    
C30   C31   A    
C65   N9    S    
H38   O50   S    
C77   C82   A    
C80   C91   S    
Cr5   O11   S    
C29   C34   S    
H30   N16   S    
C4    O30   S    
C62   N14   S    
H35   O48   S    
H49   N21   S    
N23   N29   A    
H17   N11   S    
C11   O44   D    
C16   O53   D    
C61   C62   A    
H5    N7    S    
Cr5   O7    S    
H60   O68   S    
C102  C110  A    
C1    O13   A    
C42   C49   A    
Cr3   O23   S    
C79   C80   A    
C97   C107  S    
C10   C69   S    
C1    C42   S    
C59   C60   S    
C23   C98   S    
C56   N11   S    
C88   C89   A    
C70   C75   A    
H32   N17   S    
C36   O1    A    
H67   O24   S    
C32   C108  A    
C55   C58   A    
C116  O5    A    
C27   C28   A    
C60   O23   A    
H55   N24   S    
C86   C92   A    
C9    O40   D    
C67   N29   A    
C89   C90   S    
H22   N14   S    
H56   N5    S    
C92   C114  S    
C12   O48   S    
C94   C95   A    
Cr6   O2    S    
Cr6   O9    S    
N1    N30   A    
C64   C66   A    
C15   C88   S    
H19   N13   S    
H37   N18   S    
