data_mof_unit_14370.cif
_audit_creation_date              2012-12-10T18:59:17-0500
_audit_creation_method            fapswitch 2.2
_symmetry_space_group_name_H-M    P1
_symmetry_Int_Tables_number       1
_space_group_crystal_system       triclinic
_cell_length_a                    10.762622
_cell_length_b                    10.823167
_cell_length_c                    9.553299
_cell_angle_alpha                 89.489535
_cell_angle_beta                  89.913094
_cell_angle_gamma                 90.103364
_cell_volume                      1112.77501055

loop_
_atom_site_label
_atom_site_type_symbol
_atom_type_description
_atom_site_fract_x
_atom_site_fract_y
_atom_site_fract_z
_atom_type_partial_charge
C1    C     C_R   0.503861 0.262325 0.500649 0.768846
C2    C     C_R   0.064506 0.382880 0.524806 0.096815
C3    C     C_R   0.129332 0.494138 0.500601 -0.141637
C4    C     C_R   0.067080 0.605338 0.480516 -0.288177
C5    C     C_R   0.938406 0.609397 0.483830 0.387244
C6    C     C_R   0.871408 0.498353 0.501330 -0.222802
C7    C     C_R   0.519694 0.061804 0.627367 0.103598
C8    C     C_R   0.518794 0.129278 0.501651 -0.191295
C9    C     C_R   0.534688 0.065792 0.374969 -0.159591
C10   C     C_R   0.531215 0.937065 0.373533 -0.118665
C11   C     C_R   0.511114 0.870954 0.498716 -0.072020
C12   C     C_R   0.262810 0.498352 0.500142 0.798730
C13   C     C_R   0.511524 0.934795 0.624681 0.114795
C14   C     C_3   0.421517 0.929459 0.743655 -0.533965
C15   C     C_3   0.435944 0.069145 0.752375 0.315324
C16   C     C_R   0.605142 0.529679 0.072839 0.251213
C17   C     C_R   0.400410 0.457935 0.074925 -0.009267
C18   C     C_R   0.400325 0.458090 0.926252 0.008367
C19   C     C_R   0.605070 0.529670 0.925693 0.291676
C20   C     C_3   0.675741 0.647828 0.917289 -0.461110
C21   C     C_3   0.675659 0.648342 0.076204 -0.444651
C22   C     C_R   0.500313 0.737720 0.499421 0.870867
C23   C     C_R   0.737370 0.501781 0.500109 0.887929
C24   C     C_R   0.127213 0.270209 0.549467 -0.162339
C25   C     C_R   0.060774 0.161583 0.574597 -0.115011
C26   C     C_R   0.931384 0.162973 0.573963 -0.051502
C27   C     C_R   0.867873 0.273037 0.548307 -0.133508
C28   C     C_R   0.933379 0.384678 0.524259 0.023321
Cu1   Cu    Cu3+1 0.499990 0.499980 0.640670 0.998187
Cu2   Cu    Cu3+1 0.500010 0.500020 0.359330 0.988987
H1    H     H_    0.120177 0.689564 0.465441 0.168823
H2    H     H_    0.457614 0.876331 0.834704 0.248755
H3    H     H_    0.348875 0.121509 0.732325 0.061455
H4    H     H_    0.319158 0.424958 0.130457 0.152184
H5    H     H_    0.319094 0.425084 0.871619 0.141558
H6    H     H_    0.769843 0.634936 0.871643 0.227410
H7    H     H_    0.621038 0.724396 0.870051 0.241594
H8    H     H_    0.770056 0.635875 0.121003 0.236895
H9    H     H_    0.620695 0.725307 0.120991 0.232284
H10   H     H_    0.227612 0.265312 0.550246 0.115017
H11   H     H_    0.110088 0.076238 0.594784 0.130667
H12   H     H_    0.879793 0.078663 0.593790 0.194492
H13   H     H_    0.767506 0.269888 0.548811 0.134118
H14   H     H_    0.543421 0.115128 0.276404 0.212675
H15   H     H_    0.538454 0.890303 0.274192 0.176501
H16   H     H_    0.327152 0.900665 0.709389 0.149194
N1    N     N_R   0.500790 0.500930 0.147930 -0.201163
N2    N     N_R   0.500790 0.500890 0.852020 -0.189853
O1    O     O_R   0.500000 0.319640 0.618810 -0.551585
O2    O     O_R   0.500010 0.319680 0.381230 -0.569564
O3    O     O_R   0.319640 0.499980 0.618820 -0.600002
O4    O     O_R   0.319650 0.500020 0.381230 -0.586950
O5    O     O_R   0.499990 0.680320 0.618770 -0.578324
O6    O     O_R   0.500000 0.680360 0.381190 -0.582780
O7    O     O_R   0.680350 0.499980 0.618770 -0.566343
O8    O     O_R   0.680360 0.500020 0.381180 -0.567640
S1    S     S_3+6 0.518258 0.116091 0.906481 -0.009349
O9    O     O_2   0.588122 0.233815 0.877732 -0.285214
O10   O     O_2   0.425982 0.136682 0.022098 -0.324981
O11   O     O_3   0.620098 0.006359 0.956093 -0.536660
H17   H     H_    0.655077 0.035875 0.045630 0.371700
S2    S     S_3+6 0.864688 0.755618 0.476142 -0.018118
O12   O     O_2   0.779650 0.761397 0.352036 -0.298374
O13   O     O_2   0.789333 0.774169 0.606826 -0.329636
O14   O     O_3   0.970123 0.869791 0.461440 -0.527096
H18   H     H_    0.009797 0.873992 0.554727 0.327952

loop_
_geom_bond_atom_site_label_1
_geom_bond_atom_site_label_2
_ccdc_geom_bond_type
C17   H4    S    
C23   O7    A    
C16   C21   S    
C1    O2    A    
C1    C8    S    
Cu2   O6    S    
C9    C10   A    
C11   C22   S    
S2    O13   D    
C19   C20   S    
C21   H9    S    
Cu2   O8    S    
C18   N2    A    
C10   H15   S    
C7    C15   S    
C17   C18   A    
S1    O9    D    
C23   O8    A    
C14   H16   S    
Cu1   O1    S    
C13   C14   S    
C20   C21   S    
C20   H7    S    
C15   S1    S    
C26   C27   A    
Cu1   Cu2   S    
Cu1   O5    S    
C16   C19   A    
C6    C23   S    
C16   N1    A    
C12   O4    A    
Cu1   O3    S    
C5    S2    S    
C2    C3    A    
C22   O5    A    
C2    C24   A    
C5    C6    A    
Cu2   O2    S    
S1    O10   D    
C11   C13   A    
C7    C8    A    
C10   C11   A    
C21   H8    S    
Cu1   N2    S    
C3    C4    A    
C4    H1    S    
C27   H13   S    
Cu2   N1    S    
C7    C13   A    
C12   O3    A    
C24   C25   A    
C26   H12   S    
C22   O6    A    
O14   H18   S    
C18   H5    S    
C25   H11   S    
C27   C28   A    
Cu2   O4    S    
C14   C15   S    
C8    C9    A    
C9    H14   S    
C2    C28   A    
C3    C12   S    
Cu1   O7    S    
S2    O14   S    
C24   H10   S    
C25   C26   A    
C19   N2    A    
C4    C5    A    
C1    O1    A    
C15   H3    S    
C6    C28   A    
S2    O12   D    
C17   N1    A    
C14   H2    S    
O11   H17   S    
S1    O11   S    
C20   H6    S    
