data_mof_unit_7101.cif
_audit_creation_date              2012-12-10T17:38:46-0500
_audit_creation_method            fapswitch 2.2
_symmetry_space_group_name_H-M    P1
_symmetry_Int_Tables_number       1
_space_group_crystal_system       triclinic
_cell_length_a                    12.381216
_cell_length_b                    13.177103
_cell_length_c                    23.504677
_cell_angle_alpha                 76.023749
_cell_angle_beta                  101.490647
_cell_angle_gamma                 117.378152
_cell_volume                      3287.08536162

loop_
_atom_site_label
_atom_site_type_symbol
_atom_type_description
_atom_site_fract_x
_atom_site_fract_y
_atom_site_fract_z
_atom_type_partial_charge
C1    C     C_R   0.855304 0.286261 0.504178 0.906435
C2    C     C_R   0.851462 0.291681 0.042283 -0.148719
C3    C     C_R   0.851220 0.291489 0.982914 -0.133778
C4    C     C_R   0.927607 0.391301 0.947030 -0.038427
C5    C     C_R   0.005172 0.491915 0.971413 -0.013153
C6    C     C_R   0.081983 0.592605 0.935815 -0.032973
C7    C     C_R   0.159120 0.692383 0.960577 -0.135395
C8    C     C_R   0.159704 0.692387 0.019974 -0.147848
C9    C     C_R   0.928254 0.393582 0.887109 0.626978
C10   C     C_R   0.079290 0.590760 0.876144 0.594504
C11   C     C_R   0.936050 0.544496 0.749676 -0.214841
C12   C     C_R   0.000367 0.500169 0.608926 0.879815
C13   C     C_R   0.935148 0.547412 0.689898 0.631173
C14   C     C_R   0.000300 0.498691 0.671814 -0.279468
C15   C     C_R   0.065951 0.447620 0.714694 -0.331691
C16   C     C_R   0.066263 0.444698 0.774403 0.710006
C17   C     C_R   0.001341 0.493229 0.791967 0.125624
C18   C     C_R   0.049882 0.427973 0.255658 0.304528
C19   C     C_R   0.046579 0.430850 0.314375 -0.339123
C20   C     C_R   0.001221 0.500830 0.328485 -0.062619
C21   C     C_R   0.958180 0.569098 0.282666 0.243101
C22   C     C_R   0.958384 0.563427 0.224011 -0.226861
C23   C     C_R   0.145445 0.714051 0.491080 0.837016
C24   C     C_R   0.004434 0.494166 0.210221 0.299609
C25   C     C_R   0.284736 0.019071 0.408851 -0.145948
C26   C     C_R   0.229683 0.836694 0.476510 -0.135336
C27   C     C_R   0.814333 0.079730 0.541084 0.608789
C28   C     C_R   0.734878 0.962536 0.549181 -0.197826
C29   C     C_R   0.613442 0.926024 0.525977 -0.159441
C30   C     C_R   0.569823 0.006639 0.492348 0.017238
C31   C     C_R   0.656172 0.121931 0.474235 -0.137701
C32   C     C_R   0.443836 0.975425 0.474351 -0.026365
C33   C     C_R   0.408609 0.051064 0.429265 -0.012942
C34   C     C_R   0.000609 0.501177 0.391050 0.839356
C35   C     C_R   0.497567 0.156856 0.404470 -0.268556
C36   C     C_R   0.619971 0.192614 0.426561 0.626974
C37   C     C_R   0.351323 0.872833 0.500849 0.563576
C38   C     C_R   0.195875 0.911303 0.431560 -0.281288
C39   C     C_R   0.775547 0.161532 0.504606 -0.232657
C40   C     C_R   0.374401 0.388833 0.613199 0.613329
C41   C     C_R   0.752660 0.633347 0.414724 0.116879
C42   C     C_R   0.654164 0.660723 0.394444 -0.260595
C43   C     C_R   0.555483 0.614709 0.427592 -0.138172
C44   C     C_R   0.554973 0.541972 0.482427 -0.026408
C45   C     C_R   0.081587 0.590909 0.115515 0.520055
C46   C     C_R   0.657867 0.515244 0.502079 0.189240
C47   C     C_R   0.454966 0.492918 0.518158 -0.182814
C48   C     C_R   0.471464 0.441647 0.577578 -0.180664
C49   C     C_R   0.581280 0.435170 0.599211 0.615789
C50   C     C_R   0.656912 0.445359 0.559394 0.165599
C51   C     C_R   0.338718 0.491867 0.497831 0.062551
C52   C     C_R   0.261644 0.385734 0.589624 0.029994
C53   C     C_R   0.929337 0.394220 0.126451 0.588419
C54   C     C_R   0.928270 0.391614 0.067014 -0.030685
C55   C     C_R   0.005625 0.491999 0.031481 -0.009463
C56   C     C_R   0.083036 0.592665 0.055797 -0.018376
Cu1   Cu    Cu3+1 0.098270 0.475410 0.513370 1.002145
Cu2   Cu    Cu3+1 0.901730 0.524590 0.486630 1.026763
H1    H     H_    0.791217 0.213374 0.068669 0.190752
H2    H     H_    0.080178 0.378372 0.349127 0.173685
H3    H     H_    0.925037 0.615225 0.188705 0.161478
H4    H     H_    0.101747 0.884676 0.412620 0.171821
H5    H     H_    0.472168 0.212988 0.368208 0.172506
H6    H     H_    0.257121 0.075729 0.373943 0.152064
H7    H     H_    0.556567 0.833726 0.532887 0.224473
H8    H     H_    0.766408 0.899775 0.575500 0.199451
H9    H     H_    0.790798 0.213058 0.965229 0.196233
H10   H     H_    0.187467 0.346592 0.617171 0.174337
H11   H     H_    0.320354 0.534076 0.454186 0.128436
H12   H     H_    0.828656 0.670098 0.388615 0.145521
H13   H     H_    0.482485 0.640377 0.410370 0.135010
H14   H     H_    0.654482 0.718200 0.352812 0.151739
H15   H     H_    0.219115 0.770805 0.934157 0.200650
H16   H     H_    0.220145 0.770828 0.037648 0.194270
H17   H     H_    0.886381 0.582599 0.763296 0.205344
H18   H     H_    0.116543 0.409239 0.702111 0.221383
N1    N     N_R   0.005622 0.492682 0.149476 -0.449986
N2    N     N_R   0.003175 0.492343 0.853168 -0.438363
N3    N     N_R   0.246280 0.438190 0.533650 -0.224245
N4    N     N_R   0.754320 0.561190 0.466710 -0.175595
O1    O     O_R   0.972510 0.318130 0.516820 -0.532741
O2    O     O_2   0.854059 0.299640 0.160853 -0.523806
O3    O     O_2   0.854313 0.298328 0.862810 -0.486443
O4    O     O_2   0.152184 0.686296 0.841310 -0.496346
O5    O     O_R   0.806530 0.359650 0.494230 -0.516354
O6    O     O_R   0.082990 0.479200 0.593420 -0.585643
O7    O     O_R   0.917010 0.520720 0.570830 -0.530602
O8    O     O_R   0.193470 0.640350 0.505770 -0.538388
O9    O     O_R   0.027490 0.681870 0.483180 -0.594236
O10   O     O_R   0.082990 0.479280 0.429170 -0.620290
O11   O     O_R   0.917010 0.520800 0.406580 -0.526698
O12   O     O_2   0.156117 0.686244 0.139670 -0.541193
N5    N     N_2   0.918994 0.646859 0.294909 -0.417762
H19   H     H_    0.850559 0.657306 0.264564 0.256673
C57   C     C_3   0.018055 0.757024 0.305758 -0.694150
H20   H     H_    0.067465 0.803783 0.265868 0.246411
H21   H     H_    0.083156 0.743851 0.343425 0.218325
H22   H     H_    0.980745 0.811378 0.316667 0.213276
F1    F     F_    0.375894 0.809625 0.552270 -0.659630
F2    F     F_    0.928534 0.112582 0.569969 -0.637144
F3    F     F_    0.703004 0.292160 0.397869 -0.660525
F4    F     F_    0.599264 0.387362 0.656372 -0.576726
F5    F     F_    0.386531 0.337691 0.670127 -0.567342
N6    N     N_2   0.697573 0.356943 0.572575 -0.371017
H23   H     H_    0.745174 0.353440 0.613812 0.288827
C58   C     C_3   0.599974 0.242702 0.566420 -0.619877
H24   H     H_    0.637988 0.178093 0.577226 0.226444
H25   H     H_    0.554189 0.242994 0.520742 0.220709
H26   H     H_    0.530800 0.214953 0.597540 0.259713
F6    F     F_    0.872748 0.599952 0.650106 -0.628925
F7    F     F_    0.130323 0.395404 0.815214 -0.606238
N7    N     N_2   0.097595 0.357478 0.242470 -0.405795
H27   H     H_    0.084586 0.283734 0.273582 0.256182
C59   C     C_3   0.222558 0.419820 0.227928 -0.658381
H28   H     H_    0.250775 0.359395 0.216177 0.232309
H29   H     H_    0.284532 0.457091 0.266324 0.219928
H30   H     H_    0.231475 0.490489 0.189594 0.251146

loop_
_geom_bond_atom_site_label_1
_geom_bond_atom_site_label_2
_ccdc_geom_bond_type
C46   N4    A    
C55   C56   A    
C50   N6    S    
N5    H19   S    
C41   C42   A    
Cu1   N3    S    
C53   N1    A    
C19   C20   A    
Cu2   O7    S    
C8    C56   A    
C41   N4    A    
N7    C59   S    
C59   H28   S    
C10   N2    A    
C57   H22   S    
C7    C8    A    
C7    H15   S    
C53   C54   A    
C29   C30   A    
C58   H25   S    
C18   C24   A    
C28   C29   A    
C18   N7    S    
C5    C6    A    
C58   H24   S    
C1    O1    A    
C15   C16   A    
Cu1   O6    S    
C18   C19   A    
C23   C26   S    
C45   O12   S    
C34   O11   A    
N7    H27   S    
C57   H20   S    
C45   C56   A    
C27   C39   A    
C16   C17   A    
C23   O9    A    
C52   N3    A    
Cu2   O11   S    
C52   H10   S    
C44   C47   A    
Cu2   N4    S    
C20   C34   S    
C15   H18   S    
N5    C57   S    
C21   C22   A    
C42   H14   S    
N6    H23   S    
C44   C46   A    
C1    O5    A    
C27   F2    S    
Cu1   O10   S    
C2    C54   A    
C49   F4    S    
C2    H1    S    
C26   C38   A    
C47   C51   A    
C40   C52   A    
C53   O2    S    
C35   C36   A    
C28   H8    S    
C43   C44   A    
C34   O10   A    
C13   F6    S    
C25   C38   A    
C47   C48   A    
C8    H16   S    
C32   C37   A    
C6    C7    A    
C9    O3    S    
C29   H7    S    
C48   C49   A    
C12   C14   S    
C23   O8    A    
C22   C24   A    
C42   C43   A    
C3    C4    A    
Cu2   O5    S    
C37   F1    S    
C40   C48   A    
C54   C55   A    
C11   C17   A    
C43   H13   S    
C12   O7    A    
C14   C15   A    
C5    C55   A    
C3    H9    S    
C4    C5    A    
C6    C10   A    
C59   H29   S    
C57   H21   S    
C26   C37   A    
N6    C58   S    
C19   H2    S    
C22   H3    S    
C46   C50   A    
Cu1   O8    S    
C12   O6    A    
C32   C33   A    
C2    C3    A    
C11   H17   S    
C40   F5    S    
C30   C32   A    
C11   C13   A    
Cu1   Cu2   S    
C30   C31   A    
C21   N5    S    
C10   O4    S    
C17   N2    S    
C33   C35   A    
C31   C39   A    
Cu1   O1    S    
C9    N2    A    
Cu2   O9    S    
C51   N3    A    
C59   H30   S    
C1    C39   S    
C24   N1    S    
C20   C21   A    
C49   C50   A    
C27   C28   A    
C31   C36   A    
C36   F3    S    
C35   H5    S    
C51   H11   S    
C45   N1    A    
C4    C9    A    
C13   C14   A    
C25   H6    S    
C16   F7    S    
C25   C33   A    
C41   H12   S    
C38   H4    S    
C58   H26   S    
