data_mof_unit_46960.cif
_audit_creation_date              2012-12-10T16:57:01-0500
_audit_creation_method            fapswitch 2.2
_symmetry_space_group_name_H-M    P1
_symmetry_Int_Tables_number       1
_space_group_crystal_system       triclinic
_cell_length_a                    7.802651
_cell_length_b                    8.459946
_cell_length_c                    16.848543
_cell_angle_alpha                 90.651464
_cell_angle_beta                  83.072945
_cell_angle_gamma                 93.336319
_cell_volume                      1102.17227219

loop_
_atom_site_label
_atom_site_type_symbol
_atom_type_description
_atom_site_fract_x
_atom_site_fract_y
_atom_site_fract_z
_atom_type_partial_charge
Br1   Br    Br    0.245550 0.444856 0.982808 -0.346332
Br2   Br    Br    0.768299 0.741600 0.010283 -0.339361
Br3   Br    Br    0.401460 0.915196 0.889419 -0.348663
Br4   Br    Br    0.612375 0.234672 0.062670 -0.370874
C1    C     C_R   0.545324 0.793249 0.509411 0.921768
C2    C     C_R   0.446484 0.660899 0.233903 -0.026709
C3    C     C_R   0.621275 0.471715 0.854617 -0.210238
C4    C     C_R   0.415408 0.662929 0.154667 -0.214610
C5    C     C_R   0.568389 0.615823 0.887512 0.068445
C6    C     C_R   0.463027 0.537848 0.104056 0.066716
C7    C     C_R   0.478527 0.718103 0.844989 0.339708
C8    C     C_R   0.542001 0.407473 0.131540 0.338779
C9    C     C_R   0.440407 0.673616 0.769294 -0.223421
C10   C     C_R   0.570130 0.402551 0.211179 -0.241786
C11   C     C_2   0.568925 0.634286 0.972617 0.208430
C12   C     C_R   0.454900 0.206956 0.514072 1.006460
C13   C     C_2   0.444952 0.553289 0.020546 0.192315
C14   C     C_2   0.611922 0.259685 0.753972 0.533073
C15   C     C_2   0.403936 0.802748 0.283227 0.425776
C16   C     C_2   0.754569 0.012869 0.540165 0.623981
C17   C     C_2   0.266403 0.988137 0.588855 0.535459
C18   C     C_2   0.026946 0.434939 0.398858 0.732694
C19   C     C_2   0.971525 0.564102 0.601003 0.693414
C20   C     C_2   0.572279 0.955378 0.532565 -0.354361
C21   C     C_2   0.434073 0.046434 0.543455 -0.199388
C22   C     C_R   0.481580 0.502132 0.653114 0.909616
C23   C     C_R   0.519273 0.504050 0.347055 0.967178
C24   C     C_R   0.488029 0.526804 0.737307 -0.054823
C25   C     C_R   0.520497 0.526870 0.262488 -0.092211
C26   C     C_R   0.575842 0.422895 0.780811 -0.059838
H1    H     H_    0.624834 0.299566 0.233710 0.189069
H2    H     H_    0.930507 0.462178 0.638619 0.062547
H3    H     H_    0.377210 0.754886 0.734702 0.165201
H4    H     H_    0.359447 0.764553 0.131247 0.188662
H5    H     H_    0.684408 0.391426 0.889962 0.200539
H6    H     H_    0.713115 0.198404 0.777587 0.111435
H7    H     H_    0.309796 0.881407 0.266026 0.091004
H8    H     H_    0.861710 0.960607 0.504083 0.098562
H9    H     H_    0.258020 0.878206 0.621914 0.104666
H10   H     H_    0.077962 0.535889 0.362428 0.003857
N1    N     N_2   0.953500 0.457650 0.478520 -0.174136
N2    N     N_2   0.046500 0.542350 0.521480 -0.200046
O1    O     O_R   0.388470 0.738640 0.505270 -0.613584
O2    O     O_2   0.479257 0.838140 0.340774 -0.579387
O3    O     O_2   0.786498 0.113587 0.589545 -0.501023
O4    O     O_2   0.138296 0.065100 0.592894 -0.515964
O5    O     O_2   0.023310 0.302749 0.369234 -0.585139
O6    O     O_2   0.958534 0.697345 0.628586 -0.611027
O7    O     O_R   0.611530 0.261360 0.494730 -0.598895
O8    O     O_R   0.679650 0.711510 0.491500 -0.634883
O9    O     O_R   0.320350 0.288490 0.508500 -0.585152
O10   O     O_R   0.337210 0.515200 0.623500 -0.643911
O11   O     O_R   0.662790 0.484800 0.376500 -0.620132
O12   O     O_R   0.628380 0.488060 0.609730 -0.643361
O13   O     O_R   0.371620 0.511940 0.390270 -0.643273
O14   O     O_2   0.523017 0.188899 0.708780 -0.562157
Zn1   Zn    Zn3+2 0.305580 0.518120 0.509190 1.001521
Zn2   Zn    Zn3+2 0.694420 0.481880 0.490810 1.013809

loop_
_geom_bond_atom_site_label_1
_geom_bond_atom_site_label_2
_ccdc_geom_bond_type
O11   Zn2   S    
C23   O11   A    
C9    C24   A    
C9    H3    S    
C14   C26   S    
C22   O10   A    
Br4   C8    S    
C16   H8    S    
N1    N2    D    
C22   C24   S    
C16   O3    D    
C17   H9    S    
C12   O9    A    
C14   O14   D    
C10   H1    S    
C5    C7    A    
C18   H10   S    
C19   H2    S    
C24   C26   A    
C18   O5    D    
C5    C11   S    
C20   C21   D    
C3    C26   A    
C4    H4    S    
C12   O7    A    
Br2   C11   S    
C7    C9    A    
Br1   C13   S    
C19   N2    S    
C6    C8    A    
O9    Zn1   S    
C22   O12   A    
N2    Zn1   S    
C3    H5    S    
C2    C15   S    
N1    Zn2   S    
O13   Zn1   S    
C1    O1    A    
C23   O13   A    
C1    O8    A    
C18   N1    S    
C23   C25   S    
O10   Zn1   S    
O1    Zn1   S    
C6    C13   S    
O8    Zn2   S    
C2    C25   A    
Br3   C7    S    
C15   O2    D    
C4    C6    A    
C17   O4    D    
O12   Zn2   S    
C12   C21   S    
C3    C5    A    
C17   C21   S    
C1    C20   S    
C2    C4    A    
C19   O6    D    
C15   H7    S    
C11   C13   D    
C14   H6    S    
O7    Zn2   S    
C16   C20   S    
C8    C10   A    
C10   C25   A    
