data_mof_unit_41705.cif
_audit_creation_date              2012-10-26T19:02:35-0400
_audit_creation_method            fapswitch 2.2
_symmetry_space_group_name_H-M    P1
_symmetry_Int_Tables_number       1
_space_group_crystal_system       triclinic
_cell_length_a                    17.391927
_cell_length_b                    8.690972
_cell_length_c                    7.417696
_cell_angle_alpha                 103.024664
_cell_angle_beta                  89.469307
_cell_angle_gamma                 93.083065
_cell_volume                      1090.77428533

loop_
_atom_site_label
_atom_site_type_symbol
_atom_type_description
_atom_site_fract_x
_atom_site_fract_y
_atom_site_fract_z
_atom_type_partial_charge
C1    C     C_R   0.497649 0.199657 0.453548 0.557266
C2    C     C_R   0.776525 0.521931 0.616807 -0.101488
C3    C     C_R   0.144879 0.493294 0.386623 -0.088845
C4    C     C_R   0.855121 0.506706 0.613377 -0.088845
C5    C     C_R   0.106803 0.536549 0.555544 0.013667
C6    C     C_R   0.893197 0.463451 0.444456 0.013667
C7    C     C_R   0.148435 0.569009 0.721031 -0.080576
C8    C     C_R   0.851564 0.430991 0.278969 -0.080576
C9    C     C_R   0.228208 0.553245 0.720864 0.007052
C10   C     C_R   0.771792 0.446755 0.279136 0.007052
C11   C     C_2   0.023204 0.547420 0.562829 -0.130846
C12   C     C_R   0.502351 0.800342 0.546451 0.557266
C13   C     C_2   0.976796 0.452580 0.437171 -0.130846
C14   C     C_2   0.732563 0.418400 0.096941 0.223467
C15   C     C_2   0.267437 0.581600 0.903059 0.223467
C16   C     C_2   0.496500 0.031800 0.427330 -0.142958
C17   C     C_2   0.503500 0.968200 0.572670 -0.142958
C18   C     C_R   0.350971 0.502307 0.528124 0.539883
C19   C     C_R   0.649029 0.497693 0.471876 0.539884
C20   C     C_R   0.266694 0.508442 0.547962 -0.018828
C21   C     C_R   0.733306 0.491558 0.452037 -0.018828
C22   C     C_R   0.223475 0.478069 0.383193 -0.101488
Cu1   Cu    Cu3+1 0.508700 0.517250 0.683000 0.975738
Cu2   Cu    Cu3+1 0.491300 0.482750 0.317000 0.975738
H1    H     H_    0.250431 0.443651 0.248997 0.153488
H2    H     H_    0.510117 0.039800 0.712753 0.140808
H3    H     H_    0.440385 0.377827 0.957759 0.230709
H4    H     H_    0.559614 0.622173 0.042241 0.230709
H5    H     H_    0.685462 0.488318 0.074564 0.131296
H6    H     H_    0.314538 0.511682 0.925436 0.131296
H7    H     H_    0.749569 0.556349 0.751003 0.153487
H8    H     H_    0.000361 0.367256 0.322935 0.122835
H9    H     H_    0.999638 0.632744 0.677065 0.122835
H10   H     H_    0.117959 0.601651 0.851211 0.142119
H11   H     H_    0.882041 0.398349 0.148789 0.142119
H12   H     H_    0.885613 0.526774 0.743845 0.120044
H13   H     H_    0.114387 0.473226 0.256155 0.120044
H14   H     H_    0.489883 0.960200 0.287247 0.140808
N1    N     N_2   0.478180 0.456750 0.041980 -0.259369
N2    N     N_2   0.521820 0.543250 0.958020 -0.259368
O1    O     O_R   0.505650 0.286040 0.618880 -0.502927
O2    O     O_2   0.245354 0.681447 0.033902 -0.515044
O3    O     O_R   0.494350 0.713960 0.381120 -0.502928
O4    O     O_R   0.490960 0.256910 0.309800 -0.493333
O5    O     O_R   0.509040 0.743090 0.690200 -0.493333
O6    O     O_R   0.394600 0.516230 0.672450 -0.526278
O7    O     O_R   0.605400 0.483770 0.327550 -0.526278
O8    O     O_R   0.379910 0.487100 0.363380 -0.497883
O9    O     O_R   0.620090 0.512900 0.636620 -0.497883
O10   O     O_2   0.754646 0.318553 0.966098 -0.515043

loop_
_geom_bond_atom_site_label_1
_geom_bond_atom_site_label_2
_ccdc_geom_bond_type
C12   C17   S    
C2    C4    A    
Cu1   Cu2   S    
C4    H12   S    
Cu1   O5    S    
C19   O9    A    
C13   H8    S    
Cu1   O1    S    
C1    O4    A    
C2    C21   A    
C9    C15   S    
C1    C16   S    
Cu1   O6    S    
C6    C13   S    
C11   C13   D    
C14   O10   D    
C17   H2    S    
C18   O6    A    
C4    C6    A    
C19   C21   S    
C20   C22   A    
C5    C11   S    
C12   O3    A    
C18   C20   S    
C10   C21   A    
Cu2   O4    S    
C7    H10   S    
C19   O7    A    
Cu1   O9    S    
H4    N2    S    
C14   H5    S    
H3    N1    S    
Cu1   N2    S    
Cu2   O8    S    
C7    C9    A    
C11   H9    S    
Cu2   N1    S    
C3    H13   S    
C15   H6    S    
C8    C10   A    
C10   C14   S    
C12   O5    A    
C1    O1    A    
N1    N2    D    
C5    C7    A    
Cu2   O3    S    
C16   C17   D    
C3    C22   A    
C6    C8    A    
C9    C20   A    
Cu2   O7    S    
C8    H11   S    
C15   O2    D    
C16   H14   S    
C2    H7    S    
C3    C5    A    
C22   H1    S    
C18   O8    A    
