data_mof_unit_8314.cif
_audit_creation_date              2012-12-11T21:12:37-0500
_audit_creation_method            fapswitch 2.2
_symmetry_space_group_name_H-M    P1
_symmetry_Int_Tables_number       1
_space_group_crystal_system       triclinic
_cell_length_a                    8.320315
_cell_length_b                    18.97998
_cell_length_c                    26.984148
_cell_angle_alpha                 100.991104
_cell_angle_beta                  92.120605
_cell_angle_gamma                 87.588977
_cell_volume                      4177.62621823

loop_
_atom_site_label
_atom_site_type_symbol
_atom_type_description
_atom_site_fract_x
_atom_site_fract_y
_atom_site_fract_z
_atom_type_partial_charge
Ba1   Ba    Ba6+2 0.160810 0.465630 0.521640 1.725093
Ba2   Ba    Ba6+2 0.649380 0.534380 0.478400 1.726436
C1    C     C_3   0.417836 0.260775 0.696879 -0.297960
C2    C     C_R   0.084756 0.092936 0.461472 -0.110392
C3    C     C_R   0.226398 0.954794 0.474721 -0.067853
C4    C     C_3   0.968498 0.266881 0.622486 0.414040
C5    C     C_R   0.072600 0.979556 0.492482 0.021350
C6    C     C_R   0.275707 0.883163 0.469742 -0.079636
C7    C     C_R   0.177068 0.833200 0.484256 -0.054533
C8    C     C_R   0.030446 0.857834 0.508053 0.020399
C9    C     C_R   0.977905 0.931611 0.512211 0.028465
C10   C     C_R   0.221970 0.759452 0.476112 -0.000012
C11   C     C_R   0.121188 0.711173 0.491958 -0.226531
C12   C     C_3   0.441587 0.291179 0.649552 0.314180
C13   C     C_R   0.983425 0.734392 0.519501 -0.010004
C14   C     C_R   0.936892 0.808935 0.527660 -0.042902
C15   C     C_R   0.862344 0.075430 0.511949 0.028753
C16   C     C_3   0.001851 0.196647 0.641076 -0.327380
C17   C     C_R   0.801512 0.146902 0.509064 0.017125
C18   C     C_R   0.884908 0.191670 0.482017 -0.067167
C19   C     C_R   0.017003 0.158647 0.454026 -0.087195
C20   C     C_R   0.800938 0.836580 0.554936 -0.043562
C21   C     C_R   0.747809 0.908124 0.558248 -0.103745
C22   C     C_R   0.830584 0.956642 0.535352 0.011026
C23   C     C_3   0.502379 0.312171 0.390143 0.233044
C24   C     C_R   0.772099 0.028908 0.535031 0.020934
C25   C     C_R   0.621861 0.055296 0.554610 -0.100906
C26   C     C_R   0.652207 0.171543 0.530611 -0.030728
C27   C     C_R   0.563952 0.124468 0.552399 -0.105085
C28   C     C_3   0.930635 0.652062 0.643102 0.220299
C29   C     C_R   0.593526 0.242044 0.528963 -0.012533
C30   C     C_R   0.684914 0.288179 0.507399 -0.288007
C31   C     C_R   0.828824 0.265491 0.483199 -0.000133
C32   C     C_R   0.182908 0.470736 0.164218 0.625579
C33   C     C_R   0.369998 0.564747 0.188532 0.661657
C34   C     C_3   0.558335 0.234995 0.365580 -0.333440
C35   C     C_2   0.070769 0.553231 0.270185 -0.088429
C36   C     C_3   0.015578 0.537432 0.320205 -0.087588
C37   C     C_1   0.287508 0.492932 0.336212 0.059302
C38   C     C_2   0.329851 0.493169 0.289236 -0.007405
C39   C     C_2   0.217234 0.524678 0.253709 0.211432
C40   C     C_3   0.974341 0.704110 0.692041 -0.341500
C41   C     C_R   0.323120 0.514853 0.099044 -0.072899
C42   C     C_R   0.211694 0.468583 0.112739 -0.039475
C43   C     C_R   0.130797 0.421265 0.074745 -0.039663
C44   C     C_R   0.403248 0.563120 0.137294 -0.025366
C45   C     C_3   0.870584 0.726580 0.384328 0.366812
C46   C     C_2   0.157857 0.529237 0.355560 -0.266174
C47   C     C_2   0.605220 0.443832 0.631310 -0.182985
C48   C     C_R   0.293192 0.467219 0.956971 0.019877
C49   C     C_R   0.512766 0.550758 0.982056 0.014061
C50   C     C_R   0.420473 0.507252 0.943756 0.059342
C51   C     C_R   0.196615 0.428788 0.917607 -0.076201
C52   C     C_3   0.977480 0.357004 0.356850 0.303312
C53   C     C_R   0.230259 0.425867 0.867224 0.004025
C54   C     C_R   0.360797 0.461552 0.853670 -0.012667
C55   C     C_R   0.456172 0.503215 0.891821 -0.078793
C56   C     C_3   0.867169 0.802223 0.373208 -0.305564
C57   C     C_R   0.587327 0.540110 0.878044 -0.082576
C58   C     C_R   0.612806 0.537140 0.825765 0.702000
C59   C     C_R   0.399176 0.455267 0.802597 0.591490
C60   C     C_2   0.692349 0.427312 0.720417 -0.067123
C61   C     C_3   0.722470 0.407841 0.664168 -0.104395
C62   C     C_1   0.506453 0.497885 0.651157 0.115482
C63   C     C_2   0.479049 0.513248 0.700320 -0.051281
C64   C     C_3   0.833950 0.382400 0.324964 -0.355470
C65   C     C_2   0.575110 0.477751 0.737251 0.208109
C66   C     C_R   0.266621 0.466685 0.008835 0.021264
C67   C     C_3   0.311311 0.731956 0.357434 0.220497
C68   C     C_R   0.354116 0.512942 0.047040 0.058266
C69   C     C_R   0.472525 0.557205 0.033765 0.021937
C70   C     C_R   0.157018 0.420401 0.024000 -0.096173
C71   C     C_R   0.511692 0.609883 0.123427 -0.037176
C72   C     C_R   0.647362 0.584057 0.967616 -0.123171
C73   C     C_R   0.688152 0.577760 0.917044 -0.020948
C74   C     C_R   0.546067 0.606953 0.072933 -0.082547
C75   C     C_3   0.348640 0.703456 0.637161 0.391065
C76   C     C_3   0.359176 0.761440 0.685014 -0.341373
C77   C     C_2   0.101794 0.318296 0.321144 0.913187
C78   C     C_3   0.338516 0.754145 0.307023 -0.166247
C79   C     C_2   0.833639 0.362777 0.267386 0.942162
C80   C     C_2   0.393449 0.731762 0.592029 0.806605
C81   C     C_2   0.622270 0.227054 0.313139 0.990325
C82   C     C_2   0.363931 0.833399 0.314088 0.898454
C83   C     C_2   0.060927 0.177358 0.406578 0.977720
C84   C     C_2   0.775968 0.382516 0.754007 0.877720
C85   C     C_2   0.966252 0.593944 0.238675 0.889817
C86   C     C_2   0.845458 0.606317 0.907842 0.933694
C87   C     C_2   0.838671 0.591264 0.653143 0.863783
C88   C     C_R   0.011039 0.050198 0.490362 0.018502
H1    H     H_    0.408748 0.349386 0.657950 0.065429
H2    H     H_    0.324816 0.739215 0.718163 0.108131
H3    H     H_    0.277159 0.808141 0.681691 0.096908
H4    H     H_    0.569902 0.281697 0.639650 -0.037759
H5    H     H_    0.291526 0.270635 0.709010 0.172451
H6    H     H_    0.609578 0.342165 0.406072 0.017739
H7    H     H_    0.424271 0.309379 0.422173 0.064436
H8    H     H_    0.651066 0.215556 0.390942 0.060107
H9    H     H_    0.459403 0.197796 0.362045 0.134140
H10   H     H_    0.498658 0.287078 0.727930 0.107117
H11   H     H_    0.942575 0.152249 0.615013 0.057910
H12   H     H_    0.865285 0.721539 0.714397 0.151693
H13   H     H_    0.995155 0.711390 0.395151 -0.130848
H14   H     H_    0.914542 0.840192 0.406402 0.071490
H15   H     H_    0.942311 0.803788 0.340296 0.155637
H16   H     H_    0.212265 0.766790 0.376164 0.005300
H17   H     H_    0.276570 0.674842 0.350110 0.005890
H18   H     H_    0.231695 0.740825 0.281531 0.067739
H19   H     H_    0.444917 0.723544 0.289184 0.163603
H20   H     H_    0.020075 0.262321 0.584601 0.064002
H21   H     H_    0.732210 0.803117 0.573682 0.145978
H22   H     H_    0.446567 0.139615 0.567407 0.112283
H23   H     H_    0.063297 0.678064 0.715163 0.106431
H24   H     H_    0.639027 0.342344 0.507368 0.060536
H25   H     H_    0.184395 0.071527 0.438021 0.064382
H26   H     H_    0.640887 0.923763 0.579486 0.089227
H27   H     H_    0.835732 0.273891 0.618704 -0.103927
H28   H     H_    0.543021 0.023193 0.571125 0.074583
H29   H     H_    0.444300 0.468728 0.275720 0.089890
H30   H     H_    0.045635 0.384526 0.084113 0.141433
H31   H     H_    0.153490 0.394726 0.838649 0.131042
H32   H     H_    0.091733 0.401035 0.924420 0.069201
H33   H     H_    0.570168 0.649662 0.151663 0.117233
H34   H     H_    0.025202 0.753092 0.683130 0.096780
H35   H     H_    0.627717 0.646157 0.065659 0.093053
H36   H     H_    0.163723 0.562055 0.393177 0.051438
H37   H     H_    0.953304 0.200570 0.679296 0.156795
H38   H     H_    0.036527 0.626894 0.624239 0.036265
H39   H     H_    0.236804 0.322240 0.260810 0.342504
H40   H     H_    0.773027 0.463340 0.257534 0.296249
H41   H     H_    0.437086 0.817851 0.561094 0.306547
H42   H     H_    0.484339 0.780134 0.691786 0.139438
H43   H     H_    0.403728 0.233731 0.279991 0.319413
H44   H     H_    0.790462 0.726414 0.416264 0.095437
H45   H     H_    0.033541 0.403911 0.381393 -0.088653
H46   H     H_    0.741663 0.819418 0.364685 0.168780
H47   H     H_    0.274171 0.934047 0.338072 0.326253
H48   H     H_    0.155866 0.654652 0.485233 0.087023
H49   H     H_    0.392405 0.867734 0.454027 0.098883
H50   H     H_    0.292865 0.191715 0.428840 0.262728
H51   H     H_    0.312937 0.989934 0.464547 0.073648
H52   H     H_    0.857006 0.372479 0.823838 0.305491
H53   H     H_    0.092169 0.381141 0.997498 0.076991
H54   H     H_    0.743449 0.622112 0.216902 0.336010
H55   H     H_    0.730665 0.611514 0.995586 0.098834
H56   H     H_    0.823410 0.440837 0.335974 0.053002
H57   H     H_    0.132730 0.183596 0.642618 0.135218
H58   H     H_    0.997669 0.688008 0.924372 0.320429
H59   H     H_    0.380926 0.550276 0.714652 0.080551
H60   H     H_    0.618167 0.430046 0.590797 0.089617
H61   H     H_    0.757958 0.555876 0.581872 0.303084
H62   H     H_    0.722963 0.360553 0.335354 0.101523
H63   H     H_    0.226152 0.687805 0.630881 -0.164112
H64   H     H_    0.446232 0.202071 0.689349 0.097671
N1    N     N_R   0.259811 0.519333 0.201339 -0.427314
N2    N     N_R   0.527019 0.491074 0.789462 -0.429285
O1    O     O_2   0.106080 0.324280 0.466820 -0.457138
O2    O     O_2   0.676195 0.558656 0.331353 -0.438696
O3    O     O_3   0.816691 0.679200 0.341130 -0.559461
O4    O     O_3   0.859130 0.413620 0.470620 -0.480647
O5    O     O_3   0.459240 0.537930 0.559910 -0.453894
O6    O     O_2   0.583120 0.462390 0.379940 -0.480222
O7    O     O_3   0.415613 0.346225 0.355012 -0.637867
O8    O     O_2   0.559557 0.754623 0.479533 -0.484645
O9    O     O_3   0.453487 0.740233 0.387210 -0.592419
O10   O     O_2   0.088636 0.429574 0.176100 -0.521689
O11   O     O_2   0.319463 0.417527 0.769694 -0.590230
O12   O     O_3   0.452795 0.646290 0.644280 -0.649608
O13   O     O_2   0.437117 0.607228 0.221713 -0.588202
O14   O     O_2   0.710899 0.575156 0.812300 -0.516203
O15   O     O_3   0.376230 0.370290 0.556910 -0.486104
O16   O     O_2   0.260964 0.244818 0.516472 -0.503090
O17   O     O_3   0.919695 0.309167 0.385885 -0.610511
O18   O     O_3   0.340506 0.256786 0.610619 -0.600248
O19   O     O_2   0.227190 0.537650 0.620070 -0.507034
O20   O     O_3   0.971110 0.406970 0.583250 -0.455670
O21   O     O_2   0.043497 0.464333 0.678337 -0.415105
O22   O     O_2   0.133791 0.254486 0.318945 -0.485069
O23   O     O_3   0.038602 0.324050 0.656484 -0.552908
O24   O     O_R   0.168765 0.354521 0.286791 -0.801450
O25   O     O_2   0.852457 0.300278 0.246332 -0.459346
O26   O     O_R   0.804121 0.414584 0.237430 -0.670632
O27   O     O_2   0.401663 0.690054 0.551907 -0.595079
O28   O     O_R   0.417943 0.804981 0.595012 -0.801401
O29   O     O_2   0.763733 0.210968 0.305952 -0.449060
O30   O     O_R   0.520979 0.232497 0.271589 -0.682516
O31   O     O_2   0.490123 0.854863 0.301682 -0.577412
O32   O     O_R   0.242582 0.882293 0.334653 -0.759457
O33   O     O_2   0.965153 0.167735 0.370995 -0.494731
O34   O     O_2   0.704230 0.675760 0.533200 -0.392290
O35   O     O_R   0.216902 0.195447 0.399260 -0.720426
O36   O     O_2   0.823684 0.321516 0.736157 -0.636351
O37   O     O_R   0.801331 0.409052 0.805522 -0.740545
O38   O     O_2   0.026718 0.631446 0.212726 -0.615950
O39   O     O_R   0.799303 0.590101 0.238704 -0.705587
O40   O     O_2   0.942565 0.568561 0.880731 -0.560709
O41   O     O_R   0.886163 0.675054 0.932741 -0.745743
O42   O     O_2   0.811064 0.584474 0.696113 -0.584579
O43   O     O_R   0.797535 0.537795 0.612854 -0.776560
O44   O     O_3   0.951180 0.586390 0.529420 -0.500493
O45   O     O_3   0.434080 0.629720 0.443130 -0.425653
O46   O     O_3   0.840119 0.690089 0.611994 -0.653067
O47   O     O_3   0.351080 0.462080 0.440130 -0.469422
O48   O     O_3   0.839200 0.593040 0.416790 -0.490611
P1    P     P_3+3 0.929380 0.335110 0.452880 1.008891
P2    P     P_3+3 0.398530 0.559060 0.613740 1.037359
P3    P     P_3+3 0.942383 0.404138 0.646494 1.099883
P4    P     P_3+3 0.880940 0.664900 0.547160 0.968733
P5    P     P_3+3 0.838462 0.591166 0.351959 1.016608
P6    P     P_3+3 0.395145 0.277853 0.553334 0.926243
P7    P     P_3+3 0.402815 0.439751 0.376509 0.966618
P8    P     P_3+3 0.414776 0.722345 0.446764 1.005970

loop_
_geom_bond_atom_site_label_1
_geom_bond_atom_site_label_2
_ccdc_geom_bond_type
C70   H53   S    
C53   C54   A    
C53   H31   S    
Ba1   O20   S    
C47   C61   S    
C4    O23   S    
C25   C27   A    
C86   O40   D    
C2    H25   S    
C17   C18   A    
C49   C72   A    
C79   O25   D    
C78   C82   S    
Ba2   O6    S    
C67   H17   S    
C40   H34   S    
H54   O39   S    
C45   O3    S    
C32   N1    Am   
C75   O12   S    
C5    C9    A    
C87   O42   D    
C60   C84   S    
C31   P1    S    
C24   C25   A    
C60   C61   S    
C60   C65   D    
C6    H49   S    
Ba2   O44   S    
C15   C24   A    
O20   P3    S    
C26   C27   A    
C22   C24   A    
O16   P6    D    
C51   H32   S    
C84   O37   S    
C69   C74   A    
H58   O41   S    
C55   C57   A    
C45   C56   S    
O6    P7    D    
C76   H3    S    
C83   O33   D    
C13   C14   A    
C80   O28   S    
C9    C22   A    
C23   O7    S    
C54   C55   A    
Ba1   Ba2   S    
C34   H8    S    
C76   H42   S    
C72   H55   S    
C75   H63   S    
C21   H26   S    
C1    H10   S    
C87   O43   S    
C6    C7    A    
C63   C65   S    
C78   H19   S    
C48   C50   A    
C21   C22   A    
C81   O30   S    
C68   C69   A    
Ba1   P1    S    
C7    C8    A    
O45   P8    S    
C36   C46   S    
C13   P4    S    
H47   O32   S    
O2    P5    D    
O4    P1    S    
Ba1   O5    S    
C57   C58   A    
O44   P4    S    
C47   C62   D    
O46   P4    S    
C43   C70   A    
C63   H59   S    
C74   H35   S    
C4    H20   S    
O47   P7    S    
Ba2   O45   S    
C49   C69   A    
C79   O26   S    
C28   C87   S    
C4    C16   S    
C40   H12   S    
Ba2   O5    S    
C41   C44   A    
O18   P6    S    
C2    C88   A    
C51   C53   A    
Ba2   O4    S    
C28   O46   S    
H39   O24   S    
C28   H38   S    
C48   C51   A    
C45   H13   S    
C72   C73   A    
C15   C88   A    
C49   C50   A    
H61   O43   S    
C26   C29   A    
Ba2   O48   S    
C10   P8    S    
C16   H57   S    
H40   O26   S    
C37   C38   D    
C3    C5    A    
O15   P6    S    
O7    P7    S    
C76   H2    S    
C75   C76   S    
C5    C88   A    
C62   P2    S    
C80   O27   D    
Ba1   O15   S    
C19   C83   S    
O21   P3    D    
C30   C31   A    
C65   N2    S    
C59   O11   D    
C16   H11   S    
C86   O41   S    
O48   P5    S    
C41   C42   A    
C58   N2    Am   
C64   H62   S    
C35   C36   S    
Ba1   P2    S    
C16   H37   S    
H41   O28   S    
C40   H23   S    
C3    H51   S    
C29   C30   A    
O23   P3    S    
C66   C70   A    
C77   O22   D    
C37   P7    S    
C54   C59   A    
C10   C11   A    
C17   C26   A    
C1    C12   S    
H43   O30   S    
C27   H22   S    
C47   H60   S    
C43   H30   S    
C23   H7    S    
C38   C39   S    
C41   C68   A    
C11   C13   A    
C45   H44   S    
C33   O13   D    
C71   C74   A    
O12   P2    S    
O5    P2    S    
C82   O32   S    
Ba1   O44   S    
Ba2   P4    S    
C18   C31   A    
C50   C55   A    
Ba1   O47   S    
C59   N2    Am   
C57   C73   A    
C1    H5    S    
C42   C43   A    
C52   O17   S    
C52   C77   S    
C25   H28   S    
O34   P4    D    
C32   C42   A    
Ba1   O19   S    
C14   C20   A    
C4    H27   S    
C20   C21   A    
C35   C85   S    
Ba1   O4    S    
C28   C40   S    
Ba2   O47   S    
Ba2   O34   S    
C85   O38   D    
C33   N1    Am   
C67   C78   S    
C3    C6    A    
O17   P1    S    
C67   H16   S    
O9    P8    S    
C52   C64   S    
C83   O35   S    
C78   H18   S    
C84   O36   D    
O3    P5    S    
C56   H15   S    
C56   H46   S    
C62   C63   D    
Ba1   O1    S    
C58   O14   D    
C12   O18   S    
C8    C14   A    
C11   H48   S    
C64   C79   S    
C2    C19   A    
C46   H36   S    
C29   P6    S    
C75   C80   S    
O8    P8    D    
C52   H45   S    
C44   C71   A    
C15   C17   A    
H52   O37   S    
C34   H9    S    
C1    H64   S    
C36   P5    S    
C35   C39   D    
C7    C10   A    
C67   O9    S    
C12   H1    S    
C64   H56   S    
C8    C9    A    
C23   C34   S    
C85   O39   S    
C73   C86   S    
C38   H29   S    
C56   H14   S    
C18   C19   A    
C23   H6    S    
C66   C68   A    
C20   H21   S    
H50   O35   S    
C77   O24   S    
C81   O29   D    
C82   O31   D    
C61   P3    S    
C34   C81   S    
O19   P2    D    
C30   H24   S    
C32   O10   D    
C33   C44   A    
C48   C66   A    
C12   H4    S    
O1    P1    D    
C37   C46   D    
C39   N1    S    
C71   H33   S    
