data_mof_unit_5089.cif
_audit_creation_date              2012-12-10T17:55:49-0500
_audit_creation_method            fapswitch 2.2
_symmetry_space_group_name_H-M    P1
_symmetry_Int_Tables_number       1
_space_group_crystal_system       triclinic
_cell_length_a                    11.033373
_cell_length_b                    10.810909
_cell_length_c                    9.596058
_cell_angle_alpha                 89.088645
_cell_angle_beta                  101.883346
_cell_angle_gamma                 92.407376
_cell_volume                      1119.07540943

loop_
_atom_site_label
_atom_site_type_symbol
_atom_type_description
_atom_site_fract_x
_atom_site_fract_y
_atom_site_fract_z
_atom_type_partial_charge
C1    C     C_R   0.498489 0.262295 0.500376 0.779144
C2    C     C_R   0.499408 0.737673 0.499323 0.776391
C3    C     C_R   0.263257 0.501598 0.442484 0.858048
C4    C     C_R   0.736939 0.502198 0.557324 0.861747
C5    C     C_R   0.424802 0.419752 0.060446 -0.055004
C6    C     C_R   0.577296 0.578231 0.940103 -0.053267
C7    C     C_R   0.421324 0.420031 0.911782 0.207830
C8    C     C_R   0.577022 0.581427 0.087758 0.210269
C9    C     C_2   0.128843 0.504359 0.409849 -0.351248
C10   C     C_2   0.871723 0.509923 0.588731 -0.359168
C11   C     C_2   0.067567 0.523118 0.513099 -0.170248
C12   C     C_2   0.933080 0.515571 0.482574 -0.154557
C13   C     C_R   0.458975 0.064307 0.371991 -0.178386
C14   C     C_R   0.532387 0.935512 0.628221 -0.180304
C15   C     C_R   0.458668 0.936236 0.371476 -0.208809
C16   C     C_R   0.531224 0.063455 0.629053 -0.191783
C17   C     C_R   0.497372 0.871581 0.499187 -0.011870
C18   C     C_R   0.495946 0.128269 0.500730 -0.011194
Cu1   Cu    Cu3+1 0.500000 0.500020 0.640660 0.924168
Cu2   Cu    Cu3+1 0.500000 0.499980 0.359340 0.925360
H1    H     H_    0.884138 0.511558 0.371974 0.176750
H2    H     H_    0.116709 0.540910 0.621692 0.178331
H3    H     H_    0.366522 0.355347 0.106706 0.149061
H4    H     H_    0.639567 0.638914 0.894962 0.146593
H5    H     H_    0.921147 0.512065 0.699175 0.146740
H6    H     H_    0.079466 0.489078 0.300771 0.148279
H7    H     H_    0.429441 0.113083 0.272021 0.141733
H8    H     H_    0.561830 0.886856 0.728249 0.150509
H9    H     H_    0.427737 0.887942 0.271652 0.145851
H10   H     H_    0.559859 0.111512 0.729411 0.147093
N1    N     N_R   0.500030 0.500030 0.852080 -0.194523
N2    N     N_R   0.499970 0.499970 0.147920 -0.193899
O1    O     O_R   0.499990 0.319660 0.618740 -0.606857
O2    O     O_R   0.500010 0.680340 0.381260 -0.597328
O3    O     O_R   0.499990 0.319630 0.381170 -0.584798
O4    O     O_R   0.500010 0.680370 0.618830 -0.585470
O5    O     O_R   0.320690 0.500020 0.575130 -0.590240
O6    O     O_R   0.679310 0.499980 0.424870 -0.597244
O7    O     O_R   0.320680 0.499990 0.337560 -0.580220
O8    O     O_R   0.679320 0.500010 0.662440 -0.581196
C19   C     C_3   0.331309 0.324492 0.827938 -0.378431
C20   C     C_3   0.195189 0.341055 0.840094 -0.390607
C21   C     C_3   0.144080 0.234188 0.920147 -0.846704
H11   H     H_    0.147405 0.145509 0.864386 0.255285
H12   H     H_    0.197773 0.226591 0.030878 0.242561
H13   H     H_    0.046068 0.250251 0.923979 0.245253
H14   H     H_    0.184312 0.430048 0.891919 0.217224
H15   H     H_    0.135956 0.343655 0.731546 0.225150
H16   H     H_    0.331997 0.325117 0.714804 0.239775
H17   H     H_    0.362088 0.231007 0.866319 0.176444
C22   C     C_3   0.667821 0.676188 0.171453 -0.381483
C23   C     C_3   0.635328 0.810981 0.127404 -0.368234
C24   C     C_3   0.729325 0.875674 0.051014 -0.861103
H18   H     H_    0.823014 0.878272 0.121157 0.258342
H19   H     H_    0.733061 0.827755 0.950866 0.242043
H20   H     H_    0.702108 0.972298 0.024223 0.242312
H21   H     H_    0.540981 0.815303 0.059126 0.216255
H22   H     H_    0.635329 0.865230 0.224663 0.224860
H23   H     H_    0.674677 0.669122 0.286022 0.235494
H24   H     H_    0.762431 0.656631 0.156224 0.169282

loop_
_geom_bond_atom_site_label_1
_geom_bond_atom_site_label_2
_ccdc_geom_bond_type
C11   C12   S    
C4    O8    A    
C6    H4    S    
C3    C9    S    
C21   H12   S    
C19   C20   S    
C11   H2    S    
Cu1   Cu2   S    
C5    H3    S    
C21   H11   S    
C5    N2    A    
Cu2   O2    S    
Cu1   N1    S    
C2    O2    A    
C13   C15   A    
C6    N1    A    
C3    O7    A    
C20   H15   S    
C24   H18   S    
C2    C17   S    
C9    C11   D    
C8    C22   S    
C3    O5    A    
C1    C18   S    
C23   H22   S    
C13   C18   A    
C10   C12   D    
C10   H5    S    
C19   H16   S    
C4    O6    A    
C9    H6    S    
C15   H9    S    
C22   H23   S    
C5    C7    A    
C20   H14   S    
C7    C19   S    
Cu1   O1    S    
C21   H13   S    
C14   C16   A    
C7    N1    A    
Cu1   O8    S    
C24   H19   S    
C1    O1    A    
C23   H21   S    
C8    N2    A    
C16   H10   S    
C19   H17   S    
Cu2   O6    S    
C23   C24   S    
C1    O3    A    
C16   C18   A    
Cu2   N2    S    
C24   H20   S    
C2    O4    A    
C15   C17   A    
Cu2   O7    S    
C13   H7    S    
C6    C8    A    
C22   H24   S    
Cu1   O5    S    
C14   H8    S    
Cu1   O4    S    
Cu2   O3    S    
C4    C10   S    
C12   H1    S    
C22   C23   S    
C20   C21   S    
C14   C17   A    
