data_mof_unit_52955.cif
_audit_creation_date              2012-12-11T17:16:01-0500
_audit_creation_method            fapswitch 2.2
_symmetry_space_group_name_H-M    P1
_symmetry_Int_Tables_number       1
_space_group_crystal_system       triclinic
_cell_length_a                    14.575476
_cell_length_b                    7.240707
_cell_length_c                    13.578896
_cell_angle_alpha                 90.0018
_cell_angle_beta                  99.657131
_cell_angle_gamma                 89.999033
_cell_volume                      1412.76486469

loop_
_atom_site_label
_atom_site_type_symbol
_atom_type_description
_atom_site_fract_x
_atom_site_fract_y
_atom_site_fract_z
_atom_type_partial_charge
O1    O     O_R   0.398210 0.494340 0.401550 -0.531380
O2    O     O_R   0.601790 0.994340 0.598450 -0.531384
O3    O     O_R   0.586310 0.821730 0.403360 -0.545936
O4    O     O_R   0.413690 0.321730 0.596640 -0.545936
C1    C     C_R   0.610865 0.654437 0.377521 0.702103
C2    C     C_R   0.389138 0.154442 0.622483 0.702098
O5    O     O_R   0.397970 0.823900 0.389580 -0.537109
O6    O     O_R   0.602030 0.323900 0.610420 -0.537109
O7    O     O_R   0.412100 0.996500 0.584560 -0.538326
O8    O     O_R   0.587900 0.496500 0.415440 -0.538323
C3    C     C_R   0.365108 0.655199 0.362997 0.711206
C4    C     C_R   0.634892 0.155200 0.637004 0.711206
O9    O     O_3   0.504860 0.661550 0.563990 -0.374395
O10   O     O_3   0.495140 0.161550 0.436010 -0.374393
V1    V     V_3+5 0.499100 0.935510 0.488130 1.391987
V2    V     V_3+5 0.500900 0.435510 0.511870 1.391995
C5    C     C_1   0.715833 0.144581 0.717086 -0.184768
C6    C     C_1   0.284166 0.644580 0.282916 -0.184778
C7    C     C_1   0.783648 0.134081 0.783580 -0.184714
C8    C     C_1   0.216349 0.634083 0.216423 -0.184697
C9    C     C_3   0.277245 0.274379 0.863311 0.294422
C10   C     C_3   0.722735 0.774313 0.136671 0.294465
C11   C     C_3   0.347994 0.285424 0.786096 0.047752
C12   C     C_3   0.651999 0.785376 0.213897 0.047776
H1    H     H_    0.338031 0.421803 0.748288 0.135383
H2    H     H_    0.661963 0.921766 0.251694 0.135405
H3    H     H_    0.228954 0.339801 0.606467 0.155156
H4    H     H_    0.771031 0.839775 0.393577 0.155161
C13   C     C_3   0.145880 0.198866 0.706350 0.798885
C14   C     C_3   0.854107 0.698987 0.293641 0.798899
C15   C     C_3   0.234463 0.943297 0.806095 -0.418285
C16   C     C_3   0.765575 0.443282 0.193943 -0.418303
C17   C     C_3   0.191887 0.140758 0.816835 -0.049273
C18   C     C_3   0.808115 0.640768 0.183168 -0.049286
H5    H     H_    0.178697 0.847095 0.771877 0.191165
H6    H     H_    0.821360 0.347140 0.228189 0.191140
H7    H     H_    0.259927 0.882133 0.880466 0.164380
H8    H     H_    0.740129 0.382049 0.119583 0.164410
C19   C     C_3   0.322209 0.144561 0.697902 -0.033487
C20   C     C_3   0.677796 0.644546 0.302105 -0.033494
C21   C     C_3   0.224905 0.200245 0.640043 -0.500350
C22   C     C_3   0.775097 0.700253 0.359963 -0.500360
C23   C     C_3   0.311174 0.944948 0.738851 0.036203
C24   C     C_3   0.688851 0.444927 0.261172 0.036182
H9    H     H_    0.285277 0.856038 0.672943 0.148229
H10   H     H_    0.714750 0.356040 0.327087 0.148227
H11   H     H_    0.208418 0.104987 0.575375 0.135247
H12   H     H_    0.791621 0.604943 0.424604 0.135286
O11   O     O_R   0.912140 0.786650 0.084610 -0.538626
O12   O     O_R   0.087860 0.286650 0.915390 -0.538598
O13   O     O_R   0.102040 0.454810 0.110430 -0.531658
O14   O     O_R   0.897960 0.954810 0.889570 -0.531649
C25   C     C_R   0.135296 0.623492 0.136497 0.707664
C26   C     C_R   0.864701 0.123490 0.863506 0.707612
O15   O     O_R   0.913690 0.457060 0.096650 -0.535661
O16   O     O_R   0.086310 0.957060 0.903350 -0.535640
O17   O     O_R   0.898200 0.284560 0.901540 -0.541399
O18   O     O_R   0.101800 0.784560 0.098460 -0.541405
C27   C     C_R   0.882896 0.626373 0.115749 0.714475
C28   C     C_R   0.117109 0.126368 0.884257 0.714462
O19   O     O_3   0.995160 0.617270 0.936040 -0.384743
O20   O     O_3   0.004840 0.117270 0.063960 -0.384807
V3    V     V_3+5 0.000900 0.343280 0.011870 1.384214
V4    V     V_3+5 0.999100 0.843280 0.988130 1.384248
C29   C     C_3   0.249439 0.476990 0.883884 -0.737724
H13   H     H_    0.313377 0.560848 0.906292 0.178336
H14   H     H_    0.210470 0.545594 0.817688 0.230147
H15   H     H_    0.211109 0.490449 0.947293 0.225878
C30   C     C_3   0.750502 0.976924 0.116043 -0.737746
H16   H     H_    0.686547 0.060727 0.093611 0.178341
H17   H     H_    0.789453 0.045632 0.182215 0.230159
H18   H     H_    0.788833 0.990336 0.052632 0.225848
O21   O     O_3   0.076061 0.063852 0.670556 -0.579020
C31   C     C_3   0.035143 0.085127 0.569055 -0.295773
H19   H     H_    0.060033 0.971321 0.526061 0.145187
H20   H     H_    0.050584 0.219181 0.535327 0.155938
H21   H     H_    0.958511 0.071911 0.562394 0.160910
O22   O     O_3   0.923983 0.564100 0.329454 -0.579058
C32   C     C_3   0.964953 0.585598 0.430926 -0.295686
H22   H     H_    0.940275 0.471654 0.473970 0.145307
H23   H     H_    0.949346 0.719539 0.464661 0.155883
H24   H     H_    0.041593 0.572832 0.437510 0.160864
C33   C     C_3   0.323662 0.202182 0.968563 -0.731495
H25   H     H_    0.360290 0.069846 0.966225 0.193528
H26   H     H_    0.375921 0.301652 0.006797 0.207408
H27   H     H_    0.271006 0.183732 0.018109 0.186176
C34   C     C_3   0.676322 0.702014 0.031437 -0.731503
H28   H     H_    0.639721 0.569662 0.033803 0.193537
H29   H     H_    0.624041 0.801426 0.993187 0.207413
H30   H     H_    0.728977 0.683560 0.981889 0.186173
C35   C     C_3   0.452271 0.289938 0.834316 -0.806407
H31   H     H_    0.465456 0.409163 0.886205 0.204295
H32   H     H_    0.475118 0.163494 0.876866 0.222147
H33   H     H_    0.497761 0.309542 0.777478 0.208133
C36   C     C_3   0.547719 0.789862 0.165685 -0.806440
H34   H     H_    0.534525 0.909064 0.113784 0.204297
H35   H     H_    0.524879 0.663396 0.123148 0.222155
H36   H     H_    0.502232 0.809486 0.222526 0.208134
O23   O     O_3   0.108544 0.381993 0.703949 -0.593694
C37   C     C_3   0.013289 0.395638 0.712508 -0.153412
H37   H     H_    0.985305 0.274669 0.747403 0.147977
H38   H     H_    0.970900 0.417571 0.638140 0.105169
H39   H     H_    0.003821 0.519375 0.757557 0.173688
O24   O     O_3   0.891353 0.882180 0.296021 -0.593716
C38   C     C_3   0.986592 0.896023 0.287432 -0.153664
H40   H     H_    0.014664 0.775050 0.252619 0.148040
H41   H     H_    0.028964 0.918256 0.361776 0.105220
H42   H     H_    0.995959 0.019678 0.242295 0.173798
C39   C     C_3   0.402783 0.852860 0.790018 -0.743665
H43   H     H_    0.415878 0.870056 0.871971 0.192094
H44   H     H_    0.399563 0.702678 0.775544 0.197044
H45   H     H_    0.464475 0.905439 0.761032 0.218750
C40   C     C_3   0.597252 0.352799 0.210007 -0.743605
H46   H     H_    0.584169 0.369913 0.128051 0.192082
H47   H     H_    0.600471 0.202634 0.224520 0.197044
H48   H     H_    0.535550 0.405410 0.238966 0.218738

loop_
_geom_bond_atom_site_label_1
_geom_bond_atom_site_label_2
_ccdc_geom_bond_type
C34   H28   S    
C3    C6    S    
O15   C27   A    
C30   H18   S    
O21   C31   S    
C36   H34   S    
O1    C3    A    
O2    C4    A    
C2    O7    A    
C36   H36   S    
C19   C21   S    
O5    C3    A    
C38   H41   S    
C31   H20   S    
C16   H6    S    
C12   H2    S    
C39   H44   S    
C9    C17   S    
C13   C17   S    
C30   H17   S    
C5    C7    T    
C34   H30   S    
C9    C33   S    
O14   C26   A    
C29   H14   S    
C31   H21   S    
O15   V3    S    
C4    C5    S    
O16   V4    S    
C16   H8    S    
C10   C30   S    
C6    C8    T    
C40   H48   S    
C13   C21   S    
O5    V1    S    
O6    V2    S    
O11   V4    S    
O12   V3    S    
O24   C38   S    
C24   H10   S    
O17   V3    S    
O18   V4    S    
C10   C18   S    
C38   H42   S    
C31   H19   S    
C14   C18   S    
O13   V3    S    
O4    C2    A    
O14   V4    S    
C12   C36   S    
C35   H31   S    
C32   H23   S    
C13   O23   S    
O22   C32   S    
C19   C23   S    
C37   H39   S    
C15   H7    S    
O13   C25   A    
C16   C18   S    
O4    V2    S    
O19   V4    S    
O20   V3    S    
C35   H32   S    
H3    C21   S    
C20   C22   S    
C33   H25   S    
O6    C4    A    
C29   H15   S    
C37   H38   S    
C21   H11   S    
O1    V2    S    
C22   H12   S    
C10   C34   S    
O2    V1    S    
C23   H9    S    
C15   C23   S    
C7    C26   S    
C33   H26   S    
C24   C40   S    
C17   C28   S    
C34   H29   S    
C18   C27   S    
C11   C35   S    
C39   H45   S    
O3    V1    S    
C40   H46   S    
C15   C17   S    
C9    C29   S    
O10   V1    S    
C8    C25   S    
O3    C1    A    
C32   H24   S    
C25   O18   A    
C36   H35   S    
C38   H40   S    
O11   C27   A    
O23   C37   S    
O12   C28   A    
C9    C11   S    
O9    V2    S    
C1    O8    A    
O8    V2    S    
C39   H43   S    
C35   H33   S    
C11   C19   S    
C15   H5    S    
H4    C22   S    
C37   H37   S    
C12   C20   S    
C10   C12   S    
C11   H1    S    
O7    V1    S    
C30   H16   S    
C32   H22   S    
C14   O22   S    
O16   C28   A    
C20   C24   S    
C33   H27   S    
C13   O21   S    
C16   C24   S    
C29   H13   S    
C1    C20   S    
C14   O24   S    
C2    C19   S    
C14   C22   S    
C23   C39   S    
C40   H47   S    
C26   O17   A    
