data_mof_unit_17907.cif
_audit_creation_date              2013-03-05T15:43:17-0500
_audit_creation_method            fapswitch 2.2
_symmetry_space_group_name_H-M    P1
_symmetry_Int_Tables_number       1
_space_group_crystal_system       triclinic
_cell_length_a                    8.285724
_cell_length_b                    15.208874
_cell_length_c                    27.03506
_cell_angle_alpha                 97.63039
_cell_angle_beta                  92.176726
_cell_angle_gamma                 80.868037
_cell_volume                      3333.40168528

loop_
_atom_site_label
_atom_site_type_symbol
_atom_site_description
_atom_site_fract_x
_atom_site_fract_y
_atom_site_fract_z
_atom_type_partial_charge
P1    P     P_3+3 0.070480 0.574800 0.610950 0.485193
O1    O     O_2   0.905540 0.548000 0.618290 -0.366190
O2    O     O_3   0.137550 0.547930 0.558110 -0.393081
O3    O     O_3   0.688580 0.383890 0.587540 -0.391829
O4    O     O_2   0.838300 0.431632 0.672828 -0.403430
O5    O     O_3   0.041538 0.691213 0.628187 -0.556272
O6    O     O_3   0.675658 0.300116 0.675384 -0.513522
H1    H     H_    0.806807 0.228828 0.614951 0.164160
C1    C     C_3   0.696496 0.141111 0.654587 -0.955851
H2    H     H_    0.709457 0.086138 0.622856 0.230756
H3    H     H_    0.802097 0.129490 0.680737 0.274376
P2    P     P_3+3 0.668430 0.292880 0.460530 0.477178
P3    P     P_3+3 0.149581 0.221490 0.561932 0.432175
O7    O     O_2   0.848360 0.279400 0.474970 -0.365554
O8    O     O_3   0.104690 0.337720 0.562900 -0.399678
O9    O     O_2   0.015789 0.178862 0.530233 -0.382837
O10   O     O_3   0.667117 0.262777 0.395857 -0.566523
O11   O     O_3   0.127786 0.194689 0.621991 -0.526416
C2    C     C_3   0.191109 0.258581 0.656463 0.391251
H4    H     H_    0.121766 0.326810 0.654472 0.140103
H5    H     H_    0.322696 0.258419 0.649762 0.057879
C3    C     C_3   0.173510 0.235781 0.708809 -0.886873
H6    H     H_    0.043097 0.233721 0.715968 0.268365
H7    H     H_    0.247140 0.169457 0.713132 0.254632
C4    C     C_3   0.224922 0.268776 0.415910 0.420620
H8    H     H_    0.343218 0.291758 0.425883 0.092845
H9    H     H_    0.142270 0.285427 0.448312 0.127857
C5    C     C_3   0.253381 0.167390 0.401573 -0.955591
H10   H     H_    0.339960 0.148819 0.370166 0.269647
H11   H     H_    0.305235 0.133193 0.433531 0.224244
H12   H     H_    0.135728 0.143809 0.390052 0.266244
Ba1   Ba    Ba6+2 0.860900 0.457020 0.523210 1.563349
C6    C     C_3   0.969452 0.735039 0.589026 0.412688
H13   H     H_    0.845220 0.718013 0.582029 0.093206
H14   H     H_    0.044684 0.716500 0.554991 0.122448
C7    C     C_3   0.957000 0.835834 0.604492 -0.953600
H15   H     H_    0.881849 0.856302 0.638454 0.270914
H16   H     H_    0.899147 0.873227 0.574291 0.223511
H17   H     H_    0.081020 0.853825 0.612501 0.266152
C8    C     C_3   0.719831 0.328854 0.372236 0.423280
H18   H     H_    0.831486 0.349975 0.390594 0.111436
H19   H     H_    0.620552 0.387214 0.372784 0.098091
C9    C     C_3   0.759354 0.289357 0.318506 -0.960517
H20   H     H_    0.850658 0.227289 0.317951 0.279953
H21   H     H_    0.811455 0.337359 0.298809 0.224358
H22   H     H_    0.646605 0.272754 0.298335 0.262556
P4    P     P_3+3 0.119230 0.425130 0.389040 0.511410
O12   O     O_2   0.284150 0.451970 0.381680 -0.361933
O13   O     O_3   0.052160 0.451990 0.441880 -0.354659
O14   O     O_3   0.501140 0.616030 0.412450 -0.337156
O15   O     O_3   0.155361 0.308137 0.374725 -0.558013
P5    P     P_3+3 0.046216 0.780402 0.439443 0.454655
O16   O     O_3   0.615020 0.608480 0.525380 -0.353195
O17   O     O_3   0.085020 0.662210 0.437090 -0.350390
O18   O     O_2   0.189967 0.819664 0.467556 -0.390063
O19   O     O_3   0.058647 0.807800 0.379035 -0.530613
Ba2   Ba    Ba6+2 0.328940 0.542910 0.476780 1.585192
P6    P     P_3+3 0.674863 0.402970 0.652604 0.466520
C10   C     C_3   0.691796 0.230826 0.635180 0.464189
H23   H     H_    0.585541 0.240104 0.609223 0.041662
H24   H     H_    0.581598 0.140433 0.674325 0.261273
O20   O     O_3   0.574690 0.391440 0.474610 -0.386539
C11   C     C_3   0.473068 0.681373 0.629274 0.409144
H25   H     H_    0.364378 0.657494 0.610109 0.112713
H26   H     H_    0.575848 0.624714 0.628803 0.091310
C12   C     C_3   0.428364 0.717559 0.683051 -0.933615
H27   H     H_    0.332374 0.777677 0.683906 0.278073
H28   H     H_    0.380143 0.666433 0.701378 0.223285
H29   H     H_    0.537902 0.736398 0.704240 0.258329
P7    P     P_3+3 0.524866 0.721423 0.542125 0.452764
O21   O     O_2   0.341330 0.720570 0.525000 -0.360209
O22   O     O_3   0.521346 0.750583 0.606870 -0.571620
H30   H     H_    0.216815 0.287839 0.736480 0.255316
C13   C     C_3   0.993530 0.743604 0.345276 0.398444
H31   H     H_    0.065355 0.675724 0.346371 0.147227
H32   H     H_    0.863556 0.742576 0.353488 0.069213
C14   C     C_3   0.003175 0.767391 0.292789 -0.900439
H33   H     H_    0.131899 0.770773 0.284141 0.270420
H34   H     H_    0.958505 0.715130 0.265622 0.261147
H35   H     H_    0.926687 0.833291 0.289360 0.255829
P8    P     P_3+3 0.508845 0.598559 0.346696 0.506018
C15   C     C_3   0.497219 0.770255 0.366571 0.465500
H36   H     H_    0.604593 0.758274 0.392040 0.062683
O23   O     O_2   0.344331 0.570277 0.327197 -0.404485
O24   O     O_3   0.506758 0.702816 0.325373 -0.513703
H37   H     H_    0.382982 0.773088 0.387261 0.163546
H38   H     H_    0.609317 0.860430 0.327835 0.262456
C16   C     C_3   0.495848 0.860846 0.348511 -0.970515
H39   H     H_    0.489013 0.914273 0.380993 0.232190
H40   H     H_    0.388139 0.875712 0.323551 0.277830
C17   C     C_R   0.039302 0.429368 0.178147 0.533366
O25   O     O_2   0.092057 0.364752 0.199714 -0.589757
N1    N     N_R   0.936977 0.501596 0.202942 -0.160175
C18   C     C_R   0.873610 0.573387 0.177478 0.513029
C19   C     C_2   0.734898 0.519655 0.269538 -0.188650
C20   C     C_3   0.690326 0.514686 0.322986 0.086636
C21   C     C_1   0.983795 0.480173 0.341983 0.212768
C22   C     C_2   0.023853 0.479055 0.294518 -0.253467
C23   C     C_2   0.893923 0.501228 0.255162 0.116280
C24   C     C_R   0.016656 0.501007 0.101542 -0.063549
C25   C     C_R   0.081155 0.428604 0.127605 -0.061648
C26   C     C_R   0.185344 0.356276 0.102475 -0.086111
C27   C     C_R   0.912001 0.573719 0.126824 -0.052433
C28   C     C_2   0.838155 0.520020 0.357318 -0.041302
H41   H     H_    0.151155 0.463214 0.284025 0.202431
H42   H     H_    0.237092 0.299407 0.121321 0.167759
C29   C     C_2   0.350035 0.477803 0.640481 -0.477883
C30   C     C_R   0.202925 0.426521 0.974065 0.041458
C31   C     C_R   0.026786 0.573134 0.972937 0.042298
C32   C     C_R   0.134267 0.499585 0.948108 0.083994
C33   C     C_R   0.310138 0.355487 0.947562 -0.202923
C34   C     C_R   0.347637 0.355939 0.897772 -0.083071
C35   C     C_R   0.280652 0.427168 0.871678 -0.052046
C36   C     C_R   0.173725 0.499143 0.896731 -0.063311
C37   C     C_R   0.106728 0.570804 0.870425 -0.059003
C38   C     C_R   0.148028 0.569967 0.819845 0.529784
N2    N     N_R   0.252717 0.498539 0.795325 -0.163010
C39   C     C_R   0.318899 0.427560 0.821004 0.509893
C40   C     C_2   0.453376 0.483970 0.728657 -0.153034
C41   C     C_3   0.496097 0.487718 0.674787 0.161498
C42   C     C_1   0.204608 0.516746 0.656300 0.294682
C43   C     C_2   0.164038 0.516849 0.703577 -0.215855
C44   C     C_2   0.294703 0.498767 0.743046 0.107665
O26   O     O_2   0.410648 0.364110 0.799712 -0.589588
C45   C     C_R   0.162807 0.426718 0.025248 0.042072
C46   C     C_R   0.056231 0.500565 0.050174 0.084470
C47   C     C_R   0.988542 0.573933 0.024320 0.041430
C48   C     C_R   0.225389 0.355235 0.052734 -0.201599
H43   H     H_    0.551631 0.474983 0.756122 0.164791
H44   H     H_    0.430568 0.299537 0.879676 0.168827
H45   H     H_    0.368661 0.297860 0.964131 0.126874
H46   H     H_    0.305877 0.296451 0.036971 0.126654
O27   O     O_2   0.784035 0.637594 0.198922 -0.593512
C49   C     C_R   0.847508 0.645733 0.100994 -0.082083
H47   H     H_    0.637255 0.531532 0.242174 0.176935
H48   H     H_    0.766960 0.702924 0.119341 0.169125
C50   C     C_R   0.961006 0.643609 0.945113 -0.201796
C51   C     C_R   0.000264 0.642368 0.895299 -0.087086
O28   O     O_2   0.092543 0.633787 0.797968 -0.590360
C52   C     C_R   0.884479 0.645993 0.051158 -0.203278
H49   H     H_    0.877609 0.701442 0.960548 0.126661
H50   H     H_    0.946015 0.698453 0.876189 0.167576
H51   H     H_    0.036764 0.531328 0.714091 0.192945
H52   H     H_    0.828956 0.704586 0.034927 0.126940
H53   H     H_    0.364958 0.442166 0.602968 0.168650
C53   C     C_R   0.768525 0.773626 0.491121 -0.464619
C54   C     C_R   0.850479 0.830587 0.469468 0.259754
C55   C     C_R   0.783769 0.921970 0.471840 -0.282094
C56   C     C_R   0.631707 0.956008 0.495890 0.083091
C57   C     C_R   0.547775 0.892512 0.514278 -0.251497
C58   C     C_R   0.616373 0.802098 0.511531 0.283770
C59   C     C_R   0.414699 0.088658 0.528810 -0.274383
C60   C     C_R   0.351854 0.180177 0.535422 0.250345
C61   C     C_R   0.581187 0.212405 0.492704 0.329252
C62   C     C_R   0.644228 0.120298 0.484971 -0.251932
C63   C     C_R   0.563616 0.055761 0.503395 0.070927
C64   C     C_R   0.437705 0.241770 0.518862 -0.532876
H54   H     H_    0.341772 0.045490 0.543025 0.152150
H55   H     H_    0.854098 0.964398 0.455729 0.152796
H56   H     H_    0.753573 0.101048 0.463346 0.151135
H57   H     H_    0.431876 0.910815 0.532393 0.150077
H58   H     H_    0.387341 0.312420 0.523545 0.168033
H59   H     H_    0.829112 0.707413 0.495426 0.180228
Br1   Br    Br    0.816285 0.583192 0.422196 -0.458014

loop_
_geom_bond_atom_site_label_1
_geom_bond_atom_site_label_2
_geom_bond_distance
_ccdc_geom_bond_type
C12   H28   1.107119 S    
H38   C16   1.110631 S    
C11   H26   1.110374 S    
N1    C18   1.389944 Am   
Ba1   O16   2.818483 S    
C19   C20   1.519349 S    
C18   O27   1.221820 D    
C36   C37   1.409104 A    
O12   Ba2   2.794101 S    
P4    O13   1.532866 S    
C14   H33   1.111050 S    
C4    C5    1.521932 S    
C46   C47   1.423700 A    
C22   H41   1.083979 S    
C13   H32   1.110739 S    
O4    P6    1.546163 D    
C1    H24   1.111011 S    
C43   H51   1.083427 S    
C31   C50   1.417495 A    
C5    H10   1.110685 S    
C2    H5    1.111578 S    
C56   C63   1.521978 S    
O11   C2    1.404377 S    
C26   C48   1.394730 A    
H1    C10   1.110901 S    
C49   C52   1.393675 A    
C29   H53   1.086199 S    
C19   C23   1.363282 D    
C12   H29   1.110613 S    
P4    Ba2   3.376558 S    
C37   C38   1.420086 A    
C6    C7    1.522624 S    
O13   Ba2   2.925306 S    
C38   N2    1.387561 Am   
O1    Ba1   2.793665 S    
P1    O1    1.513979 D    
C50   H49   1.075540 S    
C54   C55   1.405873 A    
C40   H43   1.085606 S    
C31   C47   1.434566 A    
C8    C9    1.523194 S    
C59   C63   1.421988 A    
C13   C14   1.518190 S    
P2    O10   1.747654 S    
C45   C48   1.417524 A    
P7    O21   1.574272 D    
C30   C45   1.434848 A    
C1    H2    1.111057 S    
N1    C23   1.470161 S    
O6    P6    1.754605 S    
P5    O18   1.545756 D    
C1    H3    1.110749 S    
C38   O28   1.222066 D    
C8    H19   1.109221 S    
C12   H27   1.110886 S    
C11   C12   1.522342 S    
C10   H23   1.107878 S    
P2    Ba1   3.403187 S    
Ba1   Ba2   4.553516 S    
C17   C25   1.420563 A    
O16   P7    1.767895 S    
C48   H46   1.075560 S    
O6    C10   1.404257 S    
C34   C35   1.400588 A    
P5    O17   1.768167 S    
C21   C22   1.334880 D    
C14   H34   1.107178 S    
C59   H54   1.074438 S    
C11   O22   1.398660 S    
O19   C13   1.403765 S    
C13   H31   1.110239 S    
C53   C54   1.380519 A    
P1    O5    1.750430 S    
C25   C26   1.400540 A    
Ba2   O20   2.817949 S    
C2    C3    1.518636 S    
C55   C56   1.429690 A    
C61   C64   1.387226 A    
C51   H50   1.083630 S    
O7    Ba1   2.855241 S    
C17   O25   1.221989 D    
P8    C20   1.883192 S    
O16   Ba2   2.916389 S    
P4    O15   1.749932 S    
C4    H8    1.104199 S    
C15   H37   1.109748 S    
C7    H17   1.111000 S    
C24   C27   1.407821 A    
C53   C58   1.377471 A    
P1    O2    1.532879 S    
C55   H55   1.076541 S    
C9    H20   1.110899 S    
C4    O15   1.396075 S    
C17   N1    1.388119 Am   
P2    O20   1.580032 S    
P4    O12   1.514192 D    
C37   C51   1.400341 A    
P2    O7    1.515616 D    
C19   H47   1.085407 S    
C6    H13   1.104177 S    
C42   C43   1.333646 D    
C39   O26   1.222028 D    
Ba2   O21   2.855397 S    
C9    H21   1.106171 S    
P3    C60   1.831598 S    
C61   C62   1.406109 A    
O3    Ba1   2.739844 S    
P3    O11   1.748297 S    
C33   H45   1.075535 S    
C8    H18   1.105666 S    
C16   H40   1.110693 S    
C18   C27   1.418449 A    
C22   C23   1.515849 S    
P5    C54   1.847799 S    
C20   C28   1.514458 S    
C45   C46   1.422927 A    
C24   C46   1.437913 A    
P6    C41   1.863101 S    
C29   C42   1.315678 D    
O2    Ba2   2.745363 S    
C29   C41   1.511003 S    
P8    O23   1.546716 D    
C35   C36   1.408130 A    
C50   C51   1.394404 A    
C14   H35   1.110579 S    
C57   H57   1.074334 S    
C32   C36   1.437892 A    
C7    H15   1.110688 S    
C33   C34   1.394055 A    
C62   H56   1.076532 S    
C57   C58   1.395510 A    
O14   Ba2   2.739150 S    
C27   C49   1.400621 A    
C5    H12   1.110942 S    
P7    C58   1.837629 S    
C52   H52   1.075510 S    
P2    C61   1.840787 S    
C11   H25   1.108946 S    
O8    Ba1   2.777195 S    
C28   Br1   1.885112 S    
C49   H48   1.083662 S    
C40   C41   1.522217 S    
O5    C6    1.391020 S    
C40   C44   1.360939 D    
C4    H9    1.110010 S    
C15   O24   1.405815 S    
C53   H59   1.070472 S    
P4    C21   1.858695 S    
C30   C33   1.416976 A    
C2    H4    1.110437 S    
P3    O8    1.744607 S    
N2    C44   1.468890 S    
Ba1   O20   2.917367 S    
C5    H11   1.105324 S    
N2    C39   1.389340 Am   
C15   C16   1.519898 S    
C7    H16   1.107659 S    
C24   C25   1.408994 A    
C6    H14   1.110662 S    
C30   C32   1.423724 A    
C26   H42   1.083603 S    
C3    H7    1.110811 S    
P1    Ba1   3.375942 S    
C60   C64   1.389612 A    
O2    Ba1   2.924311 S    
C9    H22   1.110623 S    
P1    C42   1.841283 S    
Ba1   O13   2.744687 S    
C21   C28   1.317014 D    
C35   C39   1.418794 A    
C31   C32   1.422935 A    
C16   H39   1.110992 S    
C15   H36   1.110921 S    
C47   C52   1.416829 A    
P3    O9    1.546637 D    
O3    P6    1.749406 S    
C62   C63   1.421565 A    
C3    H6    1.110993 S    
P7    O22   1.747851 S    
C59   C60   1.396930 A    
C3    H30   1.108028 S    
C34   H44   1.083679 S    
C43   C44   1.510630 S    
C56   C57   1.424866 A    
C1    C10   1.519961 S    
C64   H58   1.081808 S    
O10   C8    1.392654 S    
P8    O24   1.755016 S    
P5    O19   1.748833 S    
O14   P8    1.764243 S    
O17   Ba2   2.777851 S    
