data_mof_unit_66530.cif
_audit_creation_date              2012-12-10T16:48:05-0500
_audit_creation_method            fapswitch 2.2
_symmetry_space_group_name_H-M    P1
_symmetry_Int_Tables_number       1
_space_group_crystal_system       triclinic
_cell_length_a                    15.802047
_cell_length_b                    8.909266
_cell_length_c                    7.637369
_cell_angle_alpha                 104.46834
_cell_angle_beta                  93.998619
_cell_angle_gamma                 94.325625
_cell_volume                      1033.78091302

loop_
_atom_site_label
_atom_site_type_symbol
_atom_type_description
_atom_site_fract_x
_atom_site_fract_y
_atom_site_fract_z
_atom_type_partial_charge
C1    C     C_R   0.493875 0.200341 0.453883 0.836472
C2    C     C_R   0.503748 0.799618 0.546626 0.802561
C3    C     C_R   0.340469 0.499956 0.501871 0.803068
C4    C     C_R   0.659617 0.501685 0.498086 0.803220
C5    C     C_2   0.477776 0.032722 0.437693 -0.093119
C6    C     C_2   0.516737 0.967750 0.565922 -0.122832
C7    C     C_3   0.968733 0.402198 0.579918 0.156825
C8    C     C_3   0.031840 0.607914 0.415797 0.160060
C9    C     C_3   0.019855 0.362273 0.412324 -0.205938
C10   C     C_3   0.980509 0.647707 0.583255 -0.208451
C11   C     C_1   0.250910 0.501540 0.505865 -0.185625
C12   C     C_1   0.749343 0.504071 0.492917 -0.189999
C13   C     C_3   0.033281 0.542625 0.673025 -0.204465
C14   C     C_3   0.967090 0.467543 0.322502 -0.203207
C15   C     C_3   0.083466 0.503927 0.504400 0.137992
C16   C     C_3   0.916983 0.506166 0.491349 0.134048
C17   C     C_1   0.175294 0.502679 0.506772 -0.085784
C18   C     C_1   0.825027 0.505768 0.490127 -0.085799
Cu1   Cu    Cu3+1 0.509330 0.517380 0.684380 0.908179
Cu2   Cu    Cu3+1 0.490670 0.482620 0.315620 0.893049
H1    H     H_    0.038645 0.247157 0.344518 0.138920
H2    H     H_    0.961446 0.762967 0.650000 0.140904
H3    H     H_    0.939290 0.438282 0.179121 0.131843
H4    H     H_    0.059840 0.572309 0.817051 0.134977
N1    N     N_2   0.476600 0.456420 0.038510 -0.136159
N2    N     N_2   0.523400 0.543580 0.961490 -0.107173
O1    O     O_R   0.506070 0.286130 0.619780 -0.594104
O2    O     O_R   0.493930 0.713870 0.380220 -0.618831
O3    O     O_R   0.490300 0.256770 0.308360 -0.594109
O4    O     O_R   0.509700 0.743230 0.691640 -0.604851
O5    O     O_R   0.386960 0.514660 0.655680 -0.597831
O6    O     O_R   0.613040 0.485340 0.344320 -0.611875
O7    O     O_R   0.371190 0.485310 0.344260 -0.600344
O8    O     O_R   0.628810 0.514690 0.655740 -0.581911
C19   C     C_3   0.929366 0.288305 0.675501 -0.414460
C20   C     C_3   0.995076 0.186836 0.726937 -0.347643
C21   C     C_3   0.953249 0.072660 0.819442 -0.894030
H5    H     H_    0.930034 0.136288 0.948772 0.256752
H6    H     H_    0.898637 0.000774 0.730395 0.255635
H7    H     H_    0.001340 0.995839 0.846816 0.248698
H8    H     H_    0.022241 0.120922 0.603612 0.223879
H9    H     H_    0.047744 0.260498 0.820922 0.225534
H10   H     H_    0.904462 0.356299 0.800480 0.192252
H11   H     H_    0.876136 0.214260 0.583797 0.206959
C22   C     C_3   0.071013 0.725247 0.324441 -0.417166
C23   C     C_3   0.002297 0.815704 0.260810 -0.341933
C24   C     C_3   0.042144 0.937029 0.176223 -0.910523
H12   H     H_    0.094142 0.011514 0.270766 0.258278
H13   H     H_    0.068377 0.879147 0.048032 0.261885
H14   H     H_    0.992191 0.010540 0.148745 0.252386
H15   H     H_    0.955012 0.735317 0.158837 0.219991
H16   H     H_    0.968463 0.875012 0.377680 0.224219
H17   H     H_    0.119193 0.806164 0.423519 0.197802
H18   H     H_    0.103197 0.662542 0.206878 0.195905
C25   C     C_3   0.406383 0.939923 0.295775 -0.412549
C26   C     C_3   0.341112 0.037295 0.227502 -0.348002
C27   C     C_3   0.263704 0.935945 0.118136 -0.914343
H19   H     H_    0.282832 0.858823 0.992360 0.257401
H20   H     H_    0.232403 0.864601 0.199839 0.266141
H21   H     H_    0.217482 0.011894 0.078048 0.252293
H22   H     H_    0.319170 0.122451 0.344359 0.210495
H23   H     H_    0.370596 0.099710 0.135491 0.238046
H24   H     H_    0.435367 0.870487 0.177088 0.217048
H25   H     H_    0.369155 0.859633 0.358643 0.208847
C28   C     C_3   0.580096 0.057164 0.725735 -0.384456
C29   C     C_3   0.663642 0.120734 0.667227 -0.312420
C30   C     C_3   0.720210 0.221012 0.831602 -0.822639
H26   H     H_    0.681824 0.285562 0.936403 0.257087
H27   H     H_    0.760252 0.147155 0.893335 0.239276
H28   H     H_    0.761724 0.308075 0.788342 0.236266
H29   H     H_    0.698509 0.022086 0.598456 0.188736
H30   H     H_    0.651689 0.191349 0.569334 0.223354
H31   H     H_    0.549185 0.148100 0.819881 0.230373
H32   H     H_    0.599121 0.980956 0.811868 0.195163
C31   C     C_3   0.389832 0.404032 0.961418 -0.013732
C32   C     C_3   0.330369 0.538061 0.996894 -0.279379
C33   C     C_3   0.236783 0.474049 0.959028 -0.938049
H33   H     H_    0.224562 0.393175 0.821620 0.260588
H34   H     H_    0.218894 0.410677 0.061178 0.261410
H35   H     H_    0.196559 0.571852 0.967579 0.244042
H36   H     H_    0.340375 0.612636 0.136118 0.234392
H37   H     H_    0.343574 0.625278 0.920569 0.221343
H38   H     H_    0.387186 0.335956 0.818844 0.158649
H39   H     H_    0.365607 0.316283 0.030300 0.139260
C34   C     C_3   0.603714 0.623131 0.057805 -0.055525
C35   C     C_3   0.628879 0.776300 0.010095 -0.385999
C36   C     C_3   0.705929 0.867376 0.133638 -0.956157
H40   H     H_    0.691049 0.897310 0.277412 0.251114
H41   H     H_    0.761655 0.797674 0.120021 0.262951
H42   H     H_    0.722760 0.977271 0.095116 0.261548
H43   H     H_    0.646696 0.755680 0.869699 0.260524
H44   H     H_    0.574446 0.849068 0.027929 0.221724
H45   H     H_    0.597918 0.663755 0.201140 0.226385
H46   H     H_    0.655366 0.544988 0.032167 0.154661

loop_
_geom_bond_atom_site_label_1
_geom_bond_atom_site_label_2
_ccdc_geom_bond_type
C36   H40   S    
C20   H9    S    
Cu1   Cu2   S    
C9    C14   S    
Cu1   O5    S    
C24   H13   S    
C33   H33   S    
C10   H2    S    
C1    C5    S    
C20   C21   S    
C21   H7    S    
C35   H43   S    
C5    C6    D    
C31   H39   S    
C27   H20   S    
Cu2   N1    S    
C3    O7    A    
C23   H16   S    
C28   H31   S    
C26   C27   S    
C7    C9    S    
Cu1   N2    S    
C8    C22   S    
C34   H45   S    
C31   H38   S    
C6    C28   S    
C29   H30   S    
C19   C20   S    
C25   H24   S    
C4    C12   S    
Cu1   O1    S    
C29   C30   S    
C22   H17   S    
C20   H8    S    
C2    C6    S    
C24   H14   S    
Cu2   O3    S    
C33   H34   S    
C4    O8    A    
C30   H26   S    
C24   H12   S    
C32   C33   S    
C32   H37   S    
C35   C36   S    
C27   H21   S    
Cu2   O2    S    
N1    N2    D    
C34   C35   S    
C23   H15   S    
C10   C13   S    
C28   H32   S    
C13   H4    S    
N1    C31   S    
C14   H3    S    
C31   C32   S    
C21   H5    S    
C34   H46   S    
C29   H29   S    
C25   H25   S    
C25   C26   S    
C1    O3    A    
C3    O5    A    
C19   H11   S    
C4    O6    A    
Cu2   O7    S    
C8    C10   S    
C7    C16   S    
C22   H18   S    
C8    C15   S    
C13   C15   S    
C14   C16   S    
C35   H44   S    
C19   H10   S    
Cu2   O6    S    
C33   H35   S    
C15   C17   S    
C23   C24   S    
C11   C17   T    
C8    C14   S    
C7    C19   S    
C5    C25   S    
Cu1   O8    S    
C32   H36   S    
C2    O4    A    
C30   H28   S    
C36   H41   S    
C9    C15   S    
C21   H6    S    
C10   C16   S    
C9    H1    S    
C27   H19   S    
N2    C34   S    
C26   H23   S    
C3    C11   S    
C22   C23   S    
C7    C13   S    
C16   C18   S    
C28   C29   S    
C36   H42   S    
C12   C18   T    
C1    O1    A    
C26   H22   S    
C2    O2    A    
C30   H27   S    
Cu1   O4    S    
