data_mof_unit_34366.cif
_audit_creation_date              2012-12-11T14:15:27-0500
_audit_creation_method            fapswitch 2.2
_symmetry_space_group_name_H-M    P1
_symmetry_Int_Tables_number       1
_space_group_crystal_system       triclinic
_cell_length_a                    11.158061
_cell_length_b                    12.705993
_cell_length_c                    23.560592
_cell_angle_alpha                 90.432772
_cell_angle_beta                  96.722776
_cell_angle_gamma                 68.5687
_cell_volume                      3085.70456976

loop_
_atom_site_label
_atom_site_type_symbol
_atom_type_description
_atom_site_fract_x
_atom_site_fract_y
_atom_site_fract_z
_atom_type_partial_charge
C1    C     C_R   0.149416 0.616760 0.428822 0.546430
C2    C     C_R   0.660351 0.558499 0.311034 -0.128847
C3    C     C_R   0.714067 0.727875 0.317885 -0.126868
C4    C     C_R   0.704228 0.736004 0.258396 0.040389
C5    C     C_R   0.681278 0.649792 0.226146 0.041351
C6    C     C_R   0.676080 0.653980 0.167509 -0.117782
C7    C     C_R   0.695217 0.838015 0.170508 -0.132215
C8    C     C_R   0.716959 0.827749 0.230270 -0.139004
C9    C     C_1   0.235753 0.162168 0.123003 -0.000527
C10   C     C_2   0.181177 0.232875 0.226479 -0.120584
C11   C     C_2   0.155615 0.165449 0.262987 -0.121033
C12   C     C_R   0.749696 0.604137 0.403953 0.544182
C13   C     C_1   0.132626 0.199445 0.320640 -0.045026
C14   C     C_1   0.210459 0.197028 0.169687 -0.046038
C15   C     C_1   0.116187 0.232579 0.368356 -0.000485
C16   C     C_1   0.167894 0.749871 0.123810 -0.003634
C17   C     C_2   0.142859 0.689042 0.228044 -0.124677
C18   C     C_2   0.236586 0.676675 0.271631 -0.126400
C19   C     C_1   0.217707 0.652902 0.329194 -0.047652
C20   C     C_1   0.155711 0.720840 0.170878 -0.046981
C21   C     C_1   0.193716 0.635147 0.376120 -0.002612
C22   C     C_1   0.612862 0.765975 0.862128 -0.037570
C23   C     C_R   0.101137 0.282546 0.423301 0.544877
C24   C     C_2   0.643078 0.760863 0.751933 0.276435
C25   C     C_2   0.638114 0.670023 0.723981 -0.068817
C26   C     C_1   0.663954 0.653821 0.665473 0.002150
C27   C     C_1   0.631070 0.762385 0.812703 -0.081213
C28   C     C_1   0.695581 0.634395 0.618246 0.004461
C29   C     C_R   0.195642 0.177289 0.853862 0.029247
C30   C     C_R   0.106043 0.237562 0.642141 0.029137
C31   C     C_R   0.066180 0.118325 0.710611 -0.121969
C32   C     C_R   0.059973 0.152547 0.653965 -0.132735
C33   C     C_R   0.150598 0.293266 0.686120 -0.114898
C34   C     C_R   0.147132 0.615175 0.591738 0.542153
C35   C     C_R   0.157099 0.260155 0.742346 -0.004513
C36   C     C_R   0.116855 0.170602 0.754804 0.026739
C37   C     C_R   0.133562 0.131661 0.810941 -0.179985
C38   C     C_R   0.231737 0.269098 0.842152 0.257118
C39   C     C_R   0.207459 0.312967 0.785990 -0.129594
C40   C     C_R   0.127680 0.743430 0.853788 0.016280
C41   C     C_R   0.178625 0.631275 0.651855 0.011617
C42   C     C_R   0.310023 0.569436 0.743035 -0.152312
C43   C     C_R   0.294351 0.561745 0.683758 -0.145876
C44   C     C_R   0.078725 0.707058 0.679333 -0.117681
C45   C     C_R   0.749301 0.602247 0.565716 0.541314
C46   C     C_R   0.091848 0.712839 0.737841 0.037704
C47   C     C_R   0.208664 0.644573 0.770210 0.041963
C48   C     C_R   0.224262 0.657825 0.828685 -0.113321
C49   C     C_R   0.007848 0.803721 0.822120 -0.134364
C50   C     C_R   0.990055 0.788219 0.764098 -0.139721
C51   C     C_R   0.265825 0.109881 0.069469 0.551701
C52   C     C_R   0.600694 0.774475 0.081089 0.545635
C53   C     C_R   0.189722 0.787781 0.069850 0.547366
C54   C     C_R   0.240731 0.114998 0.907934 0.580760
C55   C     C_R   0.573081 0.777141 0.918050 0.549651
C56   C     C_R   0.099980 0.278938 0.584913 0.537038
C57   C     C_R   0.163922 0.785877 0.907688 0.544253
C58   C     C_R   0.669225 0.752715 0.139113 0.006730
C59   C     C_R   0.697667 0.636061 0.344349 0.008523
C60   C     C_R   0.655893 0.563479 0.252352 -0.143517
Cr1   Cr    Cr6+3 0.189770 0.415650 0.511620 1.026567
Cr2   Cr    Cr6+3 0.930400 0.667320 0.496770 1.024768
Cr3   Cr    Cr6+3 0.879870 0.417010 0.491650 1.027040
Cr4   Cr    Cr6+3 0.149500 0.973980 0.985330 1.023544
Cr5   Cr    Cr6+3 0.457000 0.976510 0.994660 1.023458
Cr6   Cr    Cr6+3 0.411170 0.724270 0.995270 1.013139
H1    H     H_    0.660096 0.585608 0.143940 0.133875
H2    H     H_    0.053249 0.678958 0.235449 0.142315
H3    H     H_    0.623004 0.602109 0.746259 0.074594
H4    H     H_    0.107946 0.059679 0.820549 0.131160
H5    H     H_    0.033995 0.050130 0.719814 0.109065
H6    H     H_    0.231470 0.385391 0.776054 0.114814
H7    H     H_    0.021814 0.112013 0.619658 0.112224
H8    H     H_    0.181298 0.362282 0.676366 0.126537
H9    H     H_    0.316545 0.609472 0.853254 0.126562
H10   H     H_    0.691010 0.914813 0.149293 0.134355
H11   H     H_    0.932002 0.868827 0.841167 0.127347
H12   H     H_    0.400547 0.516984 0.767472 0.093042
H13   H     H_    0.900128 0.839966 0.739193 0.151841
H14   H     H_    0.370986 0.501131 0.663055 0.124455
H15   H     H_    0.987220 0.759609 0.655473 0.144546
H16   H     H_    0.633389 0.499416 0.227519 0.110553
H17   H     H_    0.735023 0.894559 0.254338 0.113063
H18   H     H_    0.645003 0.488105 0.330384 0.143732
H19   H     H_    0.740749 0.789176 0.343337 0.125366
H20   H     H_    0.154719 0.083403 0.250153 0.138174
H21   H     H_    0.182885 0.314584 0.239505 0.138654
H22   H     H_    0.325837 0.687756 0.264578 0.141890
O1    O     O_R   0.196340 0.303200 0.448500 -0.505525
O2    O     O_R   0.811960 0.658090 0.547150 -0.493048
O3    O     O_R   0.757930 0.506140 0.547110 -0.509961
O4    O     O_R   0.988670 0.321620 0.556040 -0.497145
O5    O     O_3   0.000020 0.499990 0.500010 -0.249763
O6    O     O_R   0.113660 0.883270 0.047820 -0.507825
O7    O     O_R   0.186930 0.068530 0.043990 -0.494153
O8    O     O_R   0.377770 0.089040 0.054220 -0.509497
O9    O     O_R   0.562800 0.872960 0.056970 -0.500074
O10   O     O_R   0.555390 0.700940 0.062700 -0.522360
O11   O     O_R   0.295020 0.731920 0.049950 -0.494384
O12   O     O_R   0.199310 0.519670 0.454880 -0.491994
O13   O     O_R   0.094290 0.884230 0.921550 -0.523315
O14   O     O_R   0.168980 0.069410 0.926940 -0.512826
O15   O     O_R   0.358400 0.089990 0.927950 -0.496461
O16   O     O_R   0.544850 0.873850 0.939920 -0.500564
O17   O     O_R   0.536020 0.701900 0.936430 -0.512862
O18   O     O_R   0.277070 0.732810 0.932890 -0.508594
O19   O     O_3   0.339220 0.891590 0.991750 -0.248571
O20   O     O_R   0.045660 0.691380 0.441680 -0.509242
O21   O     O_R   0.811930 0.659460 0.430950 -0.503957
O22   O     O_R   0.757900 0.507620 0.421760 -0.518204
O23   O     O_R   0.988630 0.322990 0.439840 -0.495937
O24   O     O_R   0.196380 0.301720 0.573850 -0.520017
O25   O     O_R   0.199350 0.518300 0.571080 -0.503930
O26   O     O_R   0.045700 0.689900 0.567030 -0.522441
O27   O     O_3   0.659916 0.847993 0.721958 -0.557753
C61   C     C_3   0.620195 0.951001 0.750664 -0.012703
H23   H     H_    0.687604 0.944911 0.790322 0.127164
H24   H     H_    0.519263 0.973988 0.761414 0.143768
C62   C     C_3   0.622406 0.045285 0.711896 -0.373124
H25   H     H_    0.555263 0.053953 0.671990 0.172840
H26   H     H_    0.591067 0.126563 0.734118 0.091951
H27   H     H_    0.722048 0.026310 0.700819 0.145290
O28   O     O_3   0.282356 0.318561 0.886682 -0.545319
C63   C     C_3   0.406155 0.315832 0.877146 -0.001958
H28   H     H_    0.397572 0.379695 0.843440 0.111071
H29   H     H_    0.469054 0.230263 0.864787 0.130359
C64   C     C_3   0.471958 0.344858 0.931972 -0.352581
H30   H     H_    0.483092 0.282286 0.966781 0.168972
H31   H     H_    0.569386 0.343206 0.925077 0.090874
H32   H     H_    0.412933 0.430788 0.944863 0.160364

loop_
_geom_bond_atom_site_label_1
_geom_bond_atom_site_label_2
_ccdc_geom_bond_type
C1    C21   S    
C3    H19   S    
C8    H17   S    
C6    C58   A    
C2    H18   S    
C35   C36   A    
C9    C51   S    
C24   C27   S    
Cr6   O19   S    
C4    C8    A    
C50   H13   S    
C12   O22   A    
C7    C8    A    
C53   O11   A    
C34   O25   A    
Cr4   O14   S    
C55   O17   A    
C36   C37   A    
C19   C21   T    
Cr2   O26   S    
C5    C6    A    
Cr1   O5    S    
Cr2   O20   S    
C29   C54   S    
C11   H20   S    
C40   C49   A    
C52   O9    A    
C17   C20   S    
C61   H23   S    
C18   C19   S    
C16   C53   S    
C12   C59   S    
C60   H16   S    
Cr5   O8    S    
C47   C48   A    
Cr1   O1    S    
C29   C38   A    
C39   H6    S    
C23   O1    A    
C7    C58   A    
C38   O28   S    
C5    C60   A    
C51   O8    A    
Cr5   O19   S    
C15   C23   S    
C57   O18   A    
C37   H4    S    
C41   C43   A    
C48   H9    S    
C34   C41   S    
Cr6   O18   S    
C1    O12   A    
C12   O21   A    
C44   C46   A    
C62   H26   S    
Cr4   O13   S    
C10   H21   S    
C28   C45   S    
C54   O15   A    
O28   C63   S    
C24   C25   D    
C44   H15   S    
C10   C14   S    
C32   H7    S    
C2    C59   A    
C43   H14   S    
C30   C56   S    
C55   O16   A    
C18   H22   S    
C3    C4    A    
Cr6   O11   S    
Cr3   O4    S    
C35   C39   A    
C9    C14   T    
C64   H31   S    
C31   C32   A    
C16   C20   T    
C17   C18   D    
C45   O2    A    
C22   C55   S    
C52   C58   S    
C61   H24   S    
C63   C64   S    
C6    H1    S    
C42   H12   S    
C22   C27   T    
C13   C15   T    
Cr1   O25   S    
C41   C44   A    
Cr1   O12   S    
C25   H3    S    
C42   C43   A    
Cr5   O15   S    
Cr6   O17   S    
C29   C37   A    
C64   H30   S    
C23   O23   A    
Cr4   O19   S    
C63   H29   S    
C62   H27   S    
C40   C48   A    
C46   C50   A    
C46   C47   A    
C17   H2    S    
C40   C57   S    
C30   C33   A    
C53   O6    A    
C54   O14   A    
Cr4   O7    S    
C4    C5    A    
C62   H25   S    
C7    H10   S    
C34   O26   A    
C57   O13   A    
Cr3   O5    S    
C26   C28   T    
C61   C62   S    
Cr6   O10   S    
Cr3   O22   S    
C25   C26   S    
C64   H32   S    
Cr4   O6    S    
C30   C32   A    
C11   C13   S    
C38   C39   A    
Cr2   O21   S    
Cr2   O2    S    
C52   O10   A    
C33   C35   A    
C49   H11   S    
C2    C60   A    
C42   C47   A    
Cr3   O23   S    
C45   O3    A    
C10   C11   D    
C1    O20   A    
Cr5   O9    S    
C33   H8    S    
C56   O4    A    
C24   O27   S    
C49   C50   A    
Cr2   O5    S    
Cr3   O3    S    
C31   C36   A    
C63   H28   S    
Cr5   O16   S    
Cr1   O24   S    
C56   O24   A    
O27   C61   S    
C51   O7    A    
C31   H5    S    
C3    C59   A    
