data_mof_unit_44274.cif
_audit_creation_date              2013-03-05T16:20:07-0500
_audit_creation_method            fapswitch 2.2
_symmetry_space_group_name_H-M    P1
_symmetry_Int_Tables_number       1
_space_group_crystal_system       triclinic
_cell_length_a                    8.585151
_cell_length_b                    18.82362
_cell_length_c                    27.120819
_cell_angle_alpha                 99.896949
_cell_angle_beta                  92.682753
_cell_angle_gamma                 87.428677
_cell_volume                      4309.84755104

loop_
_atom_site_label
_atom_site_type_symbol
_atom_site_description
_atom_site_fract_x
_atom_site_fract_y
_atom_site_fract_z
_atom_type_partial_charge
P1    P     P_3+3 0.929380 0.335110 0.452880 0.446593
O1    O     O_2   0.106080 0.324280 0.466820 -0.366253
O2    O     O_3   0.859130 0.413620 0.470620 -0.397530
O3    O     O_3   0.376230 0.370290 0.556910 -0.358428
O4    O     O_2   0.264186 0.243711 0.511972 -0.377251
O5    O     O_3   0.915661 0.315827 0.387219 -0.600316
O6    O     O_3   0.362401 0.250967 0.603253 -0.542769
H1    H     H_    0.571346 0.305218 0.626035 0.032699
C1    C     C_3   0.393443 0.333951 0.679791 -0.736356
H2    H     H_    0.341392 0.379581 0.662810 0.269842
H3    H     H_    0.303128 0.308765 0.697326 0.254071
P2    P     P_3+3 0.398530 0.559060 0.613740 0.437191
P3    P     P_3+3 0.941462 0.403914 0.647134 0.492482
O7    O     O_2   0.227190 0.537650 0.620070 -0.360006
O8    O     O_3   0.971110 0.406970 0.583250 -0.331147
O9    O     O_2   0.038827 0.466052 0.676408 -0.336224
O10   O     O_3   0.382843 0.653524 0.635145 -0.612195
O11   O     O_3   0.042315 0.326158 0.663526 -0.505815
C2    C     C_3   0.949626 0.263897 0.655908 0.556819
H4    H     H_    0.828005 0.278974 0.664953 0.029957
C3    C     C_3   0.012144 0.206600 0.690307 0.130984
C4    C     C_3   0.831863 0.667956 0.645903 0.644426
C5    C     C_3   0.894698 0.694535 0.700932 -0.322593
H5    H     H_    0.806842 0.683247 0.727331 0.142086
Ba1   Ba    Ba6+2 0.160810 0.465630 0.521640 1.525941
C6    C     C_3   0.004436 0.358506 0.362394 0.370549
H6    H     H_    0.128123 0.345232 0.368650 0.101794
C7    C     C_3   0.959470 0.338190 0.306192 -0.592879
H7    H     H_    0.980587 0.279181 0.294164 0.209024
H8    H     H_    0.832768 0.350127 0.299972 0.228903
C8    C     C_3   0.295176 0.694772 0.604301 0.339112
H9    H     H_    0.190746 0.665611 0.589263 0.114889
C9    C     C_3   0.242815 0.768812 0.635746 -0.067862
H10   H     H_    0.146766 0.759029 0.658556 0.201875
P4    P     P_3+3 0.880940 0.664900 0.547160 0.435988
O12   O     O_2   0.704230 0.675760 0.533200 -0.401639
O13   O     O_3   0.951180 0.586390 0.529420 -0.398383
O14   O     O_3   0.434080 0.629720 0.443130 -0.352017
O15   O     O_3   0.927647 0.691372 0.612185 -0.613498
P5    P     P_3+3 0.858212 0.594815 0.352509 0.468513
O16   O     O_3   0.351080 0.462080 0.440130 -0.402749
O17   O     O_3   0.839200 0.593040 0.416790 -0.378146
O18   O     O_2   0.769071 0.529315 0.324080 -0.349636
O19   O     O_3   0.745316 0.670069 0.338833 -0.477352
Ba2   Ba    Ba6+2 0.649380 0.534380 0.478400 1.515841
P6    P     P_3+3 0.399846 0.276382 0.546540 0.454505
C10   C     C_3   0.474035 0.278588 0.640373 0.724328
H11   H     H_    0.475241 0.354451 0.710747 0.183496
O20   O     O_3   0.459240 0.537930 0.559910 -0.412367
C11   C     C_3   0.420657 0.304250 0.369237 0.660407
H12   H     H_    0.355165 0.311782 0.404299 0.090899
C12   C     C_3   0.370637 0.235923 0.333918 -1.030770
H13   H     H_    0.400157 0.238419 0.294772 0.276035
H14   H     H_    0.432857 0.187129 0.343481 0.253734
H15   H     H_    0.242667 0.230801 0.334587 0.236229
P7    P     P_3+3 0.402261 0.447790 0.376319 0.427637
O21   O     O_2   0.583120 0.462390 0.379940 -0.350583
O22   O     O_3   0.389578 0.360371 0.342079 -0.606216
C13   C     C_3   0.837128 0.732092 0.345931 0.745302
H16   H     H_    0.962249 0.719215 0.340007 -0.009759
C14   C     C_3   0.783920 0.780829 0.308138 -1.028611
H17   H     H_    0.670156 0.808731 0.317935 0.266287
H18   H     H_    0.871001 0.822670 0.307844 0.225812
H19   H     H_    0.772513 0.748656 0.269898 0.245501
P8    P     P_3+3 0.411646 0.722865 0.447489 0.444631
C15   C     C_3   0.347403 0.706663 0.352944 0.421805
H20   H     H_    0.224824 0.714305 0.364810 -0.011900
O23   O     O_2   0.554632 0.751198 0.480298 -0.383467
O24   O     O_3   0.449172 0.744058 0.389016 -0.523652
H21   H     H_    0.383421 0.648630 0.346543 0.121308
H22   H     H_    0.289498 0.700686 0.273594 0.178806
C16   C     C_3   0.358921 0.734266 0.303423 -0.602370
H23   H     H_    0.480939 0.728229 0.291430 0.253381
C17   C     C_R   0.977172 0.045758 0.471669 -0.025026
C18   C     C_R   0.055827 0.091714 0.445833 0.071581
C19   C     C_R   0.191340 0.064820 0.420247 0.315236
C20   C     C_R   0.250678 0.995572 0.423191 -0.239754
C21   C     C_R   0.179530 0.951713 0.451651 0.047719
C22   C     C_R   0.037610 0.974746 0.473491 -0.024781
C23   C     C_R   0.255301 0.887674 0.461427 0.188799
C24   C     C_R   0.168757 0.834626 0.478851 -0.100434
C25   C     C_R   0.021181 0.856487 0.499696 -0.041736
C26   C     C_R   0.961559 0.928403 0.499434 -0.000546
C27   C     C_R   0.220746 0.760906 0.475163 0.191583
C28   C     C_R   0.121797 0.711078 0.490275 -0.349345
C29   C     C_R   0.983004 0.732925 0.515992 0.246004
C30   C     C_R   0.935054 0.807882 0.522063 -0.016054
C31   C     C_R   0.840327 0.071124 0.496457 0.003959
C32   C     C_R   0.783107 0.143289 0.496557 0.012498
C33   C     C_R   0.869177 0.191491 0.474116 -0.052747
C34   C     C_R   0.999811 0.163562 0.446945 -0.151378
H24   H     H_    0.355376 0.975856 0.403563 0.148462
H25   H     H_    0.059397 0.198063 0.426826 0.181595
C35   C     C_R   0.804868 0.836600 0.550175 -0.165340
C36   C     C_R   0.750900 0.908886 0.551801 0.113287
C37   C     C_R   0.825163 0.953917 0.524432 0.029553
C38   C     C_R   0.764257 0.025070 0.522813 0.006892
C39   C     C_R   0.620300 0.936528 0.579303 -0.232576
C40   C     C_R   0.557438 0.005866 0.576544 -0.184800
C41   C     C_R   0.627222 0.050099 0.547693 0.112121
C42   C     C_R   0.642084 0.167453 0.520194 -0.007844
C43   C     C_R   0.562666 0.118966 0.543783 -0.258246
C44   C     C_R   0.589256 0.240243 0.521347 0.171328
C45   C     C_R   0.682444 0.288644 0.503237 -0.519760
C46   C     C_R   0.822859 0.266206 0.480041 0.285578
H26   H     H_    0.743375 0.803354 0.570917 0.155315
H27   H     H_    0.562298 0.903273 0.601123 0.124679
H28   H     H_    0.453300 0.024677 0.596696 0.133918
H29   H     H_    0.452962 0.134647 0.560984 0.192865
H30   H     H_    0.642301 0.344455 0.505878 0.185614
C47   C     C_R   0.405602 0.519178 0.186880 0.521179
O25   O     O_2   0.513613 0.529573 0.217876 -0.558359
N1    N     N_R   0.252414 0.529819 0.201758 -0.161346
C48   C     C_R   0.135349 0.528978 0.164607 0.535950
C49   C     C_2   0.096504 0.582508 0.275902 -0.007368
C50   C     C_3   0.069101 0.591605 0.332083 0.013611
C51   C     C_1   0.291903 0.505345 0.337664 0.277501
C52   C     C_2   0.318258 0.498793 0.289451 -0.233115
C53   C     C_2   0.216632 0.538099 0.255220 0.093636
C54   C     C_R   0.325381 0.516629 0.099821 -0.129915
C55   C     C_R   0.438600 0.499518 0.135463 -0.099157
C56   C     C_R   0.577349 0.461607 0.118512 0.298200
C57   C     C_R   0.171685 0.534420 0.115008 -0.062722
C58   C     C_2   0.180577 0.547074 0.359988 -0.423884
H31   H     H_    0.401719 0.457297 0.273233 0.180080
C59   C     C_2   0.618052 0.458721 0.637109 -0.503436
C60   C     C_R   0.560533 0.496849 0.984440 0.070653
C61   C     C_R   0.287858 0.528721 0.962616 0.043413
C62   C     C_R   0.443330 0.511029 0.948384 0.082868
C63   C     C_R   0.717052 0.491283 0.969661 -0.209762
C64   C     C_R   0.754781 0.493680 0.920568 -0.132089
C65   C     C_R   0.638894 0.502686 0.884102 -0.055527
C66   C     C_R   0.482544 0.508298 0.897483 -0.059807
C67   C     C_R   0.365258 0.511143 0.859944 -0.082405
C68   C     C_R   0.405180 0.498022 0.809126 0.519971
N2    N     N_R   0.560338 0.496887 0.796355 -0.161650
C69   C     C_R   0.675451 0.506035 0.834356 0.522819
C70   C     C_2   0.707058 0.433690 0.724144 0.193943
C71   C     C_3   0.730361 0.417275 0.667880 0.065013
C72   C     C_1   0.521084 0.511565 0.658348 0.292691
C73   C     C_2   0.517150 0.531274 0.708513 0.115882
C74   C     C_2   0.601042 0.486390 0.743432 0.098080
O26   O     O_2   0.809935 0.515055 0.824612 -0.593204
C75   C     C_R   0.517838 0.490901 0.033987 -0.038721
C76   C     C_R   0.364811 0.514108 0.049125 0.059023
C77   C     C_R   0.250144 0.533914 0.013900 0.062040
C78   C     C_R   0.616833 0.457242 0.067774 -0.024206
H32   H     H_    0.874817 0.484885 0.910464 0.158541
H33   H     H_    0.813965 0.487864 0.995792 0.146790
O27   O     O_2   0.000519 0.521336 0.174171 -0.603694
C79   C     C_R   0.058988 0.555876 0.080379 0.089695
C80   C     C_R   0.175935 0.540806 0.924609 -0.224074
C81   C     C_R   0.211747 0.527852 0.874144 -0.073428
O28   O     O_2   0.301942 0.487867 0.776389 -0.558051
C82   C     C_R   0.100043 0.556746 0.031073 -0.268204
H34   H     H_    0.058878 0.559951 0.932449 0.130588
H35   H     H_    0.119884 0.534357 0.846345 0.206464
H36   H     H_    0.011676 0.576819 0.007081 0.123475
H37   H     H_    0.169294 0.549451 0.399104 0.151722
H38   H     H_    0.618167 0.442732 0.596753 0.196274
N3    N     N_3   0.918484 0.772491 0.710045 -0.204976
H39   H     H_    0.811681 0.799676 0.704723 0.117644
H40   H     H_    0.951410 0.788402 0.747835 0.115237
N4    N     N_3   0.038396 0.654843 0.712520 -0.167096
H41   H     H_    0.082411 0.677149 0.748157 0.125925
H42   H     H_    0.121499 0.659608 0.686691 0.178972
N5    N     N_3   0.973717 0.435431 0.378866 -0.202438
H43   H     H_    0.037008 0.451979 0.412368 0.128287
H44   H     H_    0.855888 0.444457 0.385629 0.229481
N6    N     N_3   0.046227 0.376339 0.274539 -0.195462
H45   H     H_    0.022036 0.431676 0.284372 0.176149
H46   H     H_    0.165369 0.365881 0.280371 0.167352
N7    N     N_3   0.385467 0.707853 0.562801 -0.224536
H47   H     H_    0.472876 0.744228 0.575155 0.124595
H48   H     H_    0.434548 0.659553 0.544615 0.197453
N8    N     N_3   0.183023 0.819300 0.603276 -0.215386
H49   H     H_    0.120298 0.861607 0.624750 0.129514
H50   H     H_    0.275862 0.842173 0.588738 0.128789
C83   C     C_3   0.368317 0.804297 0.673131 -0.966664
H51   H     H_    0.398911 0.770211 0.701961 0.266620
H52   H     H_    0.474234 0.814374 0.653919 0.243233
H53   H     H_    0.322138 0.857004 0.693046 0.245214
C84   C     C_3   0.545939 0.216002 0.663735 -1.141576
H54   H     H_    0.462936 0.173666 0.666017 0.274553
H55   H     H_    0.640091 0.189727 0.639922 0.241107
H56   H     H_    0.591407 0.235731 0.702192 0.242281
C85   C     C_3   0.593123 0.296790 0.381540 -0.772923
H57   H     H_    0.658055 0.293571 0.346778 0.259261
H58   H     H_    0.627694 0.343949 0.409394 0.244131
H59   H     H_    0.619943 0.247223 0.397836 0.180425
N9    N     N_3   0.896690 0.152564 0.693855 -0.202642
H60   H     H_    0.857386 0.126855 0.658587 0.099696
H61   H     H_    0.802707 0.175316 0.714670 0.124528
C86   C     C_3   0.825009 0.773854 0.398904 -0.818197
H62   H     H_    0.850388 0.736926 0.426012 0.241764
H63   H     H_    0.910330 0.817321 0.404979 0.179633
H64   H     H_    0.707515 0.799024 0.405228 0.277634
C87   C     C_3   0.946781 0.231206 0.600240 -0.978495
H65   H     H_    0.886601 0.179592 0.593097 0.200911
H66   H     H_    0.883127 0.269149 0.579058 0.246117
H67   H     H_    0.066109 0.222038 0.586012 0.303876
N10   N     N_3   0.304021 0.809621 0.307339 -0.190345
H68   H     H_    0.372203 0.841511 0.334774 0.167179
H69   H     H_    0.189001 0.814375 0.318990 0.128472
C88   C     C_3   0.276865 0.108904 0.390329 -1.065199
H70   H     H_    0.196888 0.122898 0.359849 0.257077
H71   H     H_    0.317961 0.158289 0.415147 0.274245
H72   H     H_    0.380555 0.079096 0.372871 0.254282
N11   N     N_3   0.166052 0.636556 0.478637 -0.171981
H73   H     H_    0.071594 0.609507 0.461065 0.167181
H74   H     H_    0.201441 0.615577 0.510522 0.156241
C89   C     C_3   0.429837 0.890196 0.469155 -0.864867
H75   H     H_    0.464389 0.867612 0.503005 0.266324
H76   H     H_    0.489591 0.864411 0.435226 0.265838
H77   H     H_    0.469726 0.946309 0.477895 0.227708
C90   C     C_3   0.671249 0.416478 0.151615 -0.865383
H78   H     H_    0.611948 0.411076 0.186101 0.259665
H79   H     H_    0.688460 0.360225 0.131874 0.201262
H80   H     H_    0.786337 0.439585 0.162126 0.301747
C91   C     C_3   0.778221 0.379812 0.754764 -0.885388
H81   H     H_    0.751853 0.325101 0.736049 0.193488
H82   H     H_    0.906010 0.386434 0.759385 0.294727
H83   H     H_    0.728551 0.381993 0.791789 0.229926
N12   N     N_3   0.746283 0.411014 0.049074 -0.217772
H84   H     H_    0.721600 0.357439 0.050022 0.115653
H85   H     H_    0.846319 0.425074 0.071480 0.145065
N13   N     N_3   0.009800 0.628897 0.246867 -0.182299
H86   H     H_    0.890968 0.621093 0.249451 0.197037
H87   H     H_    0.032203 0.682449 0.261579 0.071354
N14   N     N_3   0.905095 0.580794 0.096051 -0.169658
H88   H     H_    0.833642 0.591762 0.065787 0.095348
H89   H     H_    0.916419 0.629812 0.120539 0.130666
N15   N     N_3   0.152100 0.166939 0.670422 -0.197555
H90   H     H_    0.221558 0.203534 0.658934 0.195119
H91   H     H_    0.123496 0.129221 0.638593 0.104800
C92   C     C_3   0.443431 0.602604 0.731976 -0.851324
H92   H     H_    0.316498 0.601598 0.724134 0.274743
H93   H     H_    0.464542 0.614829 0.773085 0.213788
H94   H     H_    0.493809 0.647438 0.718112 0.226347
C93   C     C_3   0.054324 0.243402 0.744497 -0.902606
H95   H     H_    0.949024 0.257424 0.766737 0.233106
H96   H     H_    0.127601 0.205791 0.764034 0.250892
H97   H     H_    0.119162 0.293173 0.746206 0.266321
N16   N     N_3   0.678548 0.701157 0.640009 -0.215721
H98   H     H_    0.617599 0.703480 0.672355 0.086484
H99   H     H_    0.621761 0.668035 0.611281 0.169003
C94   C     C_3   0.831145 0.585285 0.636439 -0.800241
H100  H     H_    0.754713 0.563999 0.603694 0.219116
H101  H     H_    0.949605 0.563202 0.627778 0.298240
H102  H     H_    0.797116 0.566306 0.670614 0.188760

loop_
_geom_bond_atom_site_label_1
_geom_bond_atom_site_label_2
_geom_bond_distance
_ccdc_geom_bond_type
P2    C72   1.881004 S    
C86   H63   1.108739 S    
C30   C35   1.416532 A    
C20   H24   1.084419 S    
C42   C43   1.415840 A    
C80   C81   1.394678 A    
C9    C83   1.537724 S    
P7    C51   1.837340 S    
O14   P8    1.739481 S    
C36   C37   1.408917 A    
C90   H80   1.102828 S    
C20   C21   1.399616 A    
C18   C19   1.411830 A    
C61   C62   1.416198 A    
C38   C41   1.405944 A    
C91   H82   1.108543 S    
O3    Ba1   2.771781 S    
C36   C39   1.405968 A    
C68   N2    1.390283 Am   
N5    H44   1.037803 S    
O3    P6    1.745630 S    
C28   C29   1.417973 A    
P7    O21   1.584547 D    
C49   N13   1.435220 S    
C40   H28   1.083608 S    
C59   C72   1.337122 D    
C6    H6    1.092106 S    
C68   O28   1.222130 D    
N10   H69   1.046182 S    
P3    O11   1.778615 S    
P3    C71   1.915793 S    
C7    H7    1.111747 S    
C2    C3    1.602724 S    
C51   C58   1.311625 D    
C90   H79   1.108261 S    
O11   C2    1.426362 S    
C84   H55   1.103753 S    
C4    C94   1.533296 S    
C8    H9    1.097462 S    
C21   C23   1.403534 A    
C3    N9    1.469480 S    
C79   N14   1.440359 S    
C47   C55   1.418428 A    
N6    H45   1.043817 S    
C4    O15   1.395767 S    
O19   C13   1.418626 S    
C49   C50   1.531843 S    
C58   H37   1.062876 S    
N16   H98   1.035865 S    
P1    O1    1.559110 D    
C14   H18   1.111236 S    
C9    N8    1.464157 S    
C52   C53   1.507609 S    
C45   C46   1.400468 A    
O14   Ba2   2.771142 S    
N2    C74   1.471243 S    
Ba1   O13   2.820325 S    
N1    C53   1.476713 S    
C61   C80   1.416265 A    
P5    O18   1.550138 D    
C15   C16   1.529856 S    
C77   C82   1.414178 A    
C2    H4    1.097446 S    
C92   H93   1.107007 S    
C65   C66   1.401543 A    
C85   H59   1.109887 S    
P2    O10   1.774260 S    
C11   C12   1.530920 S    
C5    H5    1.115290 S    
C8    C9    1.562957 S    
C87   H65   1.104241 S    
C52   H31   1.085438 S    
C79   C82   1.401738 A    
P7    O22   1.750224 S    
C1    H2    1.109880 S    
P5    O19   1.762773 S    
C31   C38   1.412965 A    
C12   H15   1.108430 S    
C18   C34   1.410765 A    
C23   C89   1.504991 S    
C83   H53   1.110758 S    
C14   H17   1.109353 S    
N8    H50   1.046273 S    
C86   H62   1.103740 S    
C69   O26   1.221991 D    
C70   C91   1.509249 S    
C13   H16   1.103559 S    
C42   C44   1.419469 A    
N12   H84   1.044592 S    
C82   H36   1.074362 S    
P1    Ba1   3.460860 S    
N4    H42   1.040137 S    
C35   C36   1.411658 A    
C60   C62   1.418956 A    
C87   H67   1.107430 S    
C75   C78   1.428895 A    
C11   C85   1.508171 S    
C4    N16   1.445486 S    
C91   H81   1.095429 S    
N3    H40   1.046411 S    
C12   H14   1.105031 S    
C76   C77   1.422031 A    
C57   C79   1.411203 A    
C19   C20   1.391878 A    
C94   H101  1.101419 S    
C13   C86   1.520282 S    
C72   C73   1.348876 D    
C87   H66   1.102448 S    
C59   C71   1.521770 S    
C3    N15   1.460710 S    
C6    N5    1.456098 S    
C13   C14   1.530580 S    
C85   H58   1.104032 S    
N10   H68   1.045866 S    
N9    H60   1.043204 S    
C11   O22   1.397648 S    
O6    P6    1.735218 S    
C80   H34   1.070604 S    
O12   Ba2   2.863619 S    
C9    H10   1.094113 S    
C27   C28   1.416185 A    
C10   C84   1.524831 S    
C92   H92   1.100863 S    
C17   C18   1.414336 A    
C84   H56   1.104483 S    
Ba1   O16   2.799479 S    
N5    H43   1.043782 S    
C67   C81   1.397435 A    
C21   C22   1.398293 A    
C23   C24   1.426218 A    
P8    C27   1.893990 S    
C86   H64   1.103062 S    
C11   H12   1.112220 S    
C65   C69   1.411859 A    
N7    H47   1.043033 S    
O2    Ba2   2.820949 S    
C93   H97   1.104158 S    
C24   C25   1.426338 A    
C39   H27   1.083020 S    
P1    O5    1.754666 S    
C28   N11   1.422298 S    
P1    O2    1.575438 S    
P4    O12   1.559385 D    
O6    C10   1.405983 S    
C14   H19   1.109872 S    
P4    O15   1.780111 S    
C84   H54   1.103977 S    
N9    H61   1.040018 S    
O16   P7    1.777913 S    
P2    O20   1.553777 S    
C34   H25   1.076529 S    
C1    H3    1.094125 S    
N13   H86   1.044490 S    
C89   H77   1.108113 S    
Ba2   O20   2.798785 S    
P8    O23   1.541577 D    
Ba2   O21   2.823754 S    
C37   C38   1.422833 A    
C3    C93   1.547155 S    
C63   H33   1.074389 S    
C93   H96   1.111533 S    
N11   H73   1.030261 S    
C64   H32   1.077033 S    
C47   N1    1.389530 Am   
C56   C78   1.420396 A    
C31   C32   1.423235 A    
N14   H89   1.045585 S    
N15   H91   1.046261 S    
C55   C56   1.414817 A    
N1    C48   1.388055 Am   
N7    H48   1.038450 S    
C1    H11   1.097579 S    
C62   C66   1.428023 A    
C48   C57   1.416609 A    
C7    N6    1.458467 S    
N8    H49   1.046334 S    
N13   H87   1.041290 S    
C41   C43   1.405745 A    
P2    O7    1.567254 D    
C1    C10   1.526175 S    
C49   C53   1.375741 D    
C17   C22   1.420047 A    
C56   C90   1.520018 S    
C70   C74   1.367952 D    
C66   C67   1.403996 A    
O10   C8    1.407470 S    
C45   H30   1.082372 S    
C48   O27   1.218081 D    
O13   Ba2   3.002115 S    
C64   C65   1.395370 A    
P4    Ba2   3.461509 S    
Ba1   Ba2   4.702400 S    
C24   C27   1.426795 A    
C19   C88   1.492650 S    
P4    O13   1.575408 S    
C16   N10   1.462307 S    
C5    N4    1.463098 S    
C8    N7    1.456829 S    
C94   H102  1.104803 S    
C88   H70   1.108908 S    
N4    H41   1.045829 S    
C2    C87   1.528794 S    
C5    N3    1.467504 S    
C50   C58   1.506510 S    
C47   O25   1.221319 D    
C32   C42   1.416568 A    
C29   C30   1.435894 A    
P6    C44   1.848999 S    
C4    C5    1.568733 S    
C33   C46   1.428310 A    
C89   H76   1.101716 S    
C16   H23   1.106597 S    
N12   H85   1.045535 S    
P5    C50   1.913394 S    
C25   C26   1.426689 A    
C94   H100  1.107466 S    
C54   C57   1.409494 A    
C67   C68   1.413355 A    
C59   H38   1.084110 S    
O4    P6    1.541893 D    
C15   H21   1.108425 S    
C6    C7    1.541563 S    
C40   C41   1.406069 A    
P2    Ba1   3.439770 S    
C75   C76   1.422210 A    
P3    O8    1.773937 S    
C63   C64   1.393580 A    
C60   C63   1.414432 A    
C7    H8    1.111788 S    
N3    H39   1.046098 S    
C73   C74   1.511962 S    
C22   C26   1.409751 A    
C61   C77   1.428799 A    
C33   C34   1.403017 A    
O5    C6    1.403017 S    
N6    H46   1.042822 S    
C73   C92   1.508652 S    
P8    O24   1.747757 S    
C26   C37   1.404774 A    
P5    O17   1.764694 S    
C93   H95   1.107071 S    
N11   H74   1.038314 S    
N16   H99   1.028686 S    
C15   H20   1.110816 S    
O1    Ba1   2.863148 S    
C60   C75   1.433205 A    
C91   H83   1.102795 S    
O7    Ba1   2.823424 S    
C81   H35   1.082968 S    
N14   H88   1.045171 S    
Ba1   O20   3.011974 S    
H1    C10   1.111495 S    
C35   H26   1.079470 S    
C70   C71   1.524773 S    
C83   H51   1.109115 S    
C15   O24   1.397985 S    
C90   H78   1.107358 S    
C54   C76   1.423726 A    
O2    Ba1   3.001236 S    
H22   C16   1.105504 S    
C89   H75   1.099497 S    
O8    Ba1   2.777384 S    
C39   C40   1.402477 A    
P3    O9    1.550331 D    
P1    C46   1.886563 S    
C44   C45   1.402630 A    
O16   Ba2   3.011019 S    
C54   C55   1.404944 A    
N2    C69   1.388294 Am   
C43   H29   1.077331 S    
C85   H57   1.108940 S    
C88   H72   1.111204 S    
C17   C31   1.404776 A    
C32   C33   1.425384 A    
C51   C52   1.321312 D    
C88   H71   1.110758 S    
P4    C29   1.914155 S    
O17   Ba2   2.778040 S    
C92   H94   1.094420 S    
C78   N12   1.436591 S    
C25   C30   1.430114 A    
N15   H90   1.027222 S    
C12   H13   1.112188 S    
C83   H52   1.108207 S    
