data_mof_unit_22930.cif
_audit_creation_date              2012-12-10T20:42:37-0500
_audit_creation_method            fapswitch 2.2
_symmetry_space_group_name_H-M    P1
_symmetry_Int_Tables_number       1
_space_group_crystal_system       triclinic
_cell_length_a                    8.874599
_cell_length_b                    10.712105
_cell_length_c                    9.974398
_cell_angle_alpha                 89.067596
_cell_angle_beta                  90.310843
_cell_angle_gamma                 91.54536
_cell_volume                      947.740309455

loop_
_atom_site_label
_atom_site_type_symbol
_atom_type_description
_atom_site_fract_x
_atom_site_fract_y
_atom_site_fract_z
_atom_type_partial_charge
C1    C     C_R   0.504364 0.260636 0.501343 0.901628
C2    C     C_R   0.593977 0.940693 0.400355 0.275595
C3    C     C_R   0.508383 0.871403 0.495611 -0.133138
C4    C     C_R   0.423003 0.931213 0.590324 0.015431
C5    C     C_3   0.427513 0.914105 0.738950 -0.415769
C6    C     C_3   0.437620 0.054432 0.746351 0.119097
C7    C     C_R   0.375812 0.459064 0.069784 0.110187
C8    C     C_R   0.613799 0.555497 0.072528 -0.073499
C9    C     C_R   0.613259 0.557966 0.929783 0.223321
C10   C     C_R   0.373108 0.464712 0.928500 0.080220
C11   C     C_3   0.285128 0.345696 0.917114 -0.086605
C12   C     C_R   0.219202 0.501270 0.499671 0.931990
C13   C     C_3   0.294479 0.333709 0.070202 0.209459
C14   C     C_R   0.505952 0.739321 0.498763 0.907154
C15   C     C_R   0.780882 0.500934 0.500153 0.938988
C16   C     C_1   0.065618 0.502743 0.499260 -0.115105
C17   C     C_1   0.934483 0.502469 0.499953 -0.104411
C18   C     C_R   0.426657 0.059022 0.596100 0.036983
C19   C     C_R   0.512332 0.128592 0.503899 -0.096452
C20   C     C_R   0.595972 0.069715 0.406168 -0.169568
H1    H     H_    0.665351 0.124095 0.336430 0.208117
H2    H     H_    0.352846 0.278843 0.862523 0.165288
H3    H     H_    0.319735 0.873322 0.778414 0.200284
H4    H     H_    0.530076 0.867058 0.775960 0.255371
H5    H     H_    0.336720 0.091047 0.795357 0.142876
H6    H     H_    0.706045 0.599688 0.126756 0.197392
N1    N     N_R   0.499010 0.499140 0.142800 -0.122116
N2    N     N_R   0.499010 0.499180 0.857150 -0.131165
O1    O     O_R   0.500020 0.316790 0.614690 -0.598199
O2    O     O_R   0.500000 0.316760 0.385350 -0.599074
O3    O     O_R   0.285350 0.500020 0.614650 -0.601364
O4    O     O_R   0.285340 0.499980 0.385310 -0.599413
O5    O     O_R   0.500000 0.683240 0.614650 -0.620297
O6    O     O_R   0.499980 0.683210 0.385310 -0.585808
O7    O     O_R   0.714660 0.500020 0.614690 -0.580453
O8    O     O_R   0.714650 0.499980 0.385350 -0.612246
Zn1   Zn    Zn3+2 0.500010 0.500020 0.653130 1.017396
Zn2   Zn    Zn3+2 0.499990 0.499980 0.346870 1.023188
I1    I     I_    0.087587 0.329740 0.182416 -0.211466
I2    I     I_    0.424834 0.175404 0.121601 -0.231667
Br1   Br    Br    0.722490 0.866586 0.270815 -0.438279
Br2   Br    Br    0.633795 0.112895 0.813928 -0.398081
I3    I     I_    0.786503 0.670960 0.841762 -0.220410
I4    I     I_    0.064905 0.367237 0.829826 -0.215379

loop_
_geom_bond_atom_site_label_1
_geom_bond_atom_site_label_2
_ccdc_geom_bond_type
C14   O6    A    
C7    C10   A    
O4    Zn2   S    
C8    H6    S    
C11   H2    S    
C19   C20   A    
C5    H3    S    
C4    C18   A    
C14   O5    A    
O8    Zn2   S    
C2    C3    A    
C11   I4    S    
C12   O4    A    
C11   C13   S    
C1    O1    A    
C16   C17   T    
C3    C14   S    
C5    H4    S    
N2    Zn1   S    
C15   O7    A    
C1    O2    A    
O7    Zn1   S    
C12   O3    A    
C5    C6    S    
C6    C18   S    
C9    I3    S    
C6    H5    S    
C13   I1    S    
C10   C11   S    
C2    Br1   S    
O1    Zn1   S    
C3    C4    A    
C12   C16   S    
C15   O8    A    
C7    C13   S    
C7    N1    A    
C20   H1    S    
O2    Zn2   S    
C18   C19   A    
C6    Br2   S    
C10   N2    A    
C15   C17   S    
C8    N1    A    
C8    C9    A    
C13   I2    S    
N1    Zn2   S    
O6    Zn2   S    
C1    C19   S    
C2    C20   A    
O5    Zn1   S    
O3    Zn1   S    
C9    N2    A    
C4    C5    S    
