data_mof_unit_64176.cif
_audit_creation_date              2013-03-05T16:45:08-0500
_audit_creation_method            fapswitch 2.2
_symmetry_space_group_name_H-M    P1
_symmetry_Int_Tables_number       1
_space_group_crystal_system       triclinic
_cell_length_a                    14.353905
_cell_length_b                    15.797062
_cell_length_c                    17.11269
_cell_angle_alpha                 96.154695
_cell_angle_beta                  90.067068
_cell_angle_gamma                 92.153103
_cell_volume                      3855.15208434

loop_
_atom_site_label
_atom_site_type_symbol
_atom_site_description
_atom_site_fract_x
_atom_site_fract_y
_atom_site_fract_z
_atom_type_partial_charge
O1    O     O_R   0.496120 0.420530 0.382500 -0.554297
O2    O     O_R   0.503880 0.579470 0.617500 -0.554294
O3    O     O_R   0.503120 0.563720 0.388950 -0.582695
O4    O     O_R   0.496880 0.436280 0.611050 -0.582701
C1    C     C_R   0.500337 0.489720 0.348743 0.862128
C2    C     C_R   0.499663 0.510280 0.651256 0.862140
O5    O     O_R   0.372550 0.428390 0.496770 -0.582743
O6    O     O_R   0.627450 0.571610 0.503230 -0.582748
O7    O     O_R   0.379550 0.571580 0.503220 -0.539736
O8    O     O_R   0.620450 0.428420 0.496780 -0.539727
C3    C     C_R   0.330884 0.500197 0.499677 0.850397
C4    C     C_R   0.669116 0.499803 0.500323 0.850389
Cu1   Cu    Cu3+1 0.495850 0.415220 0.496180 0.998351
Cu2   Cu    Cu3+1 0.504150 0.584780 0.503820 0.998347
C5    C     C_1   0.228643 0.500596 0.499697 -0.129599
C6    C     C_1   0.771357 0.499404 0.500302 -0.129602
C7    C     C_1   0.143286 0.500530 0.499788 0.025239
C8    C     C_1   0.856714 0.499470 0.500211 0.025239
C9    C     C_1   0.042687 0.500181 0.499934 0.032613
C10   C     C_1   0.957313 0.499819 0.500066 0.032613
C11   C     C_R   0.503771 0.484357 0.262769 -0.198179
C12   C     C_R   0.496228 0.515643 0.737230 -0.198177
C13   C     C_R   0.443108 0.532694 0.221904 -0.108277
C14   C     C_R   0.556897 0.467312 0.778096 -0.108280
C15   C     C_R   0.447578 0.528842 0.140298 -0.173529
C16   C     C_R   0.552428 0.471163 0.859702 -0.173526
C17   C     C_R   0.511615 0.476394 0.098116 0.305659
C18   C     C_R   0.488385 0.523605 0.901884 0.305657
C19   C     C_R   0.568877 0.426227 0.138354 -0.236934
C20   C     C_R   0.431118 0.573767 0.861645 -0.236932
C21   C     C_R   0.566976 0.430253 0.220354 0.298563
C22   C     C_R   0.433018 0.569741 0.779646 0.298563
N1    N     N_2   0.521186 0.472231 0.015346 -0.228045
N2    N     N_2   0.478815 0.527768 0.984653 -0.228047
H1    H     H_    0.599459 0.433528 0.890084 0.172848
H2    H     H_    0.400552 0.566482 0.109916 0.172848
H3    H     H_    0.617989 0.386017 0.105512 0.188061
H4    H     H_    0.382001 0.613972 0.894487 0.188064
N3    N     N_R   0.510380 0.712130 0.509560 -0.167350
N4    N     N_R   0.489620 0.287870 0.490440 -0.167351
C23   C     C_R   0.454222 0.752061 0.461808 0.068233
C24   C     C_R   0.545765 0.247940 0.538203 0.068226
C25   C     C_R   0.457019 0.841391 0.464049 -0.259467
C26   C     C_R   0.542968 0.158610 0.535961 -0.259469
C27   C     C_R   0.518541 0.891149 0.516365 0.382051
C28   C     C_R   0.481460 0.108851 0.483633 0.382050
C29   C     C_R   0.575184 0.848209 0.564862 -0.288434
C30   C     C_R   0.424831 0.151790 0.435126 -0.288430
C31   C     C_R   0.570182 0.758803 0.560685 0.087329
C32   C     C_R   0.429832 0.241196 0.439304 0.087342
N5    N     N_2   0.526079 0.982747 0.522508 -0.229400
N6    N     N_2   0.473923 0.017253 0.477491 -0.229401
H5    H     H_    0.593176 0.285444 0.578327 0.153205
H6    H     H_    0.406800 0.714557 0.421693 0.153205
H7    H     H_    0.588516 0.129283 0.574793 0.166816
H8    H     H_    0.411460 0.870718 0.425227 0.166815
H9    H     H_    0.623276 0.883958 0.605873 0.155487
H10   H     H_    0.376750 0.116041 0.394107 0.155487
H11   H     H_    0.614383 0.726724 0.598437 0.130874
H12   H     H_    0.385641 0.273274 0.401544 0.130876
C33   C     C_1   0.626949 0.415672 0.738021 0.261553
N7    N     N_1   0.683339 0.374537 0.706167 -0.294360
C34   C     C_1   0.373062 0.584340 0.261979 0.261567
N8    N     N_1   0.316675 0.625479 0.293833 -0.294367
N9    N     N_R   0.632170 0.381839 0.259358 0.136627
O9    O     O_R   0.655118 0.307120 0.227294 -0.336343
O10   O     O_R   0.679484 0.417199 0.319894 -0.366650
N10   N     N_R   0.367816 0.618147 0.740642 0.136628
O11   O     O_R   0.344848 0.692858 0.772710 -0.336343
O12   O     O_R   0.320513 0.582785 0.680100 -0.366658

loop_
_geom_bond_atom_site_label_1
_geom_bond_atom_site_label_2
_geom_bond_distance
_ccdc_geom_bond_type
O5    C3    1.298396 A    
O7    Cu2   1.792702 S    
C24   C26   1.406621 A    
C30   H10   1.082847 S    
C14   C33   1.445730 S    
C17   C19   1.393701 A    
O7    C3    1.299716 A    
C16   H1    1.084021 S    
C16   C18   1.408175 A    
C9    C10   1.225254 T    
C31   H11   1.081711 S    
C22   N10   1.438022 S    
O6    C4    1.298396 A    
C32   H12   1.081707 S    
C11   C21   1.416758 A    
C30   C32   1.405600 A    
N1    N2    1.246431 D    
C18   N2    1.417947 S    
C18   C20   1.393699 A    
N3    C23   1.364777 A    
Cu1   Cu2   2.665860 S    
C17   N1    1.417949 S    
C20   C22   1.398190 A    
C23   H6    1.080270 S    
C25   C27   1.412187 A    
C26   H7    1.082314 S    
O2    C2    1.289382 A    
O3    Cu2   1.958148 S    
C12   C22   1.416757 A    
N4    C32   1.363164 A    
O8    C4    1.299718 A    
C12   C14   1.411858 A    
C6    C8    1.225166 T    
N3    C31   1.363169 A    
C29   C31   1.405599 A    
C8    C10   1.443805 S    
C13   C15   1.392948 A    
C24   H5    1.080266 S    
C33   N7    1.157223 T    
O2    Cu2   1.956143 S    
O1    C1    1.289384 A    
C13   C34   1.445729 S    
O4    C2    1.290532 A    
O1    Cu1   1.956146 S    
C27   N5    1.439481 S    
C15   H2    1.084023 S    
N5    N6    1.253163 D    
C2    C12   1.465578 S    
C28   C30   1.403735 A    
C28   N6    1.439482 S    
C25   H8    1.082319 S    
O5    Cu1   1.789682 S    
C1    C11   1.465580 S    
C20   H4    1.083656 S    
C19   C21   1.398189 A    
N9    O9    1.301355 A    
C27   C29   1.403741 A    
C19   H3    1.083657 S    
C29   H9    1.082851 S    
C5    C7    1.225164 T    
N10   O12   1.300838 A    
C21   N9    1.438020 S    
N10   O11   1.301349 A    
Cu1   N4    2.002223 S    
O6    Cu2   1.789684 S    
N9    O10   1.300839 A    
C4    C6    1.467810 S    
C7    C9    1.443805 S    
Cu2   N3    2.002223 S    
C3    C5    1.467811 S    
C11   C13   1.411859 A    
O8    Cu1   1.792702 S    
C26   C28   1.412181 A    
C23   C25   1.406621 A    
C34   N8    1.157225 T    
O4    Cu1   1.958148 S    
C14   C16   1.392950 A    
N4    C24   1.364774 A    
O3    C1    1.290534 A    
C15   C17   1.408177 A    
