data_mof_unit_65451.cif
_audit_creation_date              2012-12-10T20:43:39-0500
_audit_creation_method            fapswitch 2.2
_symmetry_space_group_name_H-M    P1
_symmetry_Int_Tables_number       1
_space_group_crystal_system       triclinic
_cell_length_a                    10.838115
_cell_length_b                    19.206158
_cell_length_c                    19.199596
_cell_angle_alpha                 94.683543
_cell_angle_beta                  92.189503
_cell_angle_gamma                 96.733368
_cell_volume                      3951.12958533

loop_
_atom_site_label
_atom_site_type_symbol
_atom_type_description
_atom_site_fract_x
_atom_site_fract_y
_atom_site_fract_z
_atom_type_partial_charge
C1    C     C_R   0.513205 0.690120 0.508282 0.788897
C2    C     C_R   0.517418 0.766995 0.512201 0.000045
C3    C     C_R   0.471727 0.802798 0.570575 -0.205704
C4    C     C_R   0.487547 0.309692 0.491469 0.860571
C5    C     C_R   0.471332 0.875432 0.573996 -0.185536
C6    C     C_R   0.473877 0.502892 0.764896 -0.045386
C7    C     C_R   0.540734 0.457327 0.800753 -0.215582
C8    C     C_R   0.526246 0.450523 0.872084 0.190805
C9    C     C_R   0.444408 0.491121 0.908405 0.310337
C10   C     C_R   0.375923 0.535370 0.872334 -0.228518
C11   C     C_R   0.390935 0.541656 0.801194 -0.216138
C12   C     C_R   0.546729 0.201196 0.538998 -0.191938
C13   C     C_R   0.419305 0.461127 0.118296 -0.157934
C14   C     C_R   0.418088 0.457348 0.190605 -0.206691
C15   C     C_R   0.519775 0.500171 0.088806 0.312007
C16   C     C_R   0.512899 0.493007 0.310830 0.828988
C17   C     C_R   0.516373 0.492674 0.234334 -0.014622
C18   C     C_R   0.617081 0.530402 0.204587 -0.175720
C19   C     C_R   0.618851 0.533565 0.132477 -0.189358
C20   C     C_R   0.486289 0.506214 0.689044 0.797636
C21   C     C_R   0.835120 0.516270 0.516271 0.965464
C22   C     C_R   0.163514 0.484725 0.484655 0.765069
C23   C     C_R   0.551386 0.128997 0.533279 -0.232439
C24   C     C_2   0.027846 0.477844 0.477465 0.292503
C25   C     C_2   0.968334 0.520001 0.520074 -0.464903
C26   C     C_R   0.487944 0.232915 0.485835 -0.081367
C27   C     C_3   0.595027 0.398538 0.907900 -0.870065
C28   C     C_R   0.497232 0.086682 0.473955 0.207265
C29   C     C_R   0.439861 0.118473 0.419822 0.444739
C30   C     C_R   0.434386 0.191236 0.426404 -0.265468
C31   C     C_R   0.561201 0.877671 0.460358 -0.124137
C32   C     C_R   0.563855 0.805005 0.457518 -0.216050
C33   C     C_R   0.513312 0.913214 0.518619 0.317695
H1    H     H_    0.589553 0.232238 0.585146 0.180625
H2    H     H_    0.599790 0.778407 0.412092 0.172211
H3    H     H_    0.596852 0.905952 0.417412 0.177930
H4    H     H_    0.390054 0.215581 0.384810 0.226100
H5    H     H_    0.436592 0.774641 0.613744 0.165908
H6    H     H_    0.598619 0.106351 0.575061 0.178041
H7    H     H_    0.435901 0.902322 0.619419 0.150089
H8    H     H_    0.986935 0.335944 0.333810 0.384615
H9    H     H_    0.528632 0.362837 0.935141 0.250427
H10   H     H_    0.643182 0.365617 0.869962 0.232198
H11   H     H_    0.666496 0.426732 0.946348 0.254369
H12   H     H_    0.339483 0.427868 0.212336 0.181672
H13   H     H_    0.277087 0.085766 0.247763 0.392773
H14   H     H_    0.342228 0.433453 0.085780 0.158781
H15   H     H_    0.311840 0.565737 0.899779 0.159911
H16   H     H_    0.337072 0.576436 0.774568 0.176003
H17   H     H_    0.694605 0.557695 0.237083 0.182541
H18   H     H_    0.697337 0.562871 0.110446 0.151710
H19   H     H_    0.603359 0.426183 0.772959 0.173187
H20   H     H_    0.017968 0.558310 0.559153 0.138858
N1    N     N_2   0.501334 0.012760 0.467132 -0.112553
N2    N     N_2   0.508417 0.986818 0.524403 -0.194810
N3    N     N_2   0.428243 0.487314 0.980778 -0.196857
N4    N     N_2   0.527697 0.505360 0.015796 -0.185845
O1    O     O_3   0.500000 0.500000 0.500000 -0.499954
O2    O     O_R   0.783160 0.551820 0.473170 -0.611629
O3    O     O_R   0.222430 0.530340 0.530340 -0.665715
O4    O     O_R   0.771990 0.472690 0.551320 -0.615207
O5    O     O_R   0.222420 0.445150 0.445160 -0.567723
O6    O     O_2   0.857562 0.364710 0.449598 -0.300389
O7    O     O_2   0.871424 0.452666 0.364013 -0.312400
O8    O     O_3   0.041983 0.368733 0.367246 -0.514216
O9    O     O_2   0.471243 0.030104 0.309139 -0.281837
O10   O     O_2   0.271872 0.013777 0.365177 -0.275065
O11   O     O_3   0.312220 0.118596 0.288006 -0.551176
O12   O     O_R   0.435070 0.449940 0.339290 -0.632128
O13   O     O_R   0.419380 0.543640 0.654290 -0.645429
O14   O     O_R   0.586230 0.658380 0.469080 -0.649930
O15   O     O_R   0.559310 0.348040 0.537340 -0.631546
O16   O     O_R   0.435110 0.654980 0.544320 -0.644033
O17   O     O_R   0.419350 0.338590 0.449260 -0.631609
O18   O     O_R   0.586210 0.538520 0.349230 -0.631504
O19   O     O_R   0.559330 0.467910 0.657200 -0.658079
S1    S     S_3+6 0.945334 0.414877 0.413445 0.037796
S2    S     S_3+6 0.372821 0.067430 0.344154 0.043178
Zn1   Zn    Zn3+2 0.396020 0.434560 0.434560 1.054651
Zn2   Zn    Zn3+2 0.611960 0.561120 0.448760 1.019126
Zn3   Zn    Zn3+2 0.595990 0.448060 0.560420 1.011901
Zn4   Zn    Zn3+2 0.396040 0.556260 0.556260 0.960566

loop_
_geom_bond_atom_site_label_1
_geom_bond_atom_site_label_2
_ccdc_geom_bond_type
C33   N2    S    
C16   O18   A    
O7    S1    D    
C7    C8    A    
C15   C19   A    
C12   C23   A    
C1    O14   A    
C28   C29   A    
C25   H20   S    
C7    H19   S    
C21   O2    A    
O1    Zn4   S    
C22   O3    A    
N3    N4    D    
C20   O19   A    
C2    C32   A    
C1    C2    S    
O3    Zn4   S    
C27   H11   S    
C29   S2    S    
C3    H5    S    
C8    C9    A    
C5    C33   A    
C31   C33   A    
O18   Zn2   S    
C21   O4    A    
O15   Zn3   S    
O1    Zn2   S    
C13   C14   A    
C15   N4    S    
C14   C17   A    
C20   O13   A    
O10   S2    D    
C9    C10   A    
O14   Zn2   S    
C14   H12   S    
O11   S2    S    
O9    S2    D    
O8    S1    S    
C32   H2    S    
O5    Zn1   S    
C24   C25   D    
O1    Zn3   S    
C6    C11   A    
C13   H14   S    
C28   N1    S    
C18   C19   A    
H8    O8    S    
C30   H4    S    
C12   C26   A    
O19   Zn3   S    
H13   O11   S    
C29   C30   A    
C11   H16   S    
C27   H10   S    
C22   O5    A    
C31   C32   A    
C17   C18   A    
C9    N3    S    
C23   C28   A    
O1    Zn1   S    
C26   C30   A    
O17   Zn1   S    
C13   C15   A    
C10   H15   S    
C22   C24   S    
O12   Zn1   S    
C12   H1    S    
O16   Zn4   S    
C4    O15   A    
C18   H17   S    
O6    S1    D    
C21   C25   S    
N1    N2    D    
C4    O17   A    
C16   O12   A    
C3    C5    A    
O2    Zn2   S    
C4    C26   S    
C6    C7    A    
C6    C20   S    
C1    O16   A    
C2    C3    A    
O4    Zn3   S    
C27   H9    S    
C16   C17   S    
C23   H6    S    
O13   Zn4   S    
C10   C11   A    
C19   H18   S    
C24   S1    S    
C5    H7    S    
C8    C27   S    
C31   H3    S    
