data_mof_unit_13824.cif
_audit_creation_date              2012-12-10T17:58:20-0500
_audit_creation_method            fapswitch 2.2
_symmetry_space_group_name_H-M    P1
_symmetry_Int_Tables_number       1
_space_group_crystal_system       triclinic
_cell_length_a                    9.595683
_cell_length_b                    10.827981
_cell_length_c                    15.409075
_cell_angle_alpha                 87.17522
_cell_angle_beta                  73.40577
_cell_angle_gamma                 91.445666
_cell_volume                      1531.19410567

loop_
_atom_site_label
_atom_site_type_symbol
_atom_type_description
_atom_site_fract_x
_atom_site_fract_y
_atom_site_fract_z
_atom_type_partial_charge
C1    C     C_R   0.998767 0.262728 0.499439 0.827560
C2    C     C_R   0.001301 0.737534 0.500339 0.876267
C3    C     C_R   0.567010 0.557503 0.093519 -0.297237
C4    C     C_R   0.439852 0.430874 0.909196 -0.232846
C5    C     C_R   0.710233 0.598467 0.047739 0.489064
C6    C     C_R   0.296152 0.391242 0.954825 0.456748
C7    C     C_R   0.899882 0.058925 0.569902 0.443297
C8    C     C_R   0.106129 0.942401 0.433922 0.463502
C9    C     C_R   0.896285 0.928899 0.570042 -0.171474
C10   C     C_R   0.096789 0.071745 0.426984 -0.173972
C11   C     C_R   0.002436 0.871780 0.502578 -0.219773
C12   C     C_R   0.997169 0.128896 0.497687 -0.201924
C13   C     C_R   0.541676 0.422812 0.560255 0.067283
C14   C     C_R   0.458484 0.576765 0.439491 0.075224
C15   C     C_R   0.393853 0.424515 0.559644 0.012566
C16   C     C_R   0.606172 0.575471 0.440370 0.047515
C17   C     C_R   0.918433 0.507317 0.671889 0.756005
C18   C     C_R   0.081778 0.493806 0.327959 0.850571
C19   C     C_R   0.875864 0.527770 0.770041 -0.231669
C20   C     C_R   0.125141 0.472603 0.229850 -0.146172
C21   C     C_R   0.900483 0.635779 0.900982 0.490369
C22   C     C_R   0.102878 0.358737 0.100484 0.493252
C23   C     C_R   0.945294 0.621802 0.805965 -0.144924
C24   C     C_R   0.049044 0.384347 0.193434 -0.174611
C25   C     C_R   0.756945 0.458538 0.828039 -0.086598
C26   C     C_R   0.249314 0.536455 0.172719 -0.079171
C27   C     C_R   0.683942 0.505226 0.912340 -0.016233
C28   C     C_R   0.321924 0.486605 0.089739 -0.105470
C29   C     C_R   0.765552 0.581069 0.954037 0.008690
C30   C     C_R   0.239314 0.411643 0.047998 0.038446
C31   C     C_R   0.533378 0.479253 0.955943 0.094531
C32   C     C_R   0.472990 0.510641 0.046493 0.019223
Cu1   Cu    Cu3+1 0.140660 0.500020 0.500000 0.949627
Cu2   Cu    Cu3+1 0.859340 0.499980 0.500000 0.965372
H1    H     H_    0.528499 0.565378 0.166133 0.161953
H2    H     H_    0.478721 0.421345 0.836816 0.160039
H3    H     H_    0.311514 0.364427 0.606552 0.184543
H4    H     H_    0.688561 0.635454 0.393405 0.187832
N1    N     N_R   0.352080 0.500030 0.499980 -0.235895
N2    N     N_R   0.647920 0.499970 0.500020 -0.234260
O1    O     O_R   0.118740 0.319660 0.500000 -0.588804
O2    O     O_R   0.881260 0.680340 0.500000 -0.578854
O3    O     O_R   0.881170 0.319630 0.500010 -0.592308
O4    O     O_R   0.118830 0.680370 0.499990 -0.592597
O5    O     O_R   0.055570 0.500030 0.629830 -0.587492
O6    O     O_R   0.944430 0.499970 0.370170 -0.576356
O7    O     O_R   0.818000 0.500000 0.629840 -0.615849
O8    O     O_R   0.182000 0.500000 0.370160 -0.611126
O9    O     O_3   0.797095 0.653580 0.093902 -0.625430
H5    H     H_    0.741816 0.657199 0.158735 0.355848
O10   O     O_3   0.209199 0.336425 0.908568 -0.635745
H6    H     H_    0.265522 0.330132 0.844195 0.352771
C33   C     C_2   0.278898 0.668872 0.187035 0.432178
H7    H     H_    0.373492 0.720513 0.143754 0.114345
O11   O     O_2   0.190834 0.725630 0.242526 -0.478072
C34   C     C_2   0.732557 0.327705 0.808347 0.446764
H8    H     H_    0.788067 0.294568 0.743082 0.092767
O12   O     O_2   0.659941 0.253115 0.866848 -0.467599
C35   C     C_2   0.911841 0.322374 0.251466 0.415222
H9    H     H_    0.905252 0.285679 0.319334 0.076791
O13   O     O_2   0.803836 0.315031 0.224807 -0.496448
C36   C     C_2   0.057176 0.710135 0.745500 0.311439
H10   H     H_    0.129753 0.683081 0.682463 0.127564
O14   O     O_2   0.066944 0.817390 0.764899 -0.485490
O15   O     O_3   0.981694 0.708133 0.941639 -0.606748
H11   H     H_    0.085597 0.706572 0.906378 0.349585
O16   O     O_3   0.031014 0.275187 0.061527 -0.606791
H12   H     H_    0.980561 0.209857 0.107770 0.364847
O17   O     O_3   0.812539 0.120609 0.640171 -0.728371
H13   H     H_    0.795884 0.068970 0.697323 0.371270
O18   O     O_3   0.212870 0.882196 0.373187 -0.664453
H14   H     H_    0.302444 0.936309 0.354455 0.369406
C37   C     C_2   0.783839 0.852698 0.640480 0.455114
H15   H     H_    0.808902 0.762251 0.663960 0.054552
O19   O     O_2   0.660619 0.888455 0.670736 -0.478448
C38   C     C_2   0.182591 0.145998 0.343688 0.350812
H16   H     H_    0.209087 0.243302 0.345887 0.085780
O20   O     O_2   0.219362 0.100307 0.270073 -0.477152
C39   C     C_2   0.576074 0.334078 0.626690 0.380170
H17   H     H_    0.685227 0.319328 0.626855 0.176295
O21   O     O_2   0.479958 0.273665 0.683258 -0.549291
C40   C     C_2   0.424570 0.664039 0.372079 0.355145
H18   H     H_    0.315582 0.677417 0.370929 0.213828
O22   O     O_2   0.520826 0.724523 0.315651 -0.576316

loop_
_geom_bond_atom_site_label_1
_geom_bond_atom_site_label_2
_ccdc_geom_bond_type
C13   C39   S    
C27   C29   A    
Cu1   O5    S    
C37   H15   S    
Cu2   O2    S    
C25   C34   S    
C4    H2    S    
C33   H7    S    
Cu1   N1    S    
Cu2   N2    S    
C17   O5    A    
C8    C11   A    
C34   H8    S    
O9    H5    S    
C15   H3    S    
C13   N2    A    
C36   O14   D    
C14   N1    A    
C10   C38   S    
C1    O3    A    
C23   C36   S    
C20   C24   A    
C2    O4    A    
Cu2   O6    S    
C14   C16   A    
C6    O10   S    
C35   H9    S    
C37   O19   D    
C5    O9    S    
O17   H13   S    
C1    C12   S    
C9    C37   S    
C2    C11   S    
C18   O6    A    
C5    C29   A    
C33   O11   D    
C7    C12   A    
C35   O13   D    
C27   C31   A    
O16   H12   S    
C28   C32   A    
C38   H16   S    
C4    C6    A    
C39   O21   D    
C21   C29   A    
O10   H6    S    
C19   C23   A    
C36   H10   S    
C31   C32   A    
C3    H1    S    
Cu1   Cu2   S    
C9    C11   A    
C15   N1    A    
C10   C12   A    
C16   N2    A    
C1    O1    A    
C6    C30   A    
C40   H18   S    
C40   O22   D    
C13   C15   A    
C22   C24   A    
C14   C40   S    
C26   C33   S    
C7    C9    A    
C8    O18   S    
C22   C30   A    
C21   O15   S    
Cu1   O4    S    
Cu2   O3    S    
C17   O7    A    
C38   O20   D    
C3    C5    A    
C18   O8    A    
C7    O17   S    
C25   C27   A    
C26   C28   A    
Cu1   O1    S    
C21   C23   A    
O18   H14   S    
C20   C26   A    
C2    O2    A    
C24   C35   S    
C28   C30   A    
C17   C19   S    
C34   O12   D    
C18   C20   S    
C3    C32   A    
C19   C25   A    
C22   O16   S    
C4    C31   A    
C39   H17   S    
C8    C10   A    
O15   H11   S    
Cu1   O8    S    
Cu2   O7    S    
C16   H4    S    
