data_mof_unit_48461.cif
_audit_creation_date              2012-12-10T19:29:37-0500
_audit_creation_method            fapswitch 2.2
_symmetry_space_group_name_H-M    P1
_symmetry_Int_Tables_number       1
_space_group_crystal_system       triclinic
_cell_length_a                    22.280082
_cell_length_b                    22.282375
_cell_length_c                    14.943719
_cell_angle_alpha                 90.001412
_cell_angle_beta                  90.108055
_cell_angle_gamma                 89.999864
_cell_volume                      7418.84305752

loop_
_atom_site_label
_atom_site_type_symbol
_atom_type_description
_atom_site_fract_x
_atom_site_fract_y
_atom_site_fract_z
_atom_type_partial_charge
C1    C     C_R   0.418797 0.918789 0.499930 0.896129
C2    C     C_1   0.663058 0.836910 0.500257 0.171316
C3    C     C_3   0.156722 0.844117 0.630640 -0.269910
C4    C     C_3   0.761726 0.762129 0.264357 -0.270865
C5    C     C_3   0.259734 0.259436 0.736203 -0.272436
C6    C     C_3   0.257115 0.743312 0.736618 -0.270708
C7    C     C_3   0.758999 0.240697 0.263776 -0.271432
C8    C     C_3   0.240264 0.240565 0.263791 -0.272445
C9    C     C_3   0.738277 0.737869 0.735649 -0.270898
C10   C     C_3   0.741000 0.259301 0.736208 -0.271375
C11   C     C_3   0.242886 0.756691 0.263391 -0.270614
C12   C     C_3   0.557485 0.895399 0.074290 -0.359068
C13   C     C_1   0.663064 0.163086 0.500239 0.171414
C14   C     C_3   0.580218 0.848822 0.007595 -0.886831
C15   C     C_3   0.442510 0.104602 0.925698 -0.359079
C16   C     C_3   0.419776 0.151184 0.992382 -0.885416
C17   C     C_3   0.438127 0.897927 0.925685 -0.358446
C18   C     C_3   0.409061 0.855004 0.992343 -0.886181
C19   C     C_3   0.561867 0.102080 0.074306 -0.358526
C20   C     C_3   0.590931 0.145000 0.007642 -0.886435
C21   C     C_3   0.058554 0.395986 0.074279 -0.358875
C22   C     C_3   0.081587 0.349563 0.007580 -0.885456
C23   C     C_3   0.941449 0.604011 0.925729 -0.358851
C24   C     C_1   0.336930 0.836920 0.499748 0.171384
C25   C     C_3   0.918420 0.650432 0.992435 -0.886855
C26   C     C_3   0.939173 0.397293 0.925720 -0.358634
C27   C     C_3   0.910394 0.354194 0.992399 -0.886325
C28   C     C_3   0.060833 0.602700 0.074283 -0.358559
C29   C     C_3   0.089609 0.645801 0.007605 -0.886048
C30   C     C_1   0.836942 0.663091 0.499746 0.171316
C31   C     C_1   0.163084 0.336932 0.500237 0.171571
C32   C     C_1   0.163069 0.663081 0.500256 0.171382
C33   C     C_1   0.836936 0.336913 0.499752 0.171413
C34   C     C_1   0.500013 0.000002 0.189781 0.050388
C35   C     C_1   0.499985 1.000000 0.810218 0.050323
C36   C     C_1   0.000015 0.500000 0.189782 0.050260
C37   C     C_R   0.581201 0.081213 0.500069 0.896063
C38   C     C_1   0.999986 0.499998 0.810218 0.050311
C39   C     C_3   0.470170 0.951171 0.970240 0.144435
C40   C     C_3   0.529825 0.048833 0.029758 0.144503
C41   C     C_3   0.527378 0.949760 0.029751 0.144914
C42   C     C_3   0.472617 0.050244 0.970247 0.144664
C43   C     C_3   0.970662 0.450875 0.970242 0.144528
C44   C     C_3   0.029341 0.549120 0.029760 0.144458
C45   C     C_3   0.027879 0.450033 0.029756 0.144547
C46   C     C_3   0.972124 0.549962 0.970246 0.144798
C47   C     C_3   0.700040 0.727315 0.537523 0.326030
C48   C     C_R   0.581202 0.918789 0.500069 0.896100
C49   C     C_3   0.297659 0.270380 0.453875 0.326139
C50   C     C_3   0.298211 0.729058 0.455759 0.325908
C51   C     C_3   0.700462 0.272258 0.539284 0.326193
C52   C     C_3   0.202340 0.229619 0.546119 0.326140
C53   C     C_3   0.799961 0.772685 0.462481 0.326032
C54   C     C_3   0.799539 0.227741 0.460701 0.326193
C55   C     C_3   0.201788 0.770943 0.544249 0.325909
C56   C     C_3   0.227660 0.200393 0.460798 0.324464
C57   C     C_3   0.769951 0.797219 0.547694 0.324746
C58   C     C_3   0.770470 0.202263 0.546024 0.324931
C59   C     C_R   0.418793 0.081207 0.499932 0.896107
C60   C     C_3   0.228161 0.799111 0.458851 0.324388
C61   C     C_3   0.730050 0.702782 0.452310 0.324743
C62   C     C_3   0.272339 0.299606 0.539197 0.324462
C63   C     C_3   0.271838 0.700890 0.541156 0.324390
C64   C     C_3   0.729530 0.297737 0.453961 0.324933
C65   C     C_1   0.374458 0.125530 0.499803 -0.167646
C66   C     C_1   0.625523 0.874453 0.500203 -0.167711
C67   C     C_1   0.625526 0.125546 0.500200 -0.167792
C68   C     C_1   0.374470 0.874459 0.499796 -0.167596
C69   C     C_1   0.874478 0.625548 0.499798 -0.167714
C70   C     C_R   0.918799 0.418787 0.499931 0.896066
C71   C     C_1   0.125542 0.374469 0.500196 -0.167648
C72   C     C_1   0.125529 0.625542 0.500205 -0.167601
C73   C     C_1   0.874474 0.374454 0.499798 -0.167796
C74   C     C_3   0.265773 0.238120 0.585159 0.326762
C75   C     C_3   0.738889 0.766564 0.414967 0.326418
C76   C     C_3   0.737959 0.234381 0.414830 0.326424
C77   C     C_3   0.264737 0.762937 0.585229 0.326517
C78   C     C_3   0.761112 0.733436 0.585037 0.326424
C79   C     C_3   0.234226 0.261879 0.414836 0.326762
C80   C     C_3   0.235262 0.737064 0.414779 0.326499
C81   C     C_R   0.081202 0.581211 0.500070 0.896131
C82   C     C_3   0.762042 0.265618 0.585155 0.326410
C83   C     C_3   0.291613 0.208375 0.499832 -0.222553
C84   C     C_3   0.708367 0.791609 0.500185 -0.222608
C85   C     C_3   0.708374 0.208386 0.500159 -0.222595
C86   C     C_3   0.291622 0.791618 0.499824 -0.222631
C87   C     C_3   0.791634 0.708391 0.499819 -0.222609
C88   C     C_3   0.208386 0.291624 0.500163 -0.222552
C89   C     C_3   0.208377 0.708383 0.500184 -0.222628
C90   C     C_3   0.791626 0.291613 0.499827 -0.222591
C91   C     C_3   0.442797 0.001415 0.029521 0.148496
C92   C     C_R   0.081207 0.418793 0.500068 0.896110
C93   C     C_3   0.557199 0.998589 0.970477 0.148025
C94   C     C_3   0.942792 0.500842 0.029525 0.147980
C95   C     C_3   0.057211 0.499153 0.970476 0.148457
C96   C     C_3   0.500004 0.000003 0.089208 -0.163680
C97   C     C_3   0.499993 0.000000 0.910791 -0.163533
C98   C     C_3   0.000007 0.500000 0.089213 -0.163524
C99   C     C_3   0.999995 0.499996 0.910789 -0.163673
C100  C     C_3   0.619336 0.997469 0.926217 -0.365750
C101  C     C_3   0.671014 0.993809 0.993158 -0.882241
C102  C     C_3   0.380660 0.002537 0.073780 -0.365323
C103  C     C_R   0.918798 0.581211 0.499931 0.896100
C104  C     C_3   0.328981 0.006195 0.006841 -0.885286
C105  C     C_3   0.119361 0.498678 0.926239 -0.365257
C106  C     C_3   0.171054 0.495360 0.993191 -0.885261
C107  C     C_3   0.880640 0.501316 0.073758 -0.365685
C108  C     C_3   0.828950 0.504636 0.006801 -0.882228
C109  C     C_3   0.147792 0.148645 0.399167 -0.263765
C110  C     C_3   0.841239 0.840364 0.639895 -0.264378
C111  C     C_3   0.842874 0.158035 0.635101 -0.265872
C112  C     C_3   0.149005 0.850221 0.394070 -0.261975
C113  C     C_3   0.658762 0.659638 0.360110 -0.264380
C114  C     C_1   0.336915 0.163067 0.499759 0.171570
C115  C     C_3   0.352207 0.351355 0.600826 -0.263769
C116  C     C_3   0.350994 0.649780 0.605937 -0.261971
C117  C     C_3   0.657127 0.341965 0.364884 -0.265876
C118  C     C_3   0.647646 0.646855 0.595703 -0.270946
C119  C     C_3   0.341747 0.342618 0.364659 -0.271964
C120  C     C_3   0.343277 0.655885 0.369367 -0.269908
C121  C     C_3   0.648814 0.351999 0.601050 -0.272520
C122  C     C_3   0.158252 0.157381 0.635335 -0.271965
C123  C     C_3   0.852355 0.853146 0.404301 -0.270944
C124  C     C_3   0.851188 0.148002 0.398934 -0.272528
H1    H     H_    0.668384 0.030293 0.043244 0.264217
H2    H     H_    0.378084 0.041389 0.120064 0.203631
H3    H     H_    0.394321 0.186331 0.955801 0.250646
H4    H     H_    0.474888 0.126273 0.879539 0.203948
H5    H     H_    0.404453 0.088628 0.884056 0.209697
H6    H     H_    0.441965 0.838973 0.042500 0.263358
H7    H     H_    0.371013 0.876791 0.027054 0.262712
H8    H     H_    0.391262 0.815428 0.955776 0.250666
H9    H     H_    0.403220 0.915129 0.879250 0.206629
H10   H     H_    0.471006 0.872911 0.884334 0.206838
H11   H     H_    0.628987 0.123215 0.972946 0.262997
H12   H     H_    0.558031 0.161018 0.957471 0.263289
H13   H     H_    0.167878 0.531487 0.043778 0.264261
H14   H     H_    0.608720 0.184583 0.044200 0.250215
H15   H     H_    0.528989 0.127097 0.115656 0.206851
H16   H     H_    0.596776 0.084881 0.120741 0.206935
H17   H     H_    0.043838 0.326821 0.973284 0.264091
H18   H     H_    0.111294 0.370381 0.957072 0.262142
H19   H     H_    0.107740 0.314877 0.044042 0.250631
H20   H     H_    0.096537 0.412345 0.115741 0.209750
H21   H     H_    0.026462 0.374049 0.120603 0.203905
H22   H     H_    0.888706 0.629614 0.042933 0.262479
H23   H     H_    0.956169 0.673167 0.026740 0.263992
H24   H     H_    0.171846 0.451297 0.027363 0.264398
H25   H     H_    0.892273 0.685125 0.955978 0.250150
H26   H     H_    0.973540 0.625948 0.879402 0.203619
H27   H     H_    0.903464 0.587654 0.884271 0.210114
H28   H     H_    0.943261 0.338832 0.043077 0.263278
H29   H     H_    0.871851 0.375562 0.026478 0.262993
H30   H     H_    0.893351 0.314236 0.955962 0.250181
H31   H     H_    0.904181 0.414112 0.879113 0.206897
H32   H     H_    0.972349 0.372532 0.884559 0.206937
H33   H     H_    0.128148 0.624433 0.973518 0.262703
H34   H     H_    0.056739 0.661167 0.956932 0.263342
H35   H     H_    0.214189 0.500636 0.956968 0.249464
H36   H     H_    0.106656 0.685756 0.044044 0.250638
H37   H     H_    0.027659 0.627459 0.115453 0.206908
H38   H     H_    0.095828 0.585878 0.120882 0.206608
H39   H     H_    0.122306 0.459941 0.879790 0.203559
H40   H     H_    0.124209 0.539765 0.884945 0.206904
H41   H     H_    0.828152 0.548705 0.972649 0.264508
H42   H     H_    0.832136 0.468520 0.956198 0.264221
H43   H     H_    0.785814 0.499345 0.043017 0.250002
H44   H     H_    0.875790 0.460228 0.115050 0.207159
H45   H     H_    0.671202 0.949957 0.027940 0.264526
H46   H     H_    0.877693 0.540052 0.120208 0.203960
H47   H     H_    0.133868 0.192328 0.369582 0.187504
H48   H     H_    0.120323 0.138966 0.459216 0.193318
H49   H     H_    0.137779 0.113298 0.349062 0.168631
H50   H     H_    0.875026 0.816332 0.598433 0.187597
H51   H     H_    0.834037 0.815766 0.703439 0.192782
H52   H     H_    0.860505 0.884775 0.657207 0.168480
H53   H     H_    0.836659 0.182269 0.699190 0.192868
H54   H     H_    0.876238 0.182149 0.593005 0.187968
H55   H     H_    0.862119 0.113414 0.651223 0.168673
H56   H     H_    0.714201 0.998258 0.956821 0.250015
H57   H     H_    0.121098 0.861397 0.453089 0.193172
H58   H     H_    0.135049 0.805992 0.366355 0.186762
H59   H     H_    0.139659 0.884500 0.342068 0.167938
H60   H     H_    0.665963 0.684235 0.296565 0.192772
H61   H     H_    0.624976 0.683670 0.401571 0.187593
H62   H     H_    0.639495 0.615226 0.342799 0.168485
H63   H     H_    0.379675 0.361033 0.540777 0.193319
H64   H     H_    0.366131 0.307672 0.630412 0.187497
H65   H     H_    0.362220 0.386702 0.650931 0.168636
H66   H     H_    0.364951 0.694009 0.633652 0.186765
H67   H     H_    0.621912 0.958618 0.879930 0.204019
H68   H     H_    0.378901 0.638603 0.546919 0.193173
H69   H     H_    0.360340 0.615501 0.657939 0.167938
H70   H     H_    0.623762 0.317852 0.406980 0.187972
H71   H     H_    0.663342 0.317730 0.300795 0.192865
H72   H     H_    0.637883 0.386587 0.348760 0.168675
H73   H     H_    0.691207 0.632389 0.625234 0.187090
H74   H     H_    0.637999 0.620185 0.534740 0.193637
H75   H     H_    0.612132 0.636380 0.645205 0.166642
H76   H     H_    0.317798 0.376081 0.406807 0.187612
H77   H     H_    0.317317 0.336322 0.300668 0.193648
H78   H     H_    0.624557 0.038428 0.884747 0.207071
H79   H     H_    0.386349 0.361773 0.348346 0.167289
H80   H     H_    0.320274 0.661796 0.304129 0.193204
H81   H     H_    0.318146 0.623034 0.411068 0.187151
H82   H     H_    0.388028 0.636183 0.355579 0.166894
H83   H     H_    0.638973 0.379557 0.541046 0.193658
H84   H     H_    0.692575 0.365891 0.630523 0.187572
H85   H     H_    0.613591 0.361919 0.651266 0.167079
H86   H     H_    0.182683 0.163677 0.699325 0.193656
H87   H     H_    0.182199 0.123917 0.593186 0.187616
H88   H     H_    0.113650 0.138227 0.651649 0.167285
H89   H     H_    0.328789 0.050051 0.972068 0.264408
H90   H     H_    0.862003 0.879815 0.465264 0.193636
H91   H     H_    0.808794 0.867612 0.374771 0.187095
H92   H     H_    0.887868 0.863620 0.354797 0.166637
H93   H     H_    0.807429 0.134110 0.369458 0.187572
H94   H     H_    0.861027 0.120444 0.458938 0.193658
H95   H     H_    0.886413 0.138082 0.348720 0.167083
H96   H     H_    0.181852 0.876967 0.588937 0.187150
H97   H     H_    0.179727 0.838206 0.695877 0.193208
H98   H     H_    0.111971 0.863818 0.644430 0.166895
H99   H     H_    0.771336 0.713721 0.275920 0.187501
H100  H     H_    0.331615 0.969718 0.956746 0.264265
H101  H     H_    0.804389 0.787643 0.261600 0.193839
H102  H     H_    0.740108 0.765970 0.197684 0.166987
H103  H     H_    0.211293 0.268556 0.724024 0.188040
H104  H     H_    0.284703 0.302372 0.740234 0.194042
H105  H     H_    0.263427 0.237371 0.802511 0.167213
H106  H     H_    0.282670 0.700844 0.742939 0.193265
H107  H     H_    0.209016 0.733271 0.723036 0.187490
H108  H     H_    0.259404 0.766399 0.802289 0.167347
H109  H     H_    0.801910 0.215693 0.259615 0.194033
H110  H     H_    0.768201 0.289097 0.276076 0.187720
H111  H     H_    0.285795 0.001740 0.043177 0.249473
H112  H     H_    0.736787 0.237190 0.197492 0.167637
H113  H     H_    0.215296 0.197628 0.259760 0.194049
H114  H     H_    0.288706 0.231445 0.275968 0.188038
H115  H     H_    0.236570 0.262630 0.197483 0.167154
H116  H     H_    0.695613 0.712357 0.738404 0.193845
H117  H     H_    0.728668 0.786278 0.724088 0.187504
H118  H     H_    0.759895 0.734026 0.802321 0.166935
H119  H     H_    0.731794 0.210902 0.723903 0.187724
H120  H     H_    0.698090 0.284307 0.740371 0.194015
H121  H     H_    0.763212 0.262803 0.802492 0.167712
H122  H     H_    0.375438 0.961578 0.115254 0.206806
H123  H     H_    0.290984 0.766734 0.276977 0.187476
H124  H     H_    0.217328 0.799158 0.257066 0.193260
H125  H     H_    0.240601 0.733603 0.197720 0.167406
H126  H     H_    0.542351 0.826709 0.972684 0.263999
H127  H     H_    0.610508 0.869346 0.957600 0.262499
H128  H     H_    0.605679 0.813675 0.044166 0.250147
H129  H     H_    0.595542 0.911369 0.115936 0.210034
H130  H     H_    0.525107 0.873724 0.120443 0.203680
H131  H     H_    0.389479 0.130664 0.042372 0.262164
H132  H     H_    0.457641 0.173296 0.027301 0.264091
N1    N     N_1   0.500020 0.000000 0.268010 -0.086937
N2    N     N_1   0.499980 0.000000 0.731990 -0.086947
N3    N     N_1   0.000020 0.500000 0.268010 -0.086946
N4    N     N_1   0.999980 0.500000 0.731990 -0.086936
O1    O     O_R   0.438390 0.938390 0.574460 -0.607978
O2    O     O_R   0.561600 0.061610 0.574480 -0.607996
O3    O     O_R   0.561600 0.938390 0.574480 -0.608098
O4    O     O_R   0.438400 0.061610 0.425520 -0.608136
O5    O     O_R   0.938400 0.438390 0.425520 -0.607998
O6    O     O_R   0.061600 0.561610 0.574480 -0.608141
O7    O     O_R   0.061600 0.438390 0.574480 -0.608137
O8    O     O_R   0.938400 0.561610 0.425520 -0.608097
O9    O     O_3   0.209546 0.146179 0.419975 -0.601564
O10   O     O_3   0.786252 0.849616 0.594974 -0.601503
O11   O     O_3   0.787270 0.149359 0.591633 -0.601538
O12   O     O_R   0.561610 0.061610 0.425540 -0.607813
O13   O     O_3   0.210579 0.852792 0.416004 -0.601528
O14   O     O_3   0.713748 0.650385 0.405030 -0.601499
O15   O     O_3   0.290453 0.353820 0.580020 -0.601561
O16   O     O_3   0.289420 0.647209 0.584003 -0.601530
O17   O     O_3   0.712730 0.350641 0.408353 -0.601540
O18   O     O_3   0.645470 0.708845 0.576705 -0.601911
O19   O     O_3   0.350485 0.287089 0.408168 -0.601906
O20   O     O_3   0.351599 0.711771 0.412027 -0.601854
O21   O     O_3   0.646318 0.290287 0.580198 -0.601945
O22   O     O_3   0.149513 0.212910 0.591826 -0.601910
O23   O     O_R   0.561610 0.938390 0.425540 -0.607793
O24   O     O_3   0.854531 0.791156 0.423300 -0.601916
O25   O     O_3   0.853683 0.209713 0.419787 -0.601943
O26   O     O_3   0.148400 0.788230 0.587981 -0.601853
O27   O     O_3   0.722755 0.786994 0.328782 -0.602390
O28   O     O_3   0.285428 0.221233 0.671439 -0.602257
O29   O     O_3   0.283314 0.780922 0.671543 -0.602141
O30   O     O_3   0.720906 0.214888 0.328548 -0.602240
O31   O     O_3   0.214571 0.278767 0.328556 -0.602248
O32   O     O_3   0.777247 0.713006 0.671221 -0.602380
O33   O     O_3   0.779094 0.285110 0.671438 -0.602248
O34   O     O_R   0.438390 0.061610 0.574460 -0.607873
O35   O     O_3   0.216686 0.719080 0.328464 -0.602154
O36   O     O_R   0.938390 0.438390 0.574460 -0.607814
O37   O     O_R   0.061610 0.561610 0.425540 -0.607978
O38   O     O_R   0.061610 0.438390 0.425540 -0.607876
O39   O     O_R   0.938390 0.561610 0.574460 -0.607796
O40   O     O_R   0.438400 0.938390 0.425520 -0.608140
Zn1   Zn    Zn3+2 0.500000 0.000000 0.599450 0.988600
Zn2   Zn    Zn3+2 0.500000 0.000000 0.400550 0.988641
Zn3   Zn    Zn3+2 0.000000 0.500000 0.599450 0.988630
Zn4   Zn    Zn3+2 0.000000 0.500000 0.400550 0.988590

loop_
_geom_bond_atom_site_label_1
_geom_bond_atom_site_label_2
_ccdc_geom_bond_type
O36   Zn3   S    
C18   H8    S    
C19   C20   S    
C102  H122  S    
C74   C83   S    
C51   C85   S    
C39   C41   S    
C11   H125  S    
C56   C79   S    
C56   C83   S    
O3    Zn1   S    
C43   C99   S    
C58   C82   S    
C119  O19   S    
C109  H49   S    
C120  O20   S    
C113  H60   S    
C9    H118  S    
C1    C68   S    
C17   C39   S    
C36   N3    T    
C116  O16   S    
C109  O9    S    
C91   C96   S    
O7    Zn3   S    
C104  H111  S    
C37   O12   A    
C111  O11   S    
C40   C93   S    
C109  H48   S    
C124  O25   S    
C110  H50   S    
C116  H68   S    
C23   C46   S    
C123  H92   S    
C111  H55   S    
C83   C114  S    
C53   C75   S    
C39   C91   S    
C44   C46   S    
C51   C64   S    
C119  H76   S    
C112  O13   S    
C13   C67   T    
C42   C97   S    
O12   Zn2   S    
C118  O18   S    
C60   C86   S    
C14   H127  S    
C62   C88   S    
C28   C44   S    
C55   O26   S    
C34   N1    T    
C9    H116  S    
C105  H40   S    
C25   H23   S    
C4    H101  S    
C93   C100  S    
C10   O33   S    
C33   C73   T    
C3    H98   S    
C8    H114  S    
C17   H9    S    
C122  H88   S    
C18   H6    S    
C11   H124  S    
C30   C69   T    
C53   O24   S    
C108  H42   S    
C7    H112  S    
C49   C62   S    
C57   C78   S    
C10   H119  S    
C15   C42   S    
C34   C96   S    
C38   N4    T    
C29   H34   S    
C110  H52   S    
C123  O24   S    
C5    O28   S    
O37   Zn4   S    
C95   C99   S    
C115  H65   S    
C19   H15   S    
C123  H90   S    
C13   C85   S    
C111  H53   S    
C94   C98   S    
C121  H84   S    
C30   C87   S    
C76   C85   S    
C78   C87   S    
C3    O26   S    
C27   H28   S    
C6    H108  S    
C1    O40   A    
C9    H117  S    
C54   O25   S    
C11   O35   S    
C54   C90   S    
C52   C74   S    
C7    O30   S    
C75   C84   S    
C41   C96   S    
C106  H35   S    
C50   O20   S    
C43   C94   S    
C25   H25   S    
C37   O2    A    
O34   Zn1   S    
C61   C87   S    
C44   C98   S    
C71   C92   S    
C3    H96   S    
C101  H1    S    
C107  C108  S    
C122  H86   S    
C76   O30   S    
C27   H30   S    
C31   C71   T    
C7    H110  S    
C50   C63   S    
C22   H18   S    
C26   H31   S    
C121  O21   S    
C28   H37   S    
C29   H36   S    
C21   C45   S    
C69   C103  S    
C94   C107  S    
C4    O27   S    
C52   C88   S    
C110  O10   S    
C106  H13   S    
C5    H103  S    
C117  H71   S    
C115  H63   S    
C46   C94   S    
C113  H61   S    
C63   C89   S    
C17   C18   S    
C53   C87   S    
C20   H12   S    
C43   C45   S    
C6    H106  S    
C120  H80   S    
C1    O1    A    
C118  H74   S    
C93   C97   S    
O6    Zn3   S    
C124  H93   S    
C60   C80   S    
C12   H129  S    
C21   H20   S    
C2    C66   T    
C50   C80   S    
C112  H57   S    
C4    H99   S    
C48   O3    A    
C101  H56   S    
C59   C65   S    
C59   O34   A    
C37   C67   S    
C100  C101  S    
C16   H3    S    
C19   C40   S    
C75   O27   S    
C36   C98   S    
C47   C78   S    
C48   C66   S    
C21   C22   S    
C24   C86   S    
N4    Zn3   S    
C109  H47   S    
C8    O31   S    
C45   C95   S    
C46   C99   S    
C123  H91   S    
C2    C84   S    
C64   C90   S    
C32   C72   T    
C103  O39   A    
C26   C27   S    
C120  H81   S    
C28   C29   S    
C104  H89   S    
C45   C98   S    
C54   C58   S    
N1    Zn2   S    
C39   C97   S    
C14   H128  S    
C49   O19   S    
N3    Zn4   S    
C20   H14   S    
C80   C89   S    
C23   H27   S    
C100  H78   S    
C41   C93   S    
C105  H39   S    
C101  H45   S    
C25   H22   S    
C4    H102  S    
C72   C81   S    
C124  H95   S    
C3    H97   S    
C55   C60   S    
C35   N2    T    
C18   H7    S    
C40   C96   S    
C56   O9    S    
C79   C88   S    
C48   O23   A    
O40   Zn2   S    
C112  H59   S    
C10   H120  S    
C53   C57   S    
C29   H33   S    
C102  H2    S    
C110  H51   S    
C58   O11   S    
C49   C79   S    
C92   O38   A    
C21   H21   S    
C12   C41   S    
C80   O35   S    
C32   C89   S    
C15   H5    S    
C70   C73   S    
C57   C84   S    
C119  H79   S    
C10   H121  S    
C103  O8    A    
C122  O22   S    
O23   Zn2   S    
C23   H26   S    
C15   H4    S    
C121  H83   S    
C107  H44   S    
C31   C88   S    
C38   C99   S    
C82   O33   S    
C47   C61   S    
C9    O32   S    
C14   H126  S    
C105  C106  S    
C82   C90   S    
C49   C83   S    
C11   H123  S    
C55   C89   S    
C16   H132  S    
C57   O10   S    
C16   H131  S    
C62   O15   S    
C24   C68   T    
C63   O16   S    
O5    Zn4   S    
C17   H10   S    
C44   C95   S    
C122  H87   S    
C62   C74   S    
O39   Zn3   S    
C79   O31   S    
C107  H46   S    
C27   H29   S    
C108  H41   S    
C7    H109  S    
O2    Zn1   S    
C65   C114  T    
C26   H32   S    
C119  H77   S    
O8    Zn4   S    
C28   H38   S    
C8    H113  S    
C61   C75   S    
C77   O29   S    
C55   C77   S    
C15   C16   S    
C106  H24   S    
C42   C91   S    
C117  O17   S    
C117  H70   S    
C95   C105  S    
C92   O7    A    
C19   H16   S    
C22   H19   S    
C111  H54   S    
C121  H85   S    
C6    O29   S    
C6    H107  S    
C118  H75   S    
C26   C43   S    
N2    Zn1   S    
C124  H94   S    
C12   H130  S    
C60   O13   S    
C59   O4    A    
C112  H58   S    
C47   C84   S    
O1    Zn1   S    
C81   O37   A    
C74   O28   S    
C64   O17   S    
C61   O14   S    
C64   C76   S    
O38   Zn4   S    
C102  C104  S    
C51   C82   S    
C54   C76   S    
C116  H69   S    
C108  H43   S    
C12   C14   S    
C77   C86   S    
C70   O36   A    
C81   O6    A    
C5    H105  S    
C100  H67   S    
C91   C102  S    
C58   C85   S    
C70   O5    A    
C63   C77   S    
C8    H115  S    
C116  H66   S    
C113  O14   S    
C47   O18   S    
C78   O32   S    
C5    H104  S    
C120  H82   S    
C117  H72   S    
C33   C90   S    
C115  H64   S    
C113  H62   S    
C22   H17   S    
C40   C42   S    
C104  H100  S    
C23   C25   S    
C20   H11   S    
O4    Zn2   S    
C50   C86   S    
C52   O22   S    
C115  O15   S    
C51   O21   S    
C35   C97   S    
C118  H73   S    
C52   C56   S    
