data_mof_unit_6127.cif
_audit_creation_date              2012-12-10T18:58:39-0500
_audit_creation_method            fapswitch 2.2
_symmetry_space_group_name_H-M    P1
_symmetry_Int_Tables_number       1
_space_group_crystal_system       triclinic
_cell_length_a                    10.734484
_cell_length_b                    9.917711
_cell_length_c                    17.508339
_cell_angle_alpha                 89.761335
_cell_angle_beta                  91.538508
_cell_angle_gamma                 89.971475
_cell_volume                      1863.27574841

loop_
_atom_site_label
_atom_site_type_symbol
_atom_type_description
_atom_site_fract_x
_atom_site_fract_y
_atom_site_fract_z
_atom_type_partial_charge
C1    C     C_R   0.260104 0.500281 0.500831 0.836746
C2    C     C_R   0.739864 0.500278 0.498749 0.842261
C3    C     C_1   0.487609 0.492446 0.966090 -0.075427
C4    C     C_1   0.490508 0.493076 0.033892 -0.074613
C5    C     C_R   0.063600 0.379220 0.503469 -0.221001
C6    C     C_R   0.935918 0.624603 0.496833 -0.191419
C7    C     C_R   0.936457 0.379259 0.497973 -0.201006
C8    C     C_R   0.063824 0.624549 0.497900 -0.188729
C9    C     C_R   0.500796 0.499805 0.353987 0.845905
C10   C     C_R   0.498248 0.499394 0.646074 0.853220
C11   C     C_R   0.872424 0.501485 0.497203 -0.014100
C12   C     C_R   0.127498 0.501447 0.501286 -0.008169
C13   C     C_R   0.409192 0.580838 0.844882 -0.165824
C14   C     C_R   0.412060 0.412250 0.153800 -0.174194
C15   C     C_R   0.581769 0.574742 0.152880 -0.167070
C16   C     C_R   0.564649 0.402272 0.848467 -0.174495
C17   C     C_R   0.411912 0.582777 0.765721 -0.216138
C18   C     C_R   0.415084 0.413669 0.232938 -0.195421
C19   C     C_R   0.584696 0.576469 0.232123 -0.223247
C20   C     C_R   0.567398 0.404224 0.769430 -0.204466
C21   C     C_R   0.492991 0.496374 0.728203 -0.027786
C22   C     C_R   0.500066 0.497415 0.271885 -0.019769
C23   C     C_R   0.565070 0.072397 0.555339 0.300225
C24   C     C_R   0.445174 0.928832 0.440749 0.317509
C25   C     C_R   0.437183 0.072750 0.443893 0.314765
C26   C     C_R   0.556247 0.927585 0.558832 0.280785
C27   C     C_R   0.486440 0.491402 0.885684 0.167053
C28   C     C_R   0.494787 0.493475 0.114314 0.165865
H1    H     H_    0.350507 0.650379 0.733875 0.130799
H2    H     H_    0.350092 0.351583 0.263739 0.167027
H3    H     H_    0.652558 0.638673 0.262296 0.130217
H4    H     H_    0.628670 0.335784 0.740531 0.180061
H5    H     H_    0.111062 0.283602 0.509173 0.134463
H6    H     H_    0.887369 0.720431 0.495570 0.157946
H7    H     H_    0.888840 0.283772 0.495489 0.157517
H8    H     H_    0.112239 0.720330 0.496446 0.161219
N1    N     N_R   0.500000 0.857200 0.500000 -0.183790
N2    N     N_R   0.500000 0.142800 0.500000 -0.183231
O1    O     O_R   0.316770 0.614620 0.500000 -0.602318
O2    O     O_R   0.683230 0.385380 0.500000 -0.604214
O3    O     O_R   0.683230 0.614620 0.500000 -0.603716
O4    O     O_R   0.316770 0.385380 0.500000 -0.635773
O5    O     O_R   0.500010 0.614710 0.389120 -0.584424
O6    O     O_R   0.499990 0.385290 0.610880 -0.564822
O7    O     O_R   0.499990 0.614710 0.610880 -0.578274
O8    O     O_R   0.500010 0.385290 0.389120 -0.572775
Zn1   Zn    Zn3+2 0.500000 0.653120 0.500000 1.003694
Zn2   Zn    Zn3+2 0.500000 0.346880 0.500000 1.002155
H9    H     H_    0.347770 0.648944 0.874166 0.132421
H10   H     H_    0.345284 0.348749 0.123494 0.135133
H11   H     H_    0.646483 0.636707 0.121790 0.133296
H12   H     H_    0.623948 0.332539 0.880484 0.135358
O9    O     O_3   0.631943 0.144685 0.610217 -0.576627
C29   C     C_3   0.760030 0.112018 0.607921 0.147059
H13   H     H_    0.793378 0.111678 0.548358 0.107788
H14   H     H_    0.779670 0.011806 0.633717 0.182169
C30   C     C_3   0.834558 0.214291 0.654834 -0.869465
H15   H     H_    0.814802 0.201660 0.716378 0.236954
H16   H     H_    0.935786 0.198443 0.646839 0.211809
H17   H     H_    0.809392 0.318497 0.636987 0.270839
O10   O     O_3   0.390105 0.860222 0.380164 -0.564327
C31   C     C_3   0.459107 0.882530 0.313358 0.166473
H18   H     H_    0.550032 0.829319 0.318136 0.129980
H19   H     H_    0.478998 0.990661 0.302252 0.162317
C32   C     C_3   0.385599 0.829673 0.244145 -0.824703
H20   H     H_    0.303698 0.894859 0.231456 0.240049
H21   H     H_    0.445412 0.829833 0.193394 0.210119
H22   H     H_    0.352197 0.725724 0.254948 0.272016
O11   O     O_3   0.375337 0.143018 0.385944 -0.591004
C33   C     C_3   0.245597 0.145596 0.398302 0.195717
H23   H     H_    0.215557 0.252338 0.395063 0.165879
H24   H     H_    0.217451 0.103718 0.454607 0.091577
C34   C     C_3   0.174042 0.072916 0.334554 -0.897334
H25   H     H_    0.183791 0.962282 0.341158 0.288910
H26   H     H_    0.073405 0.097930 0.337359 0.204771
H27   H     H_    0.208125 0.105295 0.278026 0.255734
O12   O     O_3   0.612937 0.856247 0.618196 -0.577262
C35   C     C_3   0.552008 0.882818 0.687274 0.135041
H28   H     H_    0.459288 0.833508 0.686496 0.140179
H29   H     H_    0.537228 0.991838 0.698079 0.160549
C36   C     C_3   0.631123 0.827968 0.753822 -0.824171
H30   H     H_    0.579606 0.837138 0.807714 0.210291
H31   H     H_    0.654295 0.720418 0.744340 0.271971
H32   H     H_    0.719229 0.886171 0.759384 0.237275

loop_
_geom_bond_atom_site_label_1
_geom_bond_atom_site_label_2
_ccdc_geom_bond_type
C24   O10   S    
C17   H1    S    
C34   H25   S    
C14   C18   A    
C19   H3    S    
C36   H30   S    
C30   H15   S    
O9    C29   S    
C15   C19   A    
C35   H29   S    
C9    C22   S    
C30   H16   S    
C2    O3    A    
C8    H8    S    
C23   C26   A    
C31   H19   S    
C36   H31   S    
C32   H21   S    
C5    H5    S    
C33   H23   S    
C18   H2    S    
C15   H11   S    
N1    Zn1   S    
N2    Zn2   S    
C8    C12   A    
C16   C27   A    
C9    O8    A    
C34   H26   S    
O11   C33   S    
C1    C12   S    
C33   C34   S    
C2    C11   S    
C4    C28   S    
C23   O9    S    
O8    Zn2   S    
O7    Zn1   S    
C10   C21   S    
C29   H14   S    
C9    O5    A    
C26   O12   S    
C10   O6    A    
C19   C22   A    
C24   C25   A    
C5    C12   A    
C6    C11   A    
C5    C7    A    
C35   H28   S    
C30   H17   S    
C6    C8    A    
O12   C35   S    
C17   C21   A    
C6    H6    S    
C7    C11   A    
C31   H18   S    
C25   N2    A    
C16   C20   A    
C32   H22   S    
C10   O7    A    
C24   N1    A    
O3    Zn1   S    
O4    Zn2   S    
C13   H9    S    
C34   H27   S    
C25   O11   S    
C3    C4    T    
C36   H32   S    
O1    Zn1   S    
C20   H4    S    
O2    Zn2   S    
C29   H13   S    
C31   C32   S    
C18   C22   A    
C7    H7    S    
C16   H12   S    
C26   N1    A    
C23   N2    A    
C13   C17   A    
C3    C27   S    
C35   C36   S    
C15   C28   A    
C14   H10   S    
O10   C31   S    
C1    O1    A    
C2    O2    A    
C1    O4    A    
C20   C21   A    
C32   H20   S    
C13   C27   A    
C33   H24   S    
C14   C28   A    
O5    Zn1   S    
O6    Zn2   S    
C29   C30   S    
