data_mof_unit_20185.cif
_audit_creation_date              2012-12-10T17:48:17-0500
_audit_creation_method            fapswitch 2.2
_symmetry_space_group_name_H-M    P1
_symmetry_Int_Tables_number       1
_space_group_crystal_system       triclinic
_cell_length_a                    13.861573
_cell_length_b                    14.716127
_cell_length_c                    14.650675
_cell_angle_alpha                 114.965283
_cell_angle_beta                  106.087236
_cell_angle_gamma                 72.387616
_cell_volume                      2543.44252823

loop_
_atom_site_label
_atom_site_type_symbol
_atom_type_description
_atom_site_fract_x
_atom_site_fract_y
_atom_site_fract_z
_atom_type_partial_charge
C1    C     C_R   0.516835 0.118533 0.688376 0.804267
C2    C     C_R   0.480923 0.881684 0.311628 0.802916
C3    C     C_R   0.495710 0.360920 0.922156 0.075094
C4    C     C_R   0.461948 0.643200 0.075281 0.075198
C5    C     C_R   0.516648 0.320982 0.000453 0.114211
C6    C     C_R   0.428866 0.684599 0.997140 0.114107
C7    C     C_R   0.469537 0.469019 0.946226 0.078255
C8    C     C_R   0.475148 0.536096 0.050003 0.078789
C9    C     C_R   0.489468 0.494588 0.125108 -0.230059
C10   C     C_R   0.435035 0.512432 0.870017 -0.227569
C11   C     C_R   0.507996 0.389717 0.100497 -0.225891
C12   C     C_R   0.413501 0.617712 0.895133 -0.227473
C13   C     C_R   0.344322 0.286004 0.313920 0.341781
C14   C     C_R   0.657148 0.713816 0.685694 0.332485
C15   C     C_R   0.368432 0.205316 0.349030 -0.029977
C16   C     C_R   0.637451 0.791296 0.646819 -0.048785
C17   C     C_R   0.479812 0.290478 0.495333 -0.015362
C18   C     C_R   0.515134 0.712835 0.508597 -0.016216
C19   C     C_R   0.460455 0.374798 0.464506 -0.082826
C20   C     C_R   0.535158 0.628366 0.539242 -0.082128
C21   C     C_R   0.392289 0.370098 0.371082 0.071457
C22   C     C_R   0.606287 0.631436 0.630703 0.066025
C23   C     C_R   0.687014 0.986920 0.504063 0.818980
C24   C     C_R   0.312986 0.013092 0.495950 0.819834
C25   C     C_R   0.507927 0.461699 0.521348 0.109938
C26   C     C_R   0.486693 0.542157 0.483220 0.115750
C27   C     C_R   0.418912 0.533017 0.389568 -0.262399
C28   C     C_R   0.576047 0.470799 0.614863 -0.256800
C29   C     C_R   0.372894 0.449294 0.335256 -0.168589
C30   C     C_R   0.624591 0.553022 0.667416 -0.158172
C31   C     C_1   0.207440 0.020052 0.492575 -0.180996
C32   C     C_1   0.792566 0.980032 0.507521 -0.181576
C33   C     C_2   0.012606 0.031724 0.485745 -0.163113
C34   C     C_2   0.987401 0.968525 0.514510 -0.161582
C35   C     C_1   0.881578 0.974231 0.510832 0.003469
C36   C     C_1   0.118427 0.025941 0.489343 0.002539
C37   C     C_R   0.521829 0.185960 0.796654 -0.066524
C38   C     C_R   0.462896 0.815609 0.203127 -0.067605
C39   C     C_R   0.543073 0.213079 0.976046 0.012600
C40   C     C_R   0.409667 0.792308 0.023486 0.005761
C41   C     C_R   0.542308 0.146919 0.873568 -0.249931
C42   C     C_R   0.422676 0.856744 0.126711 -0.258354
C43   C     C_R   0.503201 0.291513 0.822032 -0.251935
C44   C     C_R   0.483863 0.709770 0.176762 -0.258076
Cu1   Cu    Cu3+1 0.526370 0.916390 0.524860 0.930406
Cu2   Cu    Cu3+1 0.473630 0.083610 0.475140 0.933758
H1    H     H_    0.045955 0.912416 0.540987 0.157717
H2    H     H_    0.954057 0.087832 0.459261 0.153056
H3    H     H_    0.400088 0.589194 0.354997 0.130603
H4    H     H_    0.594079 0.415221 0.650079 0.133059
H5    H     H_    0.515220 0.363365 0.161218 0.173351
H6    H     H_    0.384811 0.645919 0.833236 0.167182
H7    H     H_    0.519824 0.680229 0.236828 0.156293
H8    H     H_    0.496026 0.317922 0.761839 0.148838
H9    H     H_    0.403442 0.939151 0.147247 0.146875
H10   H     H_    0.559964 0.064631 0.854073 0.147656
H11   H     H_    0.482598 0.541835 0.203640 0.142328
H12   H     H_    0.419431 0.467510 0.789584 0.146663
H13   H     H_    0.321596 0.446947 0.263817 0.188656
H14   H     H_    0.676724 0.555034 0.738353 0.185528
H15   H     H_    0.457840 0.720092 0.443991 0.139192
H16   H     H_    0.533410 0.285712 0.562825 0.136687
H17   H     H_    0.677113 0.853987 0.685530 0.141085
H18   H     H_    0.336846 0.137697 0.304063 0.135284
N1    N     N_R   0.433980 0.209250 0.437830 -0.197253
N2    N     N_R   0.566020 0.790750 0.562170 -0.198998
O1    O     O_R   0.534760 0.019630 0.662610 -0.592329
O2    O     O_R   0.465240 0.980370 0.337390 -0.590896
O3    O     O_R   0.490220 0.160840 0.620610 -0.588012
O4    O     O_R   0.509780 0.839160 0.379390 -0.585206
O5    O     O_R   0.663260 0.919400 0.523940 -0.567506
O6    O     O_R   0.336740 0.080600 0.476060 -0.570419
O7    O     O_R   0.618720 0.060610 0.481950 -0.573668
O8    O     O_R   0.381280 0.939390 0.518050 -0.577048
O9    O     O_3   0.284101 0.278784 0.218863 -0.622277
C45   C     C_3   0.187123 0.258972 0.209175 0.044169
H19   H     H_    0.127032 0.321244 0.190288 0.166761
H20   H     H_    0.171835 0.259210 0.280231 0.120747
C46   C     C_3   0.175804 0.156892 0.121091 -0.329043
H21   H     H_    0.184832 0.160158 0.049547 0.230796
H22   H     H_    0.237018 0.093887 0.137166 0.204600
C47   C     C_3   0.071138 0.133434 0.105543 -0.941473
H23   H     H_    0.061743 0.126777 0.175207 0.259347
H24   H     H_    0.064950 0.059697 0.040377 0.251070
H25   H     H_    0.008557 0.195027 0.088303 0.259656
O10   O     O_3   0.731801 0.711777 0.771244 -0.620069
C48   C     C_3   0.719527 0.806087 0.855761 0.036459
H26   H     H_    0.713665 0.789545 0.921121 0.164366
H27   H     H_    0.648340 0.863740 0.844133 0.113990
C49   C     C_3   0.814512 0.851532 0.885094 -0.335631
H28   H     H_    0.883608 0.796811 0.905742 0.230743
H29   H     H_    0.825301 0.863531 0.818938 0.212714
C50   C     C_3   0.804759 0.953725 0.975360 -0.899140
H30   H     H_    0.739284 0.010942 0.954222 0.263048
H31   H     H_    0.876138 0.982896 0.996759 0.254332
H32   H     H_    0.792751 0.944100 0.042362 0.266117
C51   C     C_R   0.575716 0.166496 0.055166 0.089203
C52   C     C_R   0.529284 0.089987 0.046786 -0.130967
C53   C     C_R   0.563874 0.042353 0.118146 -0.130012
C54   C     C_R   0.643877 0.071315 0.199168 -0.107084
C55   C     C_R   0.691070 0.146711 0.207793 -0.129193
C56   C     C_R   0.658154 0.193248 0.135484 -0.162989
H33   H     H_    0.466843 0.066805 0.984740 0.146310
H34   H     H_    0.529389 0.982234 0.109986 0.136280
H35   H     H_    0.670055 0.034497 0.254530 0.136043
H36   H     H_    0.754019 0.168192 0.269776 0.130655
H37   H     H_    0.697280 0.249667 0.141713 0.134267
C57   C     C_R   0.377191 0.840340 0.945867 0.098108
C58   C     C_R   0.280863 0.907095 0.939751 -0.156986
C59   C     C_R   0.251153 0.954702 0.868465 -0.144518
C60   C     C_R   0.317441 0.936137 0.803014 -0.103111
C61   C     C_R   0.413550 0.869965 0.808786 -0.143954
C62   C     C_R   0.443745 0.822479 0.880236 -0.183356
H38   H     H_    0.228777 0.921674 0.989802 0.132863
H39   H     H_    0.176697 0.005936 0.863933 0.133283
H40   H     H_    0.294374 0.973006 0.747841 0.134651
H41   H     H_    0.464574 0.855811 0.758014 0.133379
H42   H     H_    0.518730 0.771945 0.884530 0.131444

loop_
_geom_bond_atom_site_label_1
_geom_bond_atom_site_label_2
_ccdc_geom_bond_type
C7    C10   A    
C48   H26   S    
C50   H30   S    
C27   C29   A    
C60   C61   A    
C45   C46   S    
C4    C8    A    
C51   C52   A    
C7    C8    A    
C39   C41   A    
Cu1   Cu2   S    
C25   C28   A    
Cu2   O2    S    
C3    C43   A    
C54   H35   S    
C55   C56   A    
C19   C21   A    
C45   H20   S    
C5    C11   A    
C2    O2    A    
C6    C12   A    
C61   H41   S    
C42   H9    S    
C39   C51   S    
Cu1   O5    S    
C52   H33   S    
C15   N1    A    
C33   C36   S    
C57   C58   A    
C18   C20   A    
C34   C35   S    
C59   C60   A    
Cu2   O3    S    
C17   C19   A    
C28   H4    S    
C44   H7    S    
C13   O9    S    
C8    C9    A    
C30   H14   S    
Cu1   O1    S    
C15   H18   S    
C60   H40   S    
C16   H17   S    
Cu2   O6    S    
C51   C56   A    
C1    C37   S    
C40   C57   S    
C40   C42   A    
C53   H34   S    
C50   H31   S    
C23   O7    A    
C61   C62   A    
C12   H6    S    
C32   C35   T    
C23   O5    A    
C6    C40   A    
C45   H19   S    
C14   O10   S    
Cu2   N1    S    
C4    C6    A    
C46   H22   S    
O10   C48   S    
C4    C44   A    
C25   C26   A    
C21   C29   A    
C1    O3    A    
C62   H42   S    
Cu1   O8    S    
C57   C62   A    
C37   C43   A    
O9    C45   S    
C41   H10   S    
C38   C44   A    
C17   H16   S    
C2    C38   S    
C43   H8    S    
C49   H29   S    
C53   C54   A    
C33   C34   D    
C26   C27   A    
C13   C21   A    
C56   H37   S    
C9    C11   A    
C10   C12   A    
C58   H38   S    
C20   C22   A    
C52   C53   A    
C50   H32   S    
C47   H24   S    
C48   H27   S    
C14   C16   A    
C16   N2    A    
C24   O6    A    
C49   C50   S    
C55   H36   S    
C5    C39   A    
C22   C30   A    
C10   H12   S    
Cu1   O4    S    
C17   N1    A    
C3    C5    A    
C46   C47   S    
C18   H15   S    
C38   C42   A    
C18   N2    A    
C47   H25   S    
C3    C7    A    
C23   C32   S    
C14   C22   A    
C13   C15   A    
C24   C31   S    
C58   C59   A    
C24   O8    A    
C49   H28   S    
C20   C26   A    
C28   C30   A    
C54   C55   A    
C1    O1    A    
C9    H11   S    
C37   C41   A    
C19   C25   A    
C11   H5    S    
C46   H21   S    
C47   H23   S    
C48   C49   S    
Cu1   N2    S    
C33   H2    S    
C29   H13   S    
C31   C36   T    
C34   H1    S    
C2    O4    A    
C59   H39   S    
Cu2   O7    S    
C27   H3    S    
