data_mof_unit_23534.cif
_audit_creation_date              2012-12-11T14:30:20-0500
_audit_creation_method            fapswitch 2.2
_symmetry_space_group_name_H-M    P1
_symmetry_Int_Tables_number       1
_space_group_crystal_system       triclinic
_cell_length_a                    12.613693
_cell_length_b                    12.613698
_cell_length_c                    27.167886
_cell_angle_alpha                 90.000077
_cell_angle_beta                  89.999913
_cell_angle_gamma                 120.000236
_cell_volume                      3743.43356925

loop_
_atom_site_label
_atom_site_type_symbol
_atom_type_description
_atom_site_fract_x
_atom_site_fract_y
_atom_site_fract_z
_atom_type_partial_charge
C1    C     C_R   0.557689 0.455941 0.822314 0.538374
C2    C     C_R   0.455941 0.557689 0.177686 0.538375
C3    C     C_R   0.005565 0.315247 0.474550 -0.122399
C4    C     C_R   0.309688 0.994446 0.025451 -0.122398
C5    C     C_R   0.684755 0.690317 0.474549 -0.122398
C6    C     C_R   0.315230 0.005530 0.525454 -0.122399
C7    C     C_R   0.994447 0.309690 0.974549 -0.122398
C8    C     C_R   0.690312 0.684759 0.525451 -0.122398
C9    C     C_R   0.315246 0.005562 0.974550 -0.122398
C10   C     C_R   0.994448 0.309690 0.525451 -0.122399
C11   C     C_R   0.690315 0.684757 0.974549 -0.122399
C12   C     C_1   0.036062 0.717728 0.130885 0.204114
C13   C     C_R   0.442310 0.898250 0.322314 0.538374
C14   C     C_1   0.681666 0.963937 0.369116 0.204112
C15   C     C_1   0.282264 0.318336 0.130884 0.204113
C16   C     C_1   0.036064 0.717730 0.369115 0.204110
C17   C     C_1   0.681661 0.963920 0.130883 0.204114
C18   C     C_1   0.282268 0.318334 0.369115 0.204114
C19   C     C_1   0.717740 0.036078 0.630884 0.204116
C20   C     C_1   0.963921 0.681662 0.869117 0.204114
C21   C     C_1   0.318338 0.282259 0.630883 0.204117
C22   C     C_1   0.717729 0.036062 0.869114 0.204115
C23   C     C_1   0.963927 0.681664 0.630884 0.204113
C24   C     C_R   0.101748 0.544059 0.177686 0.538374
C25   C     C_1   0.318335 0.282265 0.869116 0.204112
C26   C     C_R   0.993713 0.502726 0.974165 0.055064
C27   C     C_R   0.509007 0.006277 0.525837 0.055064
C28   C     C_R   0.497275 0.490987 0.974165 0.055064
C29   C     C_R   0.993714 0.502727 0.525835 0.055064
C30   C     C_R   0.509013 0.006288 0.974165 0.055064
C31   C     C_R   0.497276 0.490986 0.525835 0.055064
C32   C     C_R   0.502718 0.993700 0.474167 0.055064
C33   C     C_R   0.898252 0.442311 0.677686 0.538373
C34   C     C_R   0.006290 0.509014 0.025835 0.055064
C35   C     C_R   0.490988 0.497274 0.474164 0.055064
C36   C     C_R   0.502725 0.993711 0.025835 0.055064
C37   C     C_R   0.006291 0.509015 0.474165 0.055064
C38   C     C_R   0.490987 0.497275 0.025835 0.055064
C39   C     C_R   0.993705 0.695308 0.974498 -0.131011
C40   C     C_R   0.701602 0.006295 0.525503 -0.131011
C41   C     C_R   0.304690 0.298399 0.974497 -0.131012
C42   C     C_R   0.993707 0.695309 0.525503 -0.131011
C43   C     C_R   0.701598 0.006287 0.974496 -0.131011
C44   C     C_R   0.544059 0.101748 0.822314 0.538374
C45   C     C_R   0.304696 0.298393 0.525502 -0.131010
C46   C     C_R   0.695309 0.993711 0.474497 -0.131011
C47   C     C_R   0.006290 0.701600 0.025503 -0.131011
C48   C     C_R   0.298404 0.304686 0.474496 -0.131011
C49   C     C_R   0.695306 0.993702 0.025502 -0.131011
C50   C     C_R   0.006292 0.701601 0.474497 -0.131012
C51   C     C_R   0.298398 0.304692 0.025503 -0.131012
C52   C     C_R   0.968393 0.585115 0.896413 -0.030488
C53   C     C_R   0.616721 0.031604 0.603588 -0.030487
C54   C     C_R   0.414884 0.383280 0.896413 -0.030488
C55   C     C_R   0.557689 0.455940 0.677686 0.538374
C56   C     C_R   0.968394 0.585116 0.603587 -0.030488
C57   C     C_R   0.616718 0.031602 0.896412 -0.030488
C58   C     C_R   0.414886 0.383276 0.603586 -0.030487
C59   C     C_R   0.585113 0.968394 0.396414 -0.030489
C60   C     C_R   0.031603 0.616718 0.103587 -0.030488
C61   C     C_R   0.383282 0.414883 0.396412 -0.030489
C62   C     C_R   0.585114 0.968391 0.103586 -0.030488
C63   C     C_R   0.031604 0.616719 0.396413 -0.030488
C64   C     C_R   0.383279 0.414885 0.103587 -0.030488
C65   C     C_R   0.046786 0.525647 0.128032 -0.020938
C66   C     C_R   0.898252 0.442311 0.822314 0.538372
C67   C     C_R   0.478857 0.953208 0.371969 -0.020937
C68   C     C_R   0.474352 0.521138 0.128032 -0.020938
C69   C     C_R   0.046787 0.525647 0.371968 -0.020938
C70   C     C_R   0.478862 0.953213 0.128032 -0.020938
C71   C     C_R   0.474353 0.521138 0.371968 -0.020938
C72   C     C_R   0.525646 0.046781 0.628033 -0.020939
C73   C     C_R   0.953215 0.478863 0.871968 -0.020938
C74   C     C_R   0.521138 0.474351 0.628032 -0.020939
C75   C     C_R   0.525647 0.046786 0.871967 -0.020938
C76   C     C_R   0.953215 0.478863 0.628032 -0.020939
C77   C     C_R   0.544059 0.101747 0.677686 0.538373
C78   C     C_R   0.521138 0.474353 0.871968 -0.020938
C79   C     C_R   0.986571 0.595928 0.948012 0.006036
C80   C     C_R   0.609355 0.013425 0.551989 0.006036
C81   C     C_R   0.404071 0.390644 0.948012 0.006036
C82   C     C_R   0.986572 0.595929 0.551988 0.006036
C83   C     C_R   0.609354 0.013425 0.948011 0.006036
C84   C     C_R   0.404075 0.390640 0.551987 0.006036
C85   C     C_R   0.595925 0.986568 0.448012 0.006036
C86   C     C_R   0.013427 0.609355 0.051989 0.006036
C87   C     C_R   0.390647 0.404069 0.448011 0.006036
C88   C     C_R   0.455941 0.557689 0.322314 0.538374
C89   C     C_R   0.595927 0.986568 0.051988 0.006036
C90   C     C_R   0.013429 0.609356 0.448012 0.006037
C91   C     C_R   0.390643 0.404072 0.051988 0.006036
C92   C     C_R   0.970522 0.392884 0.898253 -0.137398
C93   C     C_R   0.422356 0.029466 0.601749 -0.137398
C94   C     C_R   0.607120 0.577638 0.898253 -0.137397
C95   C     C_R   0.970522 0.392883 0.601747 -0.137398
C96   C     C_R   0.422362 0.029484 0.898254 -0.137397
C97   C     C_R   0.607118 0.577639 0.601746 -0.137398
C98   C     C_R   0.392871 0.970502 0.398256 -0.137397
C99   C     C_R   0.442311 0.898251 0.177686 0.538374
C100  C     C_R   0.029484 0.422363 0.101746 -0.137398
C101  C     C_R   0.577638 0.607121 0.398253 -0.137396
C102  C     C_R   0.392883 0.970521 0.101747 -0.137397
C103  C     C_R   0.029485 0.422363 0.398254 -0.137397
C104  C     C_R   0.577638 0.607120 0.101747 -0.137397
C105  C     C_R   0.988045 0.402501 0.948806 0.009910
C106  C     C_R   0.414448 0.011940 0.551196 0.009910
C107  C     C_R   0.597502 0.585544 0.948806 0.009910
C108  C     C_R   0.988045 0.402501 0.551194 0.009909
C109  C     C_R   0.414457 0.011961 0.948807 0.009909
C110  C     C_R   0.101748 0.544059 0.322314 0.538374
C111  C     C_R   0.597502 0.585544 0.551193 0.009910
C112  C     C_R   0.402487 0.988022 0.448809 0.009909
C113  C     C_R   0.011962 0.414458 0.051193 0.009909
C114  C     C_R   0.585544 0.597503 0.448806 0.009909
C115  C     C_R   0.402499 0.988043 0.051194 0.009910
C116  C     C_R   0.011963 0.414459 0.448807 0.009909
C117  C     C_R   0.585544 0.597503 0.051193 0.009909
C118  C     C_R   0.005563 0.315247 0.025450 -0.122398
C119  C     C_R   0.309671 0.994413 0.474552 -0.122398
C120  C     C_R   0.684757 0.690315 0.025451 -0.122399
Cr1   Cr    Cr6+3 0.487630 0.241180 0.750000 1.086483
Cr2   Cr    Cr6+3 0.753550 0.512370 0.750000 1.086484
Cr3   Cr    Cr6+3 0.758820 0.246450 0.750000 1.086483
Cr4   Cr    Cr6+3 0.241180 0.487630 0.250000 1.086483
Cr5   Cr    Cr6+3 0.512370 0.753550 0.250000 1.086484
Cr6   Cr    Cr6+3 0.246450 0.758820 0.250000 1.086483
H1    H     H_    0.011432 0.780200 0.043856 0.117342
H2    H     H_    0.780198 0.011428 0.956143 0.117342
H3    H     H_    0.988564 0.768766 0.543855 0.117340
H4    H     H_    0.231232 0.219799 0.956145 0.117341
H5    H     H_    0.038061 0.350628 0.120063 0.161005
H6    H     H_    0.312557 0.961921 0.379939 0.161004
H7    H     H_    0.649374 0.687431 0.120064 0.161007
H8    H     H_    0.038061 0.350628 0.379936 0.161004
H9    H     H_    0.312573 0.961947 0.120065 0.161002
H10   H     H_    0.649373 0.687434 0.379936 0.161004
H11   H     H_    0.350618 0.038037 0.620067 0.161005
H12   H     H_    0.768770 0.988574 0.456145 0.117342
H13   H     H_    0.961949 0.312574 0.879935 0.161002
H14   H     H_    0.687428 0.649376 0.620065 0.161004
H15   H     H_    0.350628 0.038061 0.879936 0.161004
H16   H     H_    0.961948 0.312574 0.620065 0.161006
H17   H     H_    0.687431 0.649374 0.879936 0.161007
H18   H     H_    0.010398 0.242459 0.044663 0.111946
H19   H     H_    0.232045 0.989572 0.455340 0.111943
H20   H     H_    0.757545 0.767936 0.044664 0.111947
H21   H     H_    0.010400 0.242460 0.455337 0.111947
H22   H     H_    0.232067 0.989613 0.044664 0.111946
H23   H     H_    0.219797 0.231233 0.043855 0.117340
H24   H     H_    0.757542 0.767940 0.455337 0.111947
H25   H     H_    0.242440 0.010359 0.544667 0.111948
H26   H     H_    0.989615 0.232068 0.955335 0.111947
H27   H     H_    0.767933 0.757548 0.544664 0.111947
H28   H     H_    0.242459 0.010398 0.955337 0.111946
H29   H     H_    0.989615 0.232069 0.544664 0.111948
H30   H     H_    0.767937 0.757544 0.955336 0.111947
H31   H     H_    0.011435 0.780201 0.456145 0.117339
H32   H     H_    0.768764 0.988558 0.043853 0.117341
H33   H     H_    0.219805 0.231226 0.456144 0.117343
H34   H     H_    0.780206 0.011443 0.543855 0.117341
H35   H     H_    0.988562 0.768765 0.956146 0.117341
H36   H     H_    0.231239 0.219790 0.543854 0.117343
N1    N     N_1   0.039478 0.798399 0.152552 -0.273948
N2    N     N_1   0.798400 0.039480 0.847448 -0.273950
N3    N     N_1   0.960503 0.758915 0.652550 -0.273953
N4    N     N_1   0.241084 0.201591 0.847450 -0.273954
N5    N     N_1   0.758920 0.960522 0.347449 -0.273950
N6    N     N_1   0.201589 0.241085 0.152550 -0.273952
N7    N     N_1   0.039480 0.798400 0.347448 -0.273951
N8    N     N_1   0.758910 0.960492 0.152548 -0.273951
N9    N     N_1   0.201595 0.241082 0.347448 -0.273949
N10   N     N_1   0.798418 0.039508 0.652549 -0.273953
N11   N     N_1   0.960494 0.758911 0.847451 -0.273952
N12   N     N_1   0.241088 0.201583 0.652549 -0.273952
O1    O     O_R   0.460870 0.120930 0.805240 -0.503250
O2    O     O_R   0.120930 0.460870 0.194760 -0.503249
O3    O     O_R   0.539130 0.660060 0.305240 -0.503251
O4    O     O_R   0.339940 0.879070 0.194760 -0.503250
O5    O     O_R   0.498910 0.350470 0.801870 -0.483684
O6    O     O_R   0.851560 0.501090 0.698130 -0.483684
O7    O     O_R   0.649530 0.148440 0.801870 -0.483684
O8    O     O_R   0.498910 0.350470 0.698130 -0.483683
O9    O     O_R   0.851560 0.501090 0.801870 -0.483684
O10   O     O_R   0.649530 0.148440 0.698130 -0.483684
O11   O     O_R   0.350470 0.498910 0.301870 -0.483684
O12   O     O_R   0.660060 0.539130 0.694760 -0.503249
O13   O     O_R   0.501090 0.851560 0.198130 -0.483683
O14   O     O_R   0.148440 0.649530 0.301870 -0.483684
O15   O     O_R   0.350470 0.498910 0.198130 -0.483684
O16   O     O_R   0.501090 0.851560 0.301870 -0.483684
O17   O     O_R   0.148440 0.649530 0.198130 -0.483683
O18   O     O_3   0.666667 0.333333 0.750000 -0.263487
O19   O     O_3   0.333333 0.666667 0.250000 -0.263488
O20   O     O_R   0.879070 0.339940 0.805240 -0.503250
O21   O     O_R   0.460870 0.120930 0.694760 -0.503248
O22   O     O_R   0.660060 0.539130 0.805240 -0.503248
O23   O     O_R   0.879070 0.339940 0.694760 -0.503248
O24   O     O_R   0.120930 0.460870 0.305240 -0.503250
O25   O     O_R   0.539130 0.660060 0.194760 -0.503248
O26   O     O_R   0.339940 0.879070 0.305240 -0.503251

loop_
_geom_bond_atom_site_label_1
_geom_bond_atom_site_label_2
_ccdc_geom_bond_type
C36   C89   A    
C66   O9    A    
C3    H21   S    
C56   C76   A    
C13   O26   A    
C5    C114  A    
C110  O24   A    
C43   C83   A    
C4    C115  A    
C10   C108  A    
C42   C82   A    
C44   O1    A    
C22   C57   S    
C99   O13   A    
C42   H3    S    
C100  H5    S    
C88   O3    A    
Cr1   O5    S    
C37   C116  A    
C18   N9    T    
C34   C113  A    
Cr2   O6    S    
C14   C59   S    
C110  O14   A    
C33   O23   A    
Cr3   O10   S    
C37   C90   A    
C94   H17   S    
C64   C68   A    
C103  H8    S    
C2    C68   S    
C3    C116  A    
C76   C95   A    
C41   H4    S    
C97   C111  A    
Cr2   O12   S    
C40   C80   A    
C28   C107  A    
C101  C114  A    
C4    H22   S    
C62   C89   A    
Cr4   O24   S    
C120  H20   S    
C77   O10   A    
C62   C70   A    
C35   C114  A    
C34   C86   A    
C55   O12   A    
C30   C83   A    
C102  H9    S    
C102  C115  A    
C61   C87   A    
C67   C98   A    
C51   C91   A    
C96   H15   S    
C23   N3    T    
C38   C117  A    
C35   C87   A    
C16   N7    T    
C50   C90   A    
C63   C69   A    
Cr4   O19   S    
C15   C64   S    
C7    C105  A    
C29   C108  A    
Cr5   O16   S    
C16   C63   S    
Cr5   O19   S    
C39   H35   S    
C52   C79   A    
C53   C72   A    
C97   H14   S    
C46   H12   S    
C46   C85   A    
C59   C67   A    
C61   C71   A    
C71   C101  A    
C33   O6    A    
C1    C78   S    
C55   C74   S    
C7    C118  A    
Cr1   O18   S    
C11   C120  A    
C26   C105  A    
Cr4   O15   S    
C66   O20   A    
C26   C34   A    
C75   C96   A    
C74   C97   A    
C69   C103  A    
C50   H31   S    
C9    C109  A    
C48   H33   S    
C94   C107  A    
C98   C112  A    
C104  H7    S    
C30   C109  A    
C2    O25   A    
C47   C86   A    
C23   C56   S    
C53   C80   A    
C27   C32   A    
C19   N10   T    
C65   C100  A    
C99   O4    A    
C52   C73   A    
C117  C120  A    
Cr2   O22   S    
C60   C86   A    
C17   N8    T    
C43   C49   A    
C27   C106  A    
C66   C73   S    
C38   C91   A    
C31   C84   A    
C71   C88   S    
C5    H24   S    
C39   C79   A    
C43   H2    S    
C44   C75   S    
C40   C46   A    
C45   H36   S    
C59   C85   A    
C72   C77   S    
C2    O15   A    
C58   C84   A    
C17   C62   S    
C5    C8    A    
C22   N2    T    
C69   C110  S    
C33   C76   S    
C20   N11   T    
C28   C38   A    
C41   C81   A    
C1    O22   A    
C57   C83   A    
C6    C106  A    
C48   C87   A    
Cr3   O20   S    
C25   C54   S    
Cr2   O18   S    
C8    H27   S    
Cr5   O25   S    
C92   H13   S    
C24   C65   S    
C42   C50   A    
C6    H25   S    
C11   H30   S    
C101  H10   S    
Cr2   O9    S    
C60   C65   A    
C27   C80   A    
C93   C106  A    
Cr5   O3    S    
C31   C35   A    
C15   N6    T    
C8    C111  A    
C45   C84   A    
C72   C93   A    
C29   C37   A    
C24   O2    A    
C6    C119  A    
C70   C99   S    
C58   C74   A    
C39   C47   A    
C104  C117  A    
C13   C67   S    
C45   C48   A    
Cr6   O26   S    
C88   O11   A    
C32   C112  A    
C28   C81   A    
Cr3   O23   S    
Cr3   O18   S    
C100  C113  A    
C68   C104  A    
C73   C92   A    
C49   C89   A    
C10   H29   S    
C9    H28   S    
C112  C119  A    
C70   C102  A    
C18   C61   S    
C56   C82   A    
Cr4   O2    S    
C25   N4    T    
C119  H19   S    
C96   C109  A    
C118  H18   S    
C26   C79   A    
C30   C36   A    
Cr5   O13   S    
C57   C75   A    
Cr6   O14   S    
C103  C116  A    
C14   N5    T    
C29   C82   A    
C20   C52   S    
C3    C10   A    
C12   N1    T    
C11   C107  A    
C7    H26   S    
C1    O5    A    
Cr6   O19   S    
C19   C53   S    
Cr1   O1    S    
C47   H1    S    
C78   C94   A    
C32   C85   A    
C63   C90   A    
C55   O8    A    
C41   C51   A    
Cr6   O4    S    
C24   O17   A    
C40   H34   S    
C77   O21   A    
Cr6   O17   S    
C49   H32   S    
C93   H11   S    
C95   C108  A    
C13   O16   A    
C113  C118  A    
C12   C60   S    
C92   C105  A    
C21   C58   S    
C51   H23   S    
C95   H16   S    
Cr3   O7    S    
C21   N12   T    
C98   H6    S    
C31   C111  A    
Cr4   O11   S    
C64   C91   A    
C4    C9    A    
C36   C115  A    
C44   O7    A    
Cr1   O21   S    
C54   C81   A    
Cr1   O8    S    
C54   C78   A    
