data_mof_unit_10783.cif
_audit_creation_date              2013-03-05T15:44:29-0500
_audit_creation_method            fapswitch 2.2
_symmetry_space_group_name_H-M    P1
_symmetry_Int_Tables_number       1
_space_group_crystal_system       triclinic
_cell_length_a                    20.130357
_cell_length_b                    7.200599
_cell_length_c                    19.611055
_cell_angle_alpha                 90.166689
_cell_angle_beta                  98.369231
_cell_angle_gamma                 89.150385
_cell_volume                      2812.05250098

loop_
_atom_site_label
_atom_site_type_symbol
_atom_site_description
_atom_site_fract_x
_atom_site_fract_y
_atom_site_fract_z
_atom_type_partial_charge
O1    O     O_R   0.673210 0.377390 0.686390 -0.523605
O2    O     O_R   0.326790 0.622610 0.313610 -0.523605
O3    O     O_R   0.826790 0.877390 0.813610 -0.542828
O4    O     O_R   0.173210 0.122610 0.186390 -0.542825
O5    O     O_R   0.810750 0.706450 0.681250 -0.526177
O6    O     O_R   0.189250 0.293550 0.318750 -0.526178
O7    O     O_R   0.689250 0.206450 0.818750 -0.521135
O8    O     O_R   0.310750 0.793550 0.181250 -0.521134
C1    C     C_R   0.831579 0.536655 0.665847 0.852088
C2    C     C_R   0.168420 0.463345 0.334153 0.852089
C3    C     C_R   0.667915 0.039821 0.833550 0.850495
C4    C     C_R   0.332084 0.960179 0.166450 0.850497
O9    O     O_R   0.672750 0.707060 0.678240 -0.567431
O10   O     O_R   0.327250 0.292940 0.321760 -0.567432
O11   O     O_R   0.827250 0.207060 0.821760 -0.574338
O12   O     O_R   0.172750 0.792940 0.178240 -0.574339
O13   O     O_R   0.687800 0.877990 0.810580 -0.561019
O14   O     O_R   0.312200 0.122010 0.189420 -0.561017
O15   O     O_R   0.812200 0.377990 0.689420 -0.578160
O16   O     O_R   0.187800 0.622010 0.310580 -0.578165
C5    C     C_R   0.648107 0.540188 0.662027 0.851806
C6    C     C_R   0.351892 0.459813 0.337973 0.851808
C7    C     C_R   0.852272 0.037385 0.838115 0.834478
C8    C     C_R   0.147728 0.962614 0.161885 0.834477
O17   O     O_3   0.755100 0.544060 0.793420 -0.290222
O18   O     O_3   0.244900 0.455940 0.206580 -0.290220
O19   O     O_3   0.744900 0.044060 0.706580 -0.287436
O20   O     O_3   0.255100 0.955940 0.293420 -0.287442
V1    V     V_3+5 0.749050 0.818670 0.741950 1.178438
V2    V     V_3+5 0.250950 0.181330 0.258050 1.178430
V3    V     V_3+5 0.750950 0.318670 0.758050 1.173642
V4    V     V_3+5 0.249050 0.681330 0.241950 1.173636
C9    C     C_R   0.083750 0.970800 0.111573 -0.096938
C10   C     C_R   0.916249 0.029199 0.888428 -0.096939
C11   C     C_R   0.413351 0.461322 0.390816 -0.082292
C12   C     C_R   0.586648 0.538679 0.609185 -0.082291
C13   C     C_R   0.023557 0.169160 0.935411 0.355180
C14   C     C_R   0.976443 0.830837 0.064590 0.355178
C15   C     C_R   0.475089 0.665739 0.566105 0.379932
C16   C     C_R   0.524908 0.334258 0.433898 0.379926
C17   C     C_R   0.968350 0.155076 0.882028 -0.072890
C18   C     C_R   0.031650 0.844923 0.117972 -0.072891
C19   C     C_R   0.529131 0.643263 0.620277 -0.064649
C20   C     C_R   0.470867 0.356735 0.379725 -0.064655
C21   C     C_R   0.926875 0.895970 0.942451 0.016065
C22   C     C_R   0.073124 0.104029 0.057550 0.016065
C23   C     C_R   0.588253 0.453122 0.544199 0.025938
C24   C     C_R   0.411745 0.546880 0.455802 0.025934
C25   C     C_R   0.975822 0.929791 0.001599 -0.030868
C26   C     C_R   0.024178 0.070207 0.998402 -0.030869
C27   C     C_R   0.528525 0.445278 0.494647 -0.019165
C28   C     C_R   0.471472 0.554722 0.505355 -0.019168
C29   C     C_R   0.557676 0.134296 0.871537 0.324199
C30   C     C_R   0.442323 0.865704 0.128463 0.324200
C31   C     C_R   0.940428 0.634335 0.628063 0.317014
C32   C     C_R   0.059571 0.365672 0.371939 0.317026
C33   C     C_R   0.618823 0.032609 0.883596 -0.174728
C34   C     C_R   0.381177 0.967391 0.116404 -0.174728
C35   C     C_R   0.882900 0.521165 0.618147 -0.185411
C36   C     C_R   0.117101 0.478840 0.381853 -0.185427
C37   C     C_R   0.632335 0.918778 0.942715 -0.004582
C38   C     C_R   0.367664 0.081222 0.057285 -0.004583
C39   C     C_R   0.876304 0.389331 0.563656 -0.019564
C40   C     C_R   0.123695 0.610688 0.436341 -0.019569
C41   C     C_R   0.580409 0.884500 0.983205 0.083678
C42   C     C_R   0.419591 0.115500 0.016795 0.083678
C43   C     C_R   0.915585 0.408903 0.509812 0.050724
C44   C     C_R   0.084413 0.591125 0.490185 0.050728
C45   C     C_R   0.523802 0.006399 0.976658 -0.037562
C46   C     C_R   0.476197 0.993601 0.023342 -0.037562
C47   C     C_R   0.976777 0.504451 0.523833 -0.038676
C48   C     C_R   0.023222 0.495576 0.476165 -0.038684
C49   C     C_R   0.514134 0.138826 0.922581 -0.088797
C50   C     C_R   0.485866 0.861174 0.077419 -0.088797
C51   C     C_R   0.991575 0.607958 0.585685 -0.080197
C52   C     C_R   0.008422 0.392070 0.414313 -0.080180
C53   C     C_R   0.582347 0.730701 0.028847 -0.004598
C54   C     C_R   0.417653 0.269299 0.971153 -0.004599
C55   C     C_R   0.895366 0.338270 0.442389 -0.054401
C56   C     C_R   0.104630 0.661782 0.557605 -0.054386
C57   C     C_R   0.537845 0.725375 0.078237 0.363308
C58   C     C_R   0.462155 0.274625 0.921763 0.363309
C59   C     C_R   0.942435 0.323794 0.395719 0.363716
C60   C     C_R   0.057560 0.676265 0.604274 0.363700
C61   C     C_3   0.105666 0.292457 0.068894 -0.233222
H1    H     H_    0.079058 0.401563 0.035352 0.131944
H2    H     H_    0.101189 0.344121 0.121350 0.141420
H3    H     H_    0.159254 0.284178 0.061793 0.130714
C62   C     C_3   0.894333 0.707543 0.931107 -0.233224
H4    H     H_    0.920941 0.598436 0.964648 0.131944
H5    H     H_    0.840745 0.715823 0.938208 0.130713
H6    H     H_    0.898810 0.655878 0.878650 0.141423
C63   C     C_3   0.344132 0.603558 0.475153 -0.282909
H7    H     H_    0.342117 0.575138 0.530343 0.157751
H8    H     H_    0.333815 0.752403 0.463048 0.166657
H9    H     H_    0.302815 0.519742 0.447607 0.043343
C64   C     C_3   0.655865 0.396448 0.524847 -0.282913
H10   H     H_    0.657878 0.424859 0.469655 0.157750
H11   H     H_    0.697181 0.480275 0.552389 0.043347
H12   H     H_    0.666185 0.247606 0.536955 0.166657
C65   C     C_3   0.029851 0.741183 0.185005 -0.170761
H13   H     H_    0.980276 0.761554 0.202634 0.203976
H14   H     H_    0.039007 0.590925 0.177265 0.146142
H15   H     H_    0.066933 0.791156 0.228208 0.123808
C66   C     C_3   0.970149 0.258817 0.814996 -0.170773
H16   H     H_    0.019724 0.238443 0.797366 0.203973
H17   H     H_    0.933066 0.208849 0.771794 0.123826
H18   H     H_    0.960995 0.409075 0.822737 0.146148
C67   C     C_3   0.474724 0.259008 0.311665 -0.171102
H19   H     H_    0.520926 0.301009 0.291391 0.203658
H20   H     H_    0.475516 0.106277 0.319343 0.165404
H21   H     H_    0.432830 0.294109 0.270491 0.125050
C68   C     C_3   0.525274 0.740989 0.688338 -0.171101
H22   H     H_    0.479074 0.698983 0.708613 0.203660
H23   H     H_    0.567170 0.705894 0.729510 0.125047
H24   H     H_    0.524481 0.893720 0.680659 0.165407
N1    N     N_R   0.082264 0.266281 0.922004 0.074349
O21   O     O_R   0.078202 0.440007 0.903459 -0.340414
O22   O     O_R   0.139815 0.179017 0.926774 -0.339301
N2    N     N_R   0.917736 0.733715 0.077997 0.074349
O23   O     O_R   0.860185 0.820977 0.073227 -0.339300
O24   O     O_R   0.921799 0.559989 0.096542 -0.340407
N3    N     N_R   0.429243 0.819544 0.569267 0.068290
O25   O     O_R   0.429016 0.957039 0.526319 -0.339494
O26   O     O_R   0.390542 0.828209 0.616905 -0.344753
N4    N     N_R   0.570753 0.180448 0.430738 0.068293
O27   O     O_R   0.609453 0.171771 0.383100 -0.344755
O28   O     O_R   0.570981 0.042964 0.473691 -0.339495
N5    N     N_R   0.536292 0.214062 0.804717 0.094568
O29   O     O_R   0.568409 0.351670 0.782673 -0.341080
O30   O     O_R   0.480945 0.158767 0.768169 -0.304715
N6    N     N_R   0.463708 0.785940 0.195283 0.094569
O31   O     O_R   0.431591 0.648333 0.217328 -0.341079
O32   O     O_R   0.519056 0.841236 0.231830 -0.304715
N7    N     N_R   0.947068 0.773535 0.681229 0.107033
O33   O     O_R   0.957790 0.945266 0.666124 -0.371676
O34   O     O_R   0.944948 0.728336 0.745063 -0.353530
N8    N     N_R   0.052932 0.226448 0.318781 0.107019
O35   O     O_R   0.055066 0.271612 0.254947 -0.353516
O36   O     O_R   0.042176 0.054743 0.333890 -0.371677
C69   C     C_3   0.704353 0.857487 0.966565 -0.331476
H25   H     H_    0.713034 0.823457 0.022258 0.170310
H26   H     H_    0.718043 0.736739 0.935960 0.130368
H27   H     H_    0.739083 0.972615 0.960224 0.108899
C70   C     C_3   0.295647 0.142512 0.033435 -0.331475
H28   H     H_    0.286966 0.176542 0.977742 0.170310
H29   H     H_    0.260917 0.027384 0.039776 0.108900
H30   H     H_    0.281956 0.263260 0.064040 0.130368
C71   C     C_3   0.836308 0.214051 0.568161 -0.287641
H31   H     H_    0.844626 0.109933 0.528463 0.113250
H32   H     H_    0.853247 0.142974 0.617794 0.188988
H33   H     H_    0.782214 0.246770 0.564041 0.095641
C72   C     C_3   0.163686 0.785974 0.431829 -0.287623
H34   H     H_    0.155366 0.890101 0.471523 0.113245
H35   H     H_    0.217781 0.753265 0.435949 0.095649
H36   H     H_    0.146744 0.857037 0.382193 0.188976
C73   C     C_3   0.622299 0.555227 0.017894 -0.290965
H37   H     H_    0.635559 0.546776 0.965087 0.130986
H38   H     H_    0.668223 0.545830 0.056660 0.163416
H39   H     H_    0.591652 0.430144 0.022596 0.141244
C74   C     C_3   0.377701 0.444773 0.982105 -0.290965
H40   H     H_    0.331777 0.454170 0.943340 0.163416
H41   H     H_    0.364441 0.453223 0.034912 0.130986
H42   H     H_    0.408347 0.569855 0.977404 0.141245
C75   C     C_3   0.821744 0.308200 0.415151 -0.269396
H43   H     H_    0.811604 0.157674 0.408457 0.163462
H44   H     H_    0.787813 0.370036 0.449049 0.100581
H45   H     H_    0.808086 0.378685 0.364658 0.181729
C76   C     C_3   0.178250 0.691882 0.584843 -0.269400
H46   H     H_    0.212184 0.630048 0.550949 0.100586
H47   H     H_    0.188382 0.842414 0.591532 0.163452
H48   H     H_    0.191910 0.621414 0.635339 0.181734
N9    N     N_R   0.541551 0.569335 0.124224 0.112067
O37   O     O_R   0.493362 0.449358 0.117898 -0.374080
O38   O     O_R   0.596845 0.533022 0.165501 -0.284635
N10   N     N_R   0.458449 0.430665 0.875776 0.112067
O39   O     O_R   0.403155 0.466977 0.834498 -0.284633
O40   O     O_R   0.506637 0.550643 0.882102 -0.374082
N11   N     N_R   0.919941 0.262501 0.326528 0.121884
O41   O     O_R   0.893660 0.099219 0.315362 -0.293505
O42   O     O_R   0.918455 0.378217 0.275464 -0.275302
N12   N     N_R   0.080050 0.737624 0.673457 0.121873
O43   O     O_R   0.081587 0.621915 0.724530 -0.275279
O44   O     O_R   0.106291 0.900964 0.684601 -0.293521

loop_
_geom_bond_atom_site_label_1
_geom_bond_atom_site_label_2
_geom_bond_distance
_ccdc_geom_bond_type
C34   C38   1.413186 A    
C55   C59   1.412553 A    
O1    C5    1.331609 A    
C75   H43   1.109789 S    
C32   C52   1.424501 A    
C31   C35   1.415803 A    
O12   V4    1.994153 S    
O19   V1    1.762875 S    
O13   V1    1.994561 S    
C76   H46   1.108211 S    
O3    C7    1.328107 A    
C56   C60   1.412548 A    
O15   V3    2.004049 S    
C64   H12   1.108473 S    
N1    O22   1.301139 A    
C74   H40   1.109514 S    
N3    O25   1.301236 A    
C14   C25   1.426257 A    
C42   C46   1.419083 A    
C61   H1    1.106692 S    
N2    O23   1.301141 A    
O7    C3    1.327354 A    
C6    C11   1.493919 S    
C66   H17   1.107524 S    
C65   H13   1.110298 S    
C17   C66   1.519154 S    
C9    C18   1.415786 A    
C40   C44   1.416824 A    
O9    V1    2.009522 S    
C14   C18   1.416111 A    
C67   H20   1.110014 S    
O16   V4    2.004049 S    
O4    C8    1.328108 A    
C31   N7    1.437692 S    
C51   C60   1.420048 A    
N3    O26   1.301419 A    
O1    V3    1.986544 S    
C15   N3    1.438076 S    
C12   C23   1.418308 A    
O2    V4    1.986546 S    
O3    V1    1.994669 S    
N12   O43   1.301322 A    
C39   C71   1.516734 S    
C64   H11   1.109062 S    
C30   C50   1.423303 A    
C69   H25   1.108243 S    
C1    O15   1.319074 A    
C73   H37   1.107717 S    
C72   H34   1.107709 S    
C2    O16   1.319073 A    
N6    O31   1.299831 A    
C38   C70   1.516610 S    
C46   C50   1.418496 A    
C45   C49   1.418496 A    
O14   V2    1.994561 S    
C21   C25   1.431222 A    
C62   H5    1.108331 S    
C21   C62   1.517134 S    
C16   C20   1.413386 A    
C44   C48   1.411290 A    
C68   H24   1.110013 S    
C31   C51   1.424506 A    
C20   C67   1.518484 S    
O11   C7    1.336520 A    
C15   C28   1.426409 A    
O12   C8    1.336518 A    
C9    C22   1.422095 A    
C76   H47   1.109789 S    
C75   H44   1.108214 S    
C10   C17   1.415784 A    
C56   C76   1.518890 S    
O10   V2    2.009520 S    
C11   C24   1.418312 A    
C52   C59   1.420043 A    
C74   H41   1.107719 S    
N2    O24   1.301820 A    
C64   H10   1.108744 S    
O5    V1    2.001923 S    
N9    O38   1.301114 A    
C42   C54   1.422486 A    
C66   H18   1.108555 S    
C39   C43   1.416818 A    
C41   C53   1.422488 A    
C24   C63   1.515275 S    
C70   H29   1.111115 S    
C61   H2    1.108415 S    
C27   C28   1.423573 A    
O8    V4    2.019506 S    
N7    O33   1.300803 A    
O7    V3    2.019507 S    
C67   H21   1.106225 S    
C5    C12   1.493923 S    
C38   C42   1.426359 A    
O18   V4    1.761439 S    
C23   C27   1.433432 A    
N9    O37   1.300738 A    
C40   C72   1.516738 S    
C69   H27   1.111115 S    
C32   C36   1.415805 A    
C68   H23   1.106225 S    
C72   H36   1.107588 S    
C69   H26   1.109130 S    
C57   N9    1.437070 S    
C2    C36   1.494022 S    
O5    C1    1.334684 A    
C32   N8    1.437700 S    
C54   C58   1.412801 A    
C53   C57   1.412800 A    
O8    C4    1.327353 A    
C7    C10   1.504612 S    
C16   N4    1.438077 S    
O9    C5    1.326842 A    
C48   C52   1.418346 A    
C63   H7    1.108742 S    
C55   C75   1.518889 S    
C62   H6    1.108415 S    
C33   C37   1.413188 A    
C11   C20   1.414749 A    
C10   C21   1.422098 A    
C4    C34   1.492228 S    
N6    O32   1.301008 A    
N10   O39   1.301116 A    
O6    V2    2.001922 S    
C58   N10   1.437069 S    
C63   H9    1.109062 S    
C76   H48   1.110519 S    
C71   H33   1.102134 S    
C72   H35   1.102141 S    
C50   C57   1.419902 A    
C4    O14   1.325383 A    
C44   C56   1.420634 A    
C18   C65   1.519156 S    
C49   C58   1.419902 A    
C74   H42   1.110775 S    
C70   H30   1.109130 S    
C68   H22   1.109608 S    
C30   C34   1.413052 A    
C61   H3    1.108331 S    
C37   C69   1.516610 S    
N7    O34   1.301224 A    
C3    O13   1.325382 A    
N4    O28   1.301235 A    
O17   V3    1.761439 S    
C29   C49   1.423303 A    
C70   H28   1.108243 S    
C29   C33   1.413054 A    
O6    C2    1.334688 A    
C15   C19   1.413388 A    
O11   V3    1.994153 S    
C75   H45   1.110519 S    
N8    O36   1.300793 A    
C73   H39   1.110776 S    
C16   C27   1.426407 A    
C30   N6    1.437087 S    
C66   H16   1.110298 S    
C22   C26   1.431219 A    
C35   C39   1.420309 A    
C8    C9    1.504612 S    
C23   C64   1.515270 S    
C65   H14   1.108558 S    
C59   N11   1.436872 S    
C36   C40   1.420317 A    
C22   C61   1.517135 S    
C71   H32   1.107583 S    
N5    O29   1.299830 A    
C14   N2    1.439046 S    
C47   C48   1.415776 A    
C3    C33   1.492228 S    
C71   H31   1.107710 S    
C19   C68   1.518485 S    
C47   C51   1.418351 A    
C13   C26   1.426256 A    
O10   C6    1.326841 A    
C63   H8    1.108474 S    
N4    O27   1.301419 A    
C41   C45   1.419083 A    
C60   N12   1.436865 S    
O2    C6    1.331608 A    
C13   N1    1.439048 S    
O20   V2    1.762873 S    
C43   C47   1.411291 A    
C13   C17   1.416111 A    
C45   C46   1.422505 A    
N12   O44   1.301323 A    
N8    O35   1.301220 A    
N11   O41   1.301305 A    
C37   C41   1.426357 A    
C24   C28   1.433436 A    
C29   N5    1.437085 S    
C54   C74   1.519210 S    
C73   H38   1.109513 S    
C25   C26   1.421652 A    
C67   H19   1.109608 S    
C12   C19   1.414748 A    
C65   H15   1.107524 S    
N5    O30   1.301009 A    
C62   H4    1.106693 S    
N1    O21   1.301819 A    
C1    C35   1.494022 S    
C43   C55   1.420637 A    
O4    V2    1.994669 S    
C53   C73   1.519211 S    
N10   O40   1.300736 A    
N11   O42   1.301301 A    
