data_mof_unit_56049.cif
_audit_creation_date              2012-12-10T16:57:05-0500
_audit_creation_method            fapswitch 2.2
_symmetry_space_group_name_H-M    P1
_symmetry_Int_Tables_number       1
_space_group_crystal_system       triclinic
_cell_length_a                    7.934383
_cell_length_b                    8.575503
_cell_length_c                    16.66046
_cell_angle_alpha                 94.513139
_cell_angle_beta                  79.98029
_cell_angle_gamma                 92.791727
_cell_volume                      1112.14063627

loop_
_atom_site_label
_atom_site_type_symbol
_atom_type_description
_atom_site_fract_x
_atom_site_fract_y
_atom_site_fract_z
_atom_type_partial_charge
C1    C     C_R   0.544532 0.793937 0.498833 0.958911
C2    C     C_R   0.455470 0.206065 0.501186 0.951709
C3    C     C_2   0.567196 0.957421 0.501096 -0.383182
C4    C     C_2   0.432800 0.042621 0.499036 -0.375657
C5    C     C_R   0.475064 0.493461 0.653629 0.849993
C6    C     C_R   0.523050 0.493094 0.345658 0.858465
C7    C     C_R   0.453383 0.440796 0.735819 -0.047665
C8    C     C_R   0.532680 0.460018 0.257875 -0.057672
C9    C     C_R   0.576516 0.344485 0.754786 -0.199340
C10   C     C_R   0.383680 0.461860 0.223911 -0.211775
C11   C     C_R   0.552098 0.280371 0.829610 -0.232545
C12   C     C_R   0.385906 0.411252 0.142977 -0.216229
C13   C     C_R   0.407171 0.316046 0.888006 0.166996
C14   C     C_R   0.537166 0.356489 0.094298 0.174689
C15   C     C_R   0.278375 0.406489 0.868289 0.241604
C16   C     C_R   0.688691 0.355769 0.127744 0.233825
C17   C     C_R   0.301668 0.466948 0.791434 -0.271792
C18   C     C_R   0.685429 0.409093 0.209355 -0.284120
C19   C     C_2   0.405107 0.282531 0.972797 -0.238568
C20   C     C_2   0.544147 0.323646 0.006239 -0.228003
H1    H     H_    0.691133 0.316420 0.711335 0.174018
H2    H     H_    0.264300 0.501306 0.259965 0.177970
H3    H     H_    0.801341 0.406031 0.235198 0.161942
H4    H     H_    0.203478 0.537292 0.776139 0.159350
H5    H     H_    0.664170 0.354397 0.967487 0.180470
H6    H     H_    0.283331 0.253628 0.010337 0.174248
H7    H     H_    0.269461 0.420259 0.118569 0.143700
H8    H     H_    0.650192 0.208001 0.843333 0.149548
H9    H     H_    0.693723 0.007264 0.505949 0.172386
H10   H     H_    0.306287 0.992803 0.494169 0.172816
N1    N     N_2   0.953500 0.457650 0.478520 0.024181
N2    N     N_2   0.046500 0.542350 0.521480 0.024474
O1    O     O_R   0.388470 0.738640 0.505270 -0.610544
O2    O     O_R   0.611530 0.261360 0.494730 -0.615085
O3    O     O_R   0.679650 0.711510 0.491500 -0.647821
O4    O     O_R   0.320350 0.288490 0.508500 -0.649791
O5    O     O_R   0.337210 0.515200 0.623500 -0.615948
O6    O     O_R   0.662790 0.484800 0.376500 -0.616974
O7    O     O_R   0.628380 0.488060 0.609730 -0.643751
O8    O     O_R   0.371620 0.511940 0.390270 -0.641595
Zn1   Zn    Zn3+2 0.305580 0.518120 0.509190 0.949538
Zn2   Zn    Zn3+2 0.694420 0.481880 0.490810 0.946207
N3    N     N_2   0.129725 0.443045 0.926625 -0.317390
H11   H     H_    0.019022 0.435564 0.901735 0.229896
C21   C     C_3   0.145376 0.589658 0.974461 -0.816333
H12   H     H_    0.158415 0.689147 0.934623 0.241397
H13   H     H_    0.258518 0.590873 0.005501 0.255943
H14   H     H_    0.029108 0.604928 0.021800 0.242056
N4    N     N_2   0.844948 0.303856 0.079544 -0.319612
H15   H     H_    0.953242 0.353607 0.098978 0.228320
C22   C     C_3   0.854477 0.135703 0.065218 -0.803897
H16   H     H_    0.850794 0.081278 0.123921 0.240341
H17   H     H_    0.976361 0.106529 0.024122 0.239335
H18   H     H_    0.746913 0.086228 0.035451 0.255628
N5    N     N_2   0.039093 0.369231 0.412235 -0.233060
H19   H     H_    0.157644 0.337964 0.417888 0.280769
C23   C     C_3   0.945700 0.231986 0.385513 -0.721168
H20   H     H_    0.026052 0.169735 0.332488 0.197217
H21   H     H_    0.827965 0.262390 0.364793 0.276654
H22   H     H_    0.916465 0.151266 0.435290 0.228067
N6    N     N_2   0.960897 0.630783 0.587750 -0.226341
H23   H     H_    0.842401 0.662125 0.582048 0.280831
C24   C     C_3   0.054451 0.767929 0.614470 -0.712627
H24   H     H_    0.973677 0.831002 0.667059 0.192807
H25   H     H_    0.084848 0.848117 0.564501 0.226050
H26   H     H_    0.171419 0.737217 0.635831 0.276135

loop_
_geom_bond_atom_site_label_1
_geom_bond_atom_site_label_2
_ccdc_geom_bond_type
C7    C17   A    
C2    C4    S    
N5    H19   S    
C24   H25   S    
C15   C17   A    
N1    Zn2   S    
C5    O5    A    
C11   C13   A    
C22   H17   S    
C19   C20   D    
O2    Zn2   S    
C13   C15   A    
N2    Zn1   S    
C22   H18   S    
O1    Zn1   S    
C2    O2    A    
N5    C23   S    
C23   H20   S    
C24   H26   S    
C15   N3    S    
C16   C18   A    
C21   H12   S    
C10   H2    S    
N3    C21   S    
C9    C11   A    
O4    Zn1   S    
C10   C12   A    
C11   H8    S    
C18   H3    S    
N1    N5    S    
C4    H10   S    
C8    C10   A    
O8    Zn1   S    
C12   C14   A    
N2    N6    S    
O6    Zn2   S    
O7    Zn2   S    
C5    C7    S    
C5    O7    A    
N3    H11   S    
O5    Zn1   S    
N6    H23   S    
C6    O8    A    
C23   H21   S    
C17   H4    S    
C20   H5    S    
C13   C19   S    
C12   H7    S    
C1    O1    A    
C22   H16   S    
C9    H1    S    
C14   C20   S    
C3    H9    S    
C16   N4    S    
C1    O3    A    
C7    C9    A    
N4    H15   S    
C21   H13   S    
C2    O4    A    
N6    C24   S    
O3    Zn2   S    
C23   H22   S    
C6    C8    S    
C21   H14   S    
C1    C3    S    
C14   C16   A    
C6    O6    A    
C8    C18   A    
C3    C4    D    
N1    N2    D    
C24   H24   S    
N4    C22   S    
C19   H6    S    
