data_mof_unit_24829.cif
_audit_creation_date              2012-12-11T14:42:03-0500
_audit_creation_method            fapswitch 2.2
_symmetry_space_group_name_H-M    P1
_symmetry_Int_Tables_number       1
_space_group_crystal_system       triclinic
_cell_length_a                    18.990579
_cell_length_b                    10.922581
_cell_length_c                    18.84976
_cell_angle_alpha                 90.17705
_cell_angle_beta                  90.564659
_cell_angle_gamma                 89.790026
_cell_volume                      3909.69854496

loop_
_atom_site_label
_atom_site_type_symbol
_atom_type_description
_atom_site_fract_x
_atom_site_fract_y
_atom_site_fract_z
_atom_type_partial_charge
C1    C     C_R   0.727588 0.954390 0.853337 0.586746
C2    C     C_R   0.273667 0.956212 0.145521 0.595420
C3    C     C_R   0.227588 0.454390 0.853337 0.586746
C4    C     C_R   0.773667 0.456213 0.145521 0.595420
C5    C     C_R   0.695985 0.458206 0.037806 0.043544
C6    C     C_R   0.303991 0.465390 0.962154 0.044377
C7    C     C_R   0.195985 0.958206 0.037806 0.043544
C8    C     C_R   0.803991 0.965392 0.962154 0.044376
C9    C     C_R   0.759021 0.420830 0.072011 0.067706
C10   C     C_R   0.246536 0.412431 0.924697 0.070228
C11   C     C_R   0.259020 0.920828 0.072011 0.067706
C12   C     C_R   0.746537 0.912430 0.924697 0.070228
C13   C     C_R   0.814867 0.372110 0.030900 0.183309
C14   C     C_R   0.197115 0.341587 0.961993 0.176919
C15   C     C_R   0.314866 0.872105 0.030901 0.183310
C16   C     C_R   0.697118 0.841581 0.961992 0.176921
C17   C     C_R   0.811050 0.378019 0.958384 -0.107188
C18   C     C_R   0.197847 0.343597 0.034667 -0.110298
C19   C     C_R   0.311049 0.878014 0.958385 -0.107187
C20   C     C_R   0.697850 0.843589 0.034666 -0.110296
C21   C     C_R   0.748174 0.409721 0.924376 -0.021299
C22   C     C_R   0.253330 0.397786 0.072554 -0.031638
C23   C     C_R   0.248174 0.909720 0.924376 -0.021302
C24   C     C_R   0.753331 0.897783 0.072553 -0.031639
C25   C     C_R   0.490725 0.284053 0.536446 0.274492
C26   C     C_R   0.505849 0.285016 0.464772 0.274680
C27   C     C_R   0.990725 0.784053 0.536446 0.274492
C28   C     C_R   0.005849 0.785016 0.464772 0.274680
C29   C     C_R   0.502939 0.174133 0.426263 -0.040225
C30   C     C_R   0.496617 0.173044 0.574015 -0.041431
C31   C     C_R   0.002939 0.674133 0.426263 -0.040225
C32   C     C_R   0.996617 0.673044 0.574015 -0.041431
C33   C     C_R   0.504098 0.063697 0.462933 -0.157096
C34   C     C_R   0.498553 0.063101 0.536441 -0.159095
C35   C     C_R   0.004098 0.563697 0.462933 -0.157096
C36   C     C_R   0.998553 0.563101 0.536441 -0.159095
C37   C     C_R   0.819160 0.391491 0.547826 -0.140897
C38   C     C_R   0.180984 0.389363 0.452554 -0.143545
C39   C     C_R   0.319160 0.891491 0.547826 -0.140897
C40   C     C_R   0.680984 0.889363 0.452554 -0.143545
C41   C     C_R   0.829728 0.409842 0.476666 0.210028
C42   C     C_R   0.170822 0.407127 0.523816 0.205870
C43   C     C_R   0.329728 0.909842 0.476666 0.210029
C44   C     C_R   0.670822 0.907127 0.523816 0.205869
C45   C     C_R   0.556307 0.181587 0.858708 0.539416
C46   C     C_R   0.471931 0.177406 0.150646 0.549580
C47   C     C_R   0.056307 0.681587 0.858708 0.539416
C48   C     C_R   0.971931 0.677406 0.150647 0.549581
C49   C     C_R   0.779405 0.476085 0.436216 -0.027086
C50   C     C_R   0.220219 0.475885 0.563884 -0.027032
C51   C     C_R   0.279405 0.976085 0.436216 -0.027086
C52   C     C_R   0.720219 0.975885 0.563884 -0.027032
C53   C     C_R   0.719245 0.522493 0.469930 -0.114991
C54   C     C_R   0.278917 0.525547 0.529601 -0.113378
C55   C     C_R   0.219245 0.022494 0.469930 -0.114991
C56   C     C_R   0.778917 0.025546 0.529601 -0.113378
C57   C     C_R   0.705923 0.493752 0.540603 0.235471
C58   C     C_R   0.292023 0.497407 0.458680 0.235184
C59   C     C_R   0.205923 0.993752 0.540603 0.235471
C60   C     C_R   0.792023 0.997407 0.458680 0.235183
C61   C     C_R   0.755603 0.424395 0.579524 -0.026520
C62   C     C_R   0.243589 0.425013 0.420312 -0.026092
C63   C     C_R   0.255603 0.924395 0.579524 -0.026520
C64   C     C_R   0.743589 0.925013 0.420312 -0.026092
C65   C     C_R   0.738381 0.364887 0.852523 0.547996
C66   C     C_R   0.262010 0.361991 0.146373 0.550567
C67   C     C_R   0.238381 0.864887 0.852523 0.547995
C68   C     C_R   0.762010 0.861990 0.146373 0.550567
C69   C     C_R   0.709651 0.999257 0.639687 0.564519
C70   C     C_R   0.290249 0.999517 0.360485 0.565159
C71   C     C_R   0.209651 0.499257 0.639687 0.564519
C72   C     C_R   0.790249 0.499517 0.360485 0.565158
C73   C     C_R   0.527445 0.176868 0.645356 0.558667
C74   C     C_R   0.472439 0.177000 0.354749 0.547238
C75   C     C_R   0.027445 0.676868 0.645356 0.558667
C76   C     C_R   0.972439 0.677000 0.354749 0.547238
C77   C     C_R   0.739918 0.365023 0.647128 0.554696
C78   C     C_R   0.259855 0.365378 0.352705 0.552798
C79   C     C_R   0.239918 0.865023 0.647128 0.554696
C80   C     C_R   0.759855 0.865378 0.352705 0.552798
C81   C     C_2   0.530503 0.174322 0.931316 -0.114070
C82   C     C_2   0.513485 0.169801 0.085992 -0.111761
C83   C     C_2   0.030504 0.674322 0.931317 -0.114069
C84   C     C_2   0.013485 0.669802 0.085992 -0.111762
C85   C     C_2   0.515556 0.068962 0.045386 -0.142757
C86   C     C_2   0.539976 0.073801 0.971397 -0.153417
C87   C     C_2   0.015557 0.568962 0.045387 -0.142756
C88   C     C_2   0.039977 0.573801 0.971397 -0.153416
C89   C     C_R   0.690537 0.449821 0.964038 -0.110346
C90   C     C_R   0.307221 0.456574 0.036088 -0.127814
C91   C     C_R   0.190537 0.949823 0.964038 -0.110348
C92   C     C_R   0.807221 0.956575 0.036088 -0.127818
Cr1   Cr    Cr6+3 0.769270 0.163730 0.750710 1.080743
Cr2   Cr    Cr6+3 0.230730 0.163730 0.249290 1.078270
Cr3   Cr    Cr6+3 0.269270 0.663730 0.750710 1.080742
Cr4   Cr    Cr6+3 0.730730 0.663730 0.249290 1.078271
Cr5   Cr    Cr6+3 0.612620 0.009790 0.748780 1.124803
Cr6   Cr    Cr6+3 0.387380 0.009790 0.251220 1.125312
Cr7   Cr    Cr6+3 0.112620 0.509790 0.748780 1.124804
Cr8   Cr    Cr6+3 0.887380 0.509790 0.251220 1.125312
Cr9   Cr    Cr6+3 0.614160 0.322500 0.747710 1.137653
Cr10  Cr    Cr6+3 0.385840 0.322500 0.252290 1.132832
Cr11  Cr    Cr6+3 0.114160 0.822500 0.747710 1.137652
Cr12  Cr    Cr6+3 0.885840 0.822500 0.252290 1.132831
H1    H     H_    0.496208 0.982438 0.065194 0.216404
H2    H     H_    0.562590 0.991419 0.948589 0.200662
H3    H     H_    0.996210 0.482438 0.065195 0.216407
H4    H     H_    0.062591 0.491419 0.948589 0.200666
H5    H     H_    0.680761 0.576116 0.440593 0.207541
H6    H     H_    0.316410 0.581600 0.558591 0.206911
H7    H     H_    0.180761 0.076117 0.440593 0.207541
H8    H     H_    0.816410 0.081600 0.558591 0.206911
H9    H     H_    0.536264 0.254383 0.067164 0.103352
H10   H     H_    0.505072 0.255335 0.952880 0.114403
H11   H     H_    0.036264 0.754383 0.067164 0.103356
H12   H     H_    0.005073 0.755336 0.952881 0.114404
H13   H     H_    0.640545 0.469954 0.938365 0.183639
H14   H     H_    0.352290 0.493477 0.064522 0.180575
H15   H     H_    0.140546 0.969959 0.938364 0.183640
H16   H     H_    0.852288 0.993482 0.064522 0.180575
H17   H     H_    0.855787 0.344845 0.928528 0.184177
H18   H     H_    0.156529 0.294301 0.061326 0.180173
H19   H     H_    0.355786 0.844838 0.928530 0.184176
H20   H     H_    0.656533 0.794288 0.061324 0.180175
H21   H     H_    0.508693 0.978857 0.434060 0.225868
H22   H     H_    0.496278 0.977787 0.564658 0.229431
H23   H     H_    0.008693 0.478857 0.434060 0.225868
H24   H     H_    0.996278 0.477787 0.564658 0.229431
H25   H     H_    0.858943 0.339863 0.576676 0.201656
H26   H     H_    0.141875 0.335835 0.424070 0.201127
H27   H     H_    0.358943 0.839863 0.576676 0.201656
H28   H     H_    0.641875 0.835835 0.424070 0.201127
O1    O     O_R   0.784320 0.290430 0.830510 -0.513289
O2    O     O_R   0.215680 0.290430 0.169490 -0.516125
O3    O     O_R   0.284320 0.790430 0.830510 -0.513289
O4    O     O_R   0.715680 0.790430 0.169490 -0.516124
O5    O     O_R   0.554640 0.080370 0.673500 -0.507205
O6    O     O_R   0.445360 0.080370 0.326500 -0.510309
O7    O     O_R   0.054640 0.580370 0.673500 -0.507205
O8    O     O_R   0.945360 0.580370 0.326500 -0.510309
O9    O     O_R   0.543920 0.282180 0.666790 -0.427931
O10   O     O_R   0.456080 0.282180 0.333210 -0.434098
O11   O     O_R   0.043920 0.782180 0.666790 -0.427931
O12   O     O_R   0.956080 0.782180 0.333210 -0.434098
O13   O     O_R   0.679040 0.374160 0.674430 -0.435191
O14   O     O_R   0.320960 0.374160 0.325570 -0.435739
O15   O     O_R   0.179040 0.874160 0.674430 -0.435191
O16   O     O_R   0.820960 0.874160 0.325570 -0.435739
O17   O     O_3   0.665350 0.165340 0.749070 -0.333520
O18   O     O_3   0.334650 0.165340 0.250930 -0.315352
O19   O     O_3   0.165350 0.665340 0.749070 -0.333520
O20   O     O_3   0.834650 0.665340 0.250930 -0.315353
O21   O     O_R   0.762640 0.040960 0.825200 -0.469007
O22   O     O_R   0.237360 0.040960 0.174800 -0.469414
O23   O     O_R   0.262640 0.540960 0.825200 -0.469007
O24   O     O_R   0.737360 0.540960 0.174800 -0.469413
O25   O     O_R   0.667400 0.923970 0.829950 -0.457309
O26   O     O_R   0.332600 0.923970 0.170050 -0.446777
O27   O     O_R   0.167400 0.423970 0.829950 -0.457309
O28   O     O_R   0.832600 0.423970 0.170050 -0.446777
O29   O     O_R   0.553960 0.081340 0.821780 -0.480497
O30   O     O_R   0.446040 0.081340 0.178220 -0.485150
O31   O     O_R   0.053960 0.581340 0.821780 -0.480496
O32   O     O_R   0.946040 0.581340 0.178220 -0.485149
O33   O     O_R   0.543180 0.283240 0.826740 -0.495961
O34   O     O_R   0.456820 0.283240 0.173260 -0.505401
O35   O     O_R   0.043180 0.783240 0.826740 -0.495960
O36   O     O_R   0.956820 0.783240 0.173260 -0.505401
O37   O     O_R   0.678360 0.375140 0.822710 -0.501290
O38   O     O_R   0.321640 0.375140 0.177290 -0.492070
O39   O     O_R   0.178360 0.875140 0.822710 -0.501292
O40   O     O_R   0.821640 0.875140 0.177290 -0.492071
O41   O     O_R   0.785050 0.289380 0.670560 -0.535131
O42   O     O_R   0.214950 0.289380 0.329440 -0.537772
O43   O     O_R   0.285050 0.789380 0.670560 -0.535131
O44   O     O_R   0.714950 0.789380 0.329440 -0.537772
O45   O     O_R   0.763320 0.039990 0.676930 -0.489764
O46   O     O_R   0.236680 0.039990 0.323070 -0.495042
O47   O     O_R   0.263320 0.539990 0.676930 -0.489764
O48   O     O_R   0.736680 0.539990 0.323070 -0.495042
O49   O     O_R   0.668130 0.922920 0.670000 -0.415451
O50   O     O_R   0.331870 0.922920 0.330000 -0.418567
O51   O     O_R   0.168130 0.422920 0.670000 -0.415451
O52   O     O_R   0.831870 0.422920 0.330000 -0.418567
Cl1   Cl    Cl    0.903703 0.333454 0.442234 -0.480952
Cl2   Cl    Cl    0.098805 0.326762 0.558590 -0.478395
Cl3   Cl    Cl    0.403703 0.833454 0.442234 -0.480952
Cl4   Cl    Cl    0.598805 0.826762 0.558590 -0.478394
Cl5   Cl    Cl    0.625062 0.540450 0.576080 -0.366900
Cl6   Cl    Cl    0.370706 0.549853 0.421773 -0.372481
Cl7   Cl    Cl    0.125062 0.040450 0.576080 -0.366901
Cl8   Cl    Cl    0.870706 0.049853 0.421773 -0.372481
N1    N     N_3   0.636768 0.500237 0.077761 -0.581206
H29   H     H_    0.623167 0.587589 0.059817 0.269705
H30   H     H_    0.594251 0.442824 0.066445 0.224420
N2    N     N_3   0.359538 0.526151 0.925496 -0.568561
H31   H     H_    0.362755 0.615766 0.944715 0.272462
H32   H     H_    0.406921 0.481775 0.938016 0.241586
N3    N     N_3   0.136768 0.000239 0.077760 -0.581205
H33   H     H_    0.123172 0.087596 0.059820 0.269708
H34   H     H_    0.094249 0.942833 0.066441 0.224422
N4    N     N_3   0.859537 0.026158 0.925497 -0.568558
H35   H     H_    0.862749 0.115775 0.944715 0.272461
H36   H     H_    0.906920 0.981788 0.938019 0.241588
Cl9   Cl    Cl    0.890388 0.295229 0.064651 -0.627634
Cl10  Cl    Cl    0.132862 0.245746 0.922024 -0.613088
Cl11  Cl    Cl    0.390386 0.795222 0.064653 -0.627634
Cl12  Cl    Cl    0.632867 0.745738 0.922022 -0.613087
Cl13  Cl    Cl    0.461451 0.421393 0.577179 -0.400809
Cl14  Cl    Cl    0.532304 0.424597 0.425518 -0.396963
Cl15  Cl    Cl    0.961452 0.921393 0.577179 -0.400809
Cl16  Cl    Cl    0.032305 0.924597 0.425518 -0.396964

loop_
_geom_bond_atom_site_label_1
_geom_bond_atom_site_label_2
_ccdc_geom_bond_type
Cr3   O3    S    
Cr10  O38   S    
C3    O27   A    
C87   C88   S    
C58   C62   A    
C55   C59   A    
C8    N4    S    
C73   O5    A    
C14   C18   A    
Cr1   O17   S    
C35   C36   A    
C84   C87   D    
C43   C51   A    
C32   C75   S    
C6    N2    S    
Cr11  O15   S    
Cr4   O4    S    
C63   C79   S    
C85   C86   S    
Cr8   O20   S    
C91   H15   S    
C15   C19   A    
C74   O6    A    
C19   H19   S    
C50   C54   A    
N4    H36   S    
Cr6   O6    S    
C37   C41   A    
C90   H14   S    
C56   C60   A    
C38   C42   A    
Cr1   O1    S    
C54   C58   A    
C88   H4    S    
C23   C67   S    
Cr4   O20   S    
C29   C33   A    
Cr4   O24   S    
C45   O29   A    
C54   H6    S    
Cr2   O46   S    
C71   O47   A    
C57   C61   A    
C65   O1    A    
Cr3   O43   S    
C22   C66   S    
C9    C13   A    
C52   C69   S    
Cr8   O8    S    
C69   O45   A    
C33   H21   S    
C46   C82   S    
C11   C15   A    
C70   O50   A    
Cr6   O26   S    
C61   C77   S    
N1    H30   S    
C49   C72   S    
C81   H10   S    
C58   Cl6   S    
Cr12  O12   S    
Cr9   O37   S    
C8    C92   A    
C51   C70   S    
C47   C83   S    
C46   O34   A    
C40   C44   A    
Cr7   O51   S    
C81   C86   D    
C16   C20   A    
Cr12  O40   S    
C21   C65   S    
C34   H22   S    
C42   Cl2   S    
C83   C88   D    
C74   O10   A    
C7    C91   A    
N3    H33   S    
Cr10  O34   S    
C66   O2    A    
Cr11  O39   S    
C64   C80   S    
Cr7   O7    S    
C86   H2    S    
C1    C12   S    
Cr9   O9    S    
C85   H1    S    
C2    C11   S    
C24   C92   A    
C13   Cl9   S    
Cr5   O5    S    
Cr6   O30   S    
C62   C78   S    
C59   Cl7   S    
C7    C11   A    
C76   O8    A    
C39   C43   A    
N4    H35   S    
C30   C34   A    
Cr9   O17   S    
C12   C16   A    
C68   O4    A    
C78   O42   A    
C80   O44   A    
N2    H32   S    
C10   C14   A    
C30   C73   S    
C53   C57   A    
C19   C23   A    
C70   O46   A    
C73   O9    A    
C29   C74   S    
C51   C55   A    
C67   O39   A    
C25   C26   A    
C6    C90   A    
Cr7   O19   S    
Cr1   O21   S    
C17   C21   A    
C1    O21   A    
C65   O37   A    
Cr5   O25   S    
Cr6   O50   S    
C35   H23   S    
C50   C71   S    
Cr8   O32   S    
C5    C9    A    
C67   O3    A    
C79   O43   A    
Cr12  O36   S    
C47   O35   A    
Cr8   O28   S    
C37   C61   A    
C48   O36   A    
C7    N3    S    
C43   Cl3   S    
C8    C12   A    
Cr9   O13   S    
C27   Cl15  S    
C33   C34   A    
C22   C90   A    
C41   Cl1   S    
C57   Cl5   S    
C26   Cl14  S    
Cr11  O35   S    
Cr4   O48   S    
C25   Cl13  S    
C72   O52   A    
C75   O11   A    
C42   C50   A    
Cr7   O31   S    
C76   O12   A    
Cr3   O47   S    
C4    O24   A    
Cr10  O18   S    
C84   H11   S    
Cr5   O29   S    
C14   Cl10  S    
C56   H8    S    
C23   C91   A    
C60   Cl8   S    
Cr7   O27   S    
C3    O23   A    
C72   O48   A    
C78   O14   A    
C82   C85   D    
C32   C36   A    
C36   H24   S    
C5    N1    S    
Cr6   O18   S    
C53   H5    S    
C25   C30   A    
C77   O41   A    
Cr4   O44   S    
C55   H7    S    
C27   C32   A    
C18   C22   A    
C83   H12   S    
C66   O38   A    
C28   C31   A    
C45   C81   S    
C21   C89   A    
C82   H9    S    
C89   H13   S    
N2    H31   S    
C16   Cl12  S    
C87   H3    S    
Cr11  O11   S    
C6    C10   A    
C79   O15   A    
Cr5   O49   S    
C48   O32   A    
Cr11  O19   S    
Cr2   O18   S    
C41   C49   A    
C39   C63   A    
C18   H18   S    
C59   C63   A    
C38   H26   S    
C13   C17   A    
C60   C64   A    
Cr12  O20   S    
C1    O25   A    
C92   H16   S    
C47   O31   A    
Cr12  O16   S    
C3    C10   S    
C75   O7    A    
Cr9   O33   S    
Cr2   O22   S    
C68   O40   A    
C44   C52   A    
C31   C76   S    
C4    O28   A    
C77   O13   A    
C39   H27   S    
C44   Cl4   S    
C49   C53   A    
C40   C64   A    
C31   C35   A    
Cr1   O41   S    
Cr2   O2    S    
C37   H25   S    
Cr3   O23   S    
Cr10  O14   S    
C40   H28   S    
Cr8   O52   S    
C28   Cl16  S    
C15   Cl11  S    
C20   H20   S    
C24   C68   S    
C48   C84   S    
C80   O16   A    
Cr3   O19   S    
C2    O26   A    
C17   H17   S    
C26   C29   A    
C2    O22   A    
N1    H29   S    
C46   O30   A    
Cr2   O42   S    
C27   C28   A    
N3    H34   S    
Cr5   O17   S    
Cr10  O10   S    
Cr1   O45   S    
C4    C9    S    
C45   O33   A    
C20   C24   A    
C5    C89   A    
C52   C56   A    
C69   O49   A    
C38   C62   A    
C71   O51   A    
