data_mof_unit_14615.cif
_audit_creation_date              2012-12-10T18:11:51-0500
_audit_creation_method            fapswitch 2.2
_symmetry_space_group_name_H-M    P1
_symmetry_Int_Tables_number       1
_space_group_crystal_system       triclinic
_cell_length_a                    15.847694
_cell_length_b                    10.774731
_cell_length_c                    9.464169
_cell_angle_alpha                 90.778235
_cell_angle_beta                  90.872638
_cell_angle_gamma                 88.959665
_cell_volume                      1615.45387831

loop_
_atom_site_label
_atom_site_type_symbol
_atom_type_description
_atom_site_fract_x
_atom_site_fract_y
_atom_site_fract_z
_atom_type_partial_charge
C1    C     C_R   0.504335 0.260324 0.499083 0.831765
C2    C     C_3   0.082237 0.511494 0.492874 0.130601
C3    C     C_3   0.975271 0.527921 0.633468 -0.113551
C4    C     C_3   0.916551 0.515265 0.503503 0.137868
C5    C     C_3   0.028912 0.621003 0.551198 -0.211079
C6    C     C_3   0.968229 0.609479 0.421540 -0.255844
C7    C     C_1   0.174149 0.507650 0.492430 -0.038708
C8    C     C_1   0.824999 0.512414 0.505203 -0.062304
C9    C     C_3   0.555628 0.075291 0.628495 -0.540906
C10   C     C_3   0.554901 0.932396 0.633465 0.056352
C11   C     C_3   0.413109 0.076821 0.500237 0.296138
C12   C     C_R   0.339818 0.500599 0.498839 0.825284
C13   C     C_3   0.550524 0.068815 0.365064 -0.437328
C14   C     C_3   0.505616 0.122625 0.497583 0.022487
C15   C     C_3   0.504617 0.878998 0.502096 0.048073
C16   C     C_3   0.412068 0.932104 0.496905 -0.150890
C17   C     C_3   0.549708 0.924855 0.365844 0.225894
C18   C     C_3   0.479448 0.625077 0.087304 -0.327866
C19   C     C_3   0.482535 0.628552 0.920200 0.122450
C20   C     C_3   0.586603 0.467157 0.086208 0.186929
C21   C     C_3   0.438586 0.414261 0.079897 -0.220794
C22   C     C_3   0.585557 0.461163 0.918190 0.087338
C23   C     C_R   0.503412 0.740104 0.500965 0.830223
C24   C     C_3   0.436609 0.418122 0.913445 -0.203080
C25   C     C_R   0.660021 0.501672 0.501061 0.827242
C26   C     C_3   0.969645 0.405300 0.445714 -0.240531
C27   C     C_3   0.022074 0.499461 0.365791 0.526006
C28   C     C_1   0.249871 0.504078 0.495398 -0.204800
C29   C     C_1   0.749555 0.507518 0.503784 -0.192811
C30   C     C_3   0.029996 0.418539 0.575430 -0.232337
Cu1   Cu    Cu3+1 0.500040 0.499860 0.642410 0.924528
Cu2   Cu    Cu3+1 0.499960 0.500140 0.357590 0.929335
H1    H     H_    0.385292 0.113011 0.600947 0.076308
H2    H     H_    0.518611 0.101940 0.266696 0.172106
H3    H     H_    0.616375 0.102854 0.363469 0.176678
H4    H     H_    0.511472 0.893144 0.272524 0.078017
H5    H     H_    0.382265 0.900916 0.395170 0.139871
H6    H     H_    0.524182 0.694457 0.129649 0.139594
H7    H     H_    0.944042 0.316939 0.403287 0.134131
H8    H     H_    0.416332 0.655014 0.126555 0.166541
H9    H     H_    0.535057 0.690131 0.892740 0.137924
H10   H     H_    0.630688 0.542614 0.117191 0.102711
H11   H     H_    0.634381 0.526720 0.883324 0.112812
H12   H     H_    0.450445 0.317723 0.115151 0.156091
H13   H     H_    0.374607 0.439348 0.118847 0.154211
H14   H     H_    0.372266 0.445236 0.876923 0.154552
H15   H     H_    0.443377 0.323120 0.868935 0.136044
H16   H     H_    0.941798 0.687494 0.358345 0.129625
H17   H     H_    0.054497 0.709003 0.594855 0.140051
H18   H     H_    0.954974 0.541904 0.744184 0.125922
H19   H     H_    0.056385 0.340636 0.638821 0.141813
H20   H     H_    0.528288 0.116048 0.726387 0.176148
H21   H     H_    0.622040 0.107075 0.625104 0.170929
H22   H     H_    0.621330 0.897257 0.627004 0.174714
N1    N     N_3   0.501840 0.500250 0.143650 -0.131585
N2    N     N_3   0.501160 0.503300 0.856280 -0.133035
O1    O     O_R   0.500050 0.317570 0.620260 -0.624600
O2    O     O_R   0.499980 0.317810 0.379740 -0.547342
O3    O     O_R   0.379110 0.499870 0.620240 -0.567322
O4    O     O_R   0.379040 0.500110 0.379720 -0.582492
O5    O     O_R   0.500020 0.682190 0.620260 -0.525022
O6    O     O_R   0.499950 0.682430 0.379740 -0.611097
O7    O     O_R   0.620960 0.499890 0.620280 -0.607818
O8    O     O_R   0.620890 0.500130 0.379760 -0.557506
O9    O     O_3   0.049138 0.484556 0.224865 -0.619956
C31   C     C_3   0.978810 0.482855 0.130180 0.044303
H23   H     H_    0.991614 0.547020 0.042456 0.154124
H24   H     H_    0.918216 0.515886 0.177454 0.132787
C32   C     C_3   0.967546 0.352173 0.068018 -0.359356
H25   H     H_    0.021725 0.328218 0.998958 0.214460
H26   H     H_    0.966087 0.283778 0.154557 0.217972
C33   C     C_3   0.885553 0.342617 0.982075 -0.918439
H27   H     H_    0.830550 0.360914 0.051024 0.252051
H28   H     H_    0.880381 0.247692 0.936002 0.255555
H29   H     H_    0.884081 0.410380 0.894961 0.254362
N3    N     N_3   0.522048 0.892422 0.769030 -0.578073
H30   H     H_    0.467999 0.944058 0.795570 0.245765
H31   H     H_    0.567217 0.911430 0.847830 0.179657
N4    N     N_3   0.361157 0.884859 0.612281 -0.597544
H32   H     H_    0.302749 0.931367 0.613207 0.192680
H33   H     H_    0.347201 0.792039 0.590334 0.234877
O10   O     O_3   0.633157 0.874190 0.362174 -0.617009
C34   C     C_3   0.666691 0.875822 0.224420 0.069564
H34   H     H_    0.689240 0.970358 0.201027 0.139706
H35   H     H_    0.619833 0.848796 0.141505 0.108030
C35   C     C_3   0.741339 0.784120 0.217742 -0.315845
H36   H     H_    0.792318 0.815736 0.290981 0.214168
H37   H     H_    0.720890 0.691382 0.252296 0.228123
C36   C     C_3   0.775850 0.772137 0.068417 -0.973324
H38   H     H_    0.726493 0.736545 0.994509 0.246119
H39   H     H_    0.830369 0.705926 0.067951 0.250742
H40   H     H_    0.797259 0.863639 0.031574 0.261593
O11   O     O_3   0.369624 0.124514 0.379763 -0.627182
C37   C     C_3   0.282362 0.138221 0.403864 0.027897
H41   H     H_    0.270256 0.202103 0.495188 0.128880
H42   H     H_    0.254163 0.046364 0.423141 0.142195
C38   C     C_3   0.240657 0.193623 0.272193 -0.305806
H43   H     H_    0.264106 0.289090 0.256985 0.225583
H44   H     H_    0.257713 0.136262 0.177979 0.211950
C39   C     C_3   0.144961 0.198461 0.284523 -0.912616
H45   H     H_    0.119864 0.103351 0.293417 0.241304
H46   H     H_    0.117388 0.241749 0.188532 0.271545
H47   H     H_    0.126246 0.254392 0.378515 0.267645
N5    N     N_3   0.404153 0.683270 0.861430 -0.499541
H48   H     H_    0.400135 0.775742 0.895581 0.203630
H49   H     H_    0.351487 0.641870 0.904404 0.192646
N6    N     N_3   0.621205 0.353994 0.152415 -0.530937
H50   H     H_    0.683477 0.339644 0.120293 0.201726
H51   H     H_    0.586954 0.275647 0.123783 0.205327
N7    N     N_3   0.613472 0.336665 0.868948 -0.616717
H52   H     H_    0.630083 0.332752 0.763405 0.269256
H53   H     H_    0.570544 0.267455 0.889043 0.201467

loop_
_geom_bond_atom_site_label_1
_geom_bond_atom_site_label_2
_ccdc_geom_bond_type
C19   N2    S    
C31   H24   S    
C30   H19   S    
O11   C37   S    
C32   C33   S    
Cu1   O5    S    
C2    C7    S    
Cu2   O2    S    
C4    C8    S    
N5    H49   S    
C38   H43   S    
C26   C27   S    
C6    H16   S    
C12   C28   S    
C34   H34   S    
C8    C29   T    
N3    H31   S    
C13   H3    S    
C10   C15   S    
C33   H29   S    
C25   O7    A    
C5    C6    S    
C11   C14   S    
C35   H37   S    
C26   H7    S    
C31   C32   S    
C15   C16   S    
C17   O10   S    
C11   C16   S    
Cu1   O3    S    
C32   H26   S    
C18   H8    S    
N7    H52   S    
C12   O3    A    
C10   N3    S    
C23   O6    A    
C22   H11   S    
C22   N7    S    
N6    H50   S    
C2    C27   S    
C17   H4    S    
Cu1   N2    S    
C36   H39   S    
C9    C10   S    
Cu2   N1    S    
C16   H5    S    
C20   N6    S    
C11   O11   S    
C15   C23   S    
C31   H23   S    
C13   C14   S    
N6    H51   S    
C5    H17   S    
C32   H25   S    
C9    H20   S    
C20   N1    S    
N5    H48   S    
C38   H44   S    
C3    H18   S    
C21   H13   S    
C25   C29   S    
Cu1   O7    S    
C11   H1    S    
N3    H30   S    
Cu2   O8    S    
C4    C6    S    
N4    H33   S    
C35   H36   S    
C18   C19   S    
C22   N2    S    
C37   C38   S    
O10   C34   S    
C39   H47   S    
C7    C28   T    
C25   O8    A    
C3    C30   S    
C9    C14   S    
C27   O9    S    
C1    O1    A    
C21   H12   S    
C19   N5    S    
C4    C26   S    
C6    C27   S    
C39   H46   S    
C36   H40   S    
C37   H42   S    
C18   N1    S    
C33   H28   S    
C34   H35   S    
C20   C22   S    
C26   C30   S    
C2    C5    S    
C9    H21   S    
Cu2   O4    S    
C3    C4    S    
C38   C39   S    
C21   N1    S    
C15   C17   S    
C24   H15   S    
Cu1   Cu2   S    
C33   H27   S    
C3    C5    S    
C35   C36   S    
C20   H10   S    
C24   N2    S    
C13   C17   S    
C2    C30   S    
C16   N4    S    
C24   H14   S    
Cu1   O1    S    
C18   H6    S    
Cu2   O6    S    
C13   H2    S    
C1    O2    A    
C39   H45   S    
C37   H41   S    
C10   H22   S    
N7    H53   S    
N4    H32   S    
C12   O4    A    
C23   O5    A    
C34   C35   S    
O9    C31   S    
C21   C24   S    
C1    C14   S    
C36   H38   S    
C19   H9    S    
