data_mof_unit_66171.cif
_audit_creation_date              2012-12-11T15:58:31-0500
_audit_creation_method            fapswitch 2.2
_symmetry_space_group_name_H-M    P1
_symmetry_Int_Tables_number       1
_space_group_crystal_system       triclinic
_cell_length_a                    6.93548
_cell_length_b                    17.322378
_cell_length_c                    18.641425
_cell_angle_alpha                 106.781938
_cell_angle_beta                  90.258742
_cell_angle_gamma                 90.586768
_cell_volume                      2144.00282572

loop_
_atom_site_label
_atom_site_type_symbol
_atom_type_description
_atom_site_fract_x
_atom_site_fract_y
_atom_site_fract_z
_atom_type_partial_charge
O1    O     O_R   0.505770 0.442340 0.559500 -0.519800
O2    O     O_R   0.168070 0.405470 0.411510 -0.529529
O3    O     O_R   0.005580 0.557660 0.440500 -0.521071
C1    C     C_R   0.338122 0.381267 0.383902 0.687578
O4    O     O_R   0.175550 0.432860 0.557160 -0.525041
O5    O     O_R   0.013110 0.585240 0.587190 -0.537439
C2    C     C_R   0.344508 0.415898 0.580655 0.716234
O6    O     O_R   0.498240 0.414760 0.412810 -0.548563
O7    O     O_3   0.341770 0.549960 0.509680 -0.360719
V1    V     V_3+5 0.063870 0.490730 0.498200 1.400138
O8    O     O_R   0.683850 0.594530 0.588490 -0.540242
C3    C     C_R   0.853959 0.617045 0.617345 0.668415
O9    O     O_R   0.676380 0.567140 0.442840 -0.527457
C4    C     C_R   0.845305 0.584003 0.419255 0.721593
V2    V     V_3+5 0.564820 0.509270 0.501800 1.381126
O10   O     O_3   0.836790 0.450040 0.490320 -0.358388
C5    C     C_1   0.856656 0.635789 0.367053 -0.222349
C6    C     C_1   0.868312 0.678150 0.323348 0.001005
C7    C     C_1   0.882813 0.728165 0.271353 -0.008861
C8    C     C_1   0.895068 0.770411 0.227549 0.002058
C9    C     C_1   0.909249 0.820725 0.175776 0.011692
C10   C     C_1   0.920354 0.863473 0.132371 -0.195876
C11   C     C_3   0.691576 0.774656 0.802485 0.035959
H1    H     H_    0.591741 0.823408 0.799047 0.107385
C12   C     C_3   0.672105 0.705479 0.728335 -0.335111
H2    H     H_    0.567361 0.723335 0.690735 0.127428
H3    H     H_    0.612764 0.650035 0.739098 0.163202
H4    H     H_    0.015788 0.720488 0.867595 0.176796
H5    H     H_    0.959141 0.613811 0.761965 0.150962
C13   C     C_3   0.040745 0.739841 0.816496 -0.286981
C14   C     C_3   0.956909 0.836188 0.744036 -0.377345
C15   C     C_3   0.903304 0.809245 0.814075 0.061961
H6    H     H_    0.105783 0.862002 0.750291 0.142526
H7    H     H_    0.857991 0.884587 0.739042 0.129310
C16   C     C_3   0.869973 0.686751 0.688913 0.080045
C17   C     C_3   0.013543 0.666848 0.745468 -0.314008
C18   C     C_3   0.943742 0.764199 0.671467 -0.324834
H8    H     H_    0.845167 0.779655 0.630536 0.127130
H9    H     H_    0.088510 0.753380 0.645173 0.144652
H10   H     H_    0.192761 0.761654 0.819354 0.168838
H11   H     H_    0.156515 0.650473 0.718865 0.148611
C19   C     C_3   0.527627 0.255074 0.322776 -0.392309
H12   H     H_    0.665471 0.290000 0.335065 0.163380
H13   H     H_    0.497757 0.231991 0.371518 0.143991
C20   C     C_3   0.555546 0.182851 0.251569 -0.342207
H14   H     H_    0.527290 0.125413 0.265338 0.135501
H15   H     H_    0.707888 0.181302 0.232975 0.172162
H16   H     H_    0.545685 0.380369 0.261316 0.073207
C21   C     C_3   0.410826 0.343528 0.245157 0.304240
C22   C     C_3   0.175863 0.257931 0.292954 -0.315839
C23   C     C_3   0.359857 0.310964 0.312726 0.044260
H17   H     H_    0.050193 0.294676 0.286121 0.194436
H18   H     H_    0.141173 0.231827 0.339417 0.126489
C24   C     C_3   0.416758 0.189056 0.188334 0.034953
C25   C     C_3   0.448603 0.272145 0.172883 -0.068073
C26   C     C_3   0.206401 0.189167 0.219698 -0.330076
H19   H     H_    0.174351 0.130369 0.230382 0.133185
H20   H     H_    0.099674 0.196162 0.177335 0.188987
H21   H     H_    0.345620 0.275830 0.128047 0.152097
C27   C     C_1   0.354965 0.363895 0.632726 -0.216227
C28   C     C_1   0.366578 0.321386 0.676319 0.004306
C29   C     C_1   0.381917 0.271274 0.728237 0.004110
C30   C     C_1   0.395176 0.229069 0.772046 0.004989
C31   C     C_1   0.410505 0.178912 0.823923 0.009352
C32   C     C_1   0.422098 0.136328 0.867448 -0.201064
O11   O     O_R   0.278700 0.085270 0.087180 -0.545012
O12   O     O_R   0.601470 0.067150 0.942830 -0.519122
O13   O     O_R   0.763830 0.914750 0.912810 -0.529982
C33   C     C_R   0.432518 0.084213 0.919415 0.723123
O14   O     O_R   0.608870 0.094540 0.088490 -0.521484
O15   O     O_R   0.771290 0.942340 0.059510 -0.516815
C34   C     C_R   0.438741 0.118031 0.117056 0.696067
O16   O     O_R   0.271240 0.057690 0.940480 -0.523883
O17   O     O_3   0.435150 0.950050 0.990310 -0.346393
V3    V     V_3+5 0.713080 0.009270 0.001800 1.463955
O18   O     O_R   0.100490 0.932820 0.057180 -0.524466
C35   C     C_R   0.931532 0.915728 0.080550 0.727878
O19   O     O_R   0.093090 0.905430 0.911530 -0.538618
C36   C     C_R   0.922122 0.880828 0.884274 0.687586
V4    V     V_3+5 0.212120 0.990690 0.998230 1.439285
O20   O     O_3   0.940180 0.049940 0.009690 -0.352473
I1    I     I_    0.589301 0.734137 0.895363 -0.469690
I2    I     I_    0.730094 0.285959 0.128182 -0.489914
O21   O     O_3   0.254836 0.390512 0.232164 -0.572828
C37   C     C_3   0.318825 0.455616 0.206488 0.063258
H22   H     H_    0.203594 0.467830 0.169769 0.171900
H23   H     H_    0.451170 0.441670 0.171595 0.139482
C38   C     C_3   0.349883 0.531117 0.272887 -0.323277
H24   H     H_    0.217440 0.542736 0.307445 0.212183
H25   H     H_    0.470683 0.521379 0.308451 0.187543
C39   C     C_3   0.395851 0.604842 0.246614 -0.792477
H26   H     H_    0.529359 0.594955 0.212628 0.240090
H27   H     H_    0.418118 0.658294 0.296028 0.233035
H28   H     H_    0.274530 0.617178 0.212550 0.236168

loop_
_geom_bond_atom_site_label_1
_geom_bond_atom_site_label_2
_ccdc_geom_bond_type
C13   C15   S    
C11   I1    S    
C25   H21   S    
C7    C8    T    
C1    O6    A    
C37   H22   S    
O13   V3    S    
H5    C17   S    
C29   C30   T    
C21   O21   S    
C16   C18   S    
O5    C3    A    
O19   V4    S    
V2    O10   S    
C26   H19   S    
C6    C7    S    
O8    V2    S    
O11   C34   A    
C16   C17   S    
C21   C23   S    
C22   H17   S    
C11   H1    S    
C14   H6    S    
C33   O16   A    
O1    V2    S    
O7    V1    S    
C19   C23   S    
C38   H24   S    
O13   C36   A    
C20   H15   S    
O17   V4    S    
O9    C4    A    
C4    C5    S    
C17   H11   S    
C19   H13   S    
C5    C6    T    
C37   H23   S    
C24   C26   S    
C22   H18   S    
O17   V3    S    
C1    C23   S    
O21   C37   S    
C39   H26   S    
O4    C2    A    
O19   C36   A    
V3    O20   S    
C12   H2    S    
C21   C25   S    
C22   C26   S    
C14   C18   S    
C27   C28   T    
O12   C33   A    
C19   C20   S    
O2    C1    A    
C18   H8    S    
C39   H27   S    
C14   C15   S    
C38   C39   S    
C22   C23   S    
C14   H7    S    
C13   H10   S    
O18   C35   A    
C3    C16   S    
O3    C4    A    
C12   C16   S    
H16   C21   S    
C38   H25   S    
C20   C24   S    
O6    V2    S    
O9    V2    S    
O12   V3    S    
C19   H12   S    
C25   I2    S    
O2    V1    S    
C2    C27   S    
O15   C35   A    
C37   C38   S    
C24   C25   S    
O1    C2    A    
O18   V4    S    
C10   C35   S    
V4    O20   S    
O5    V1    S    
O8    C3    A    
C12   H3    S    
O11   V4    S    
C13   C17   S    
C11   C15   S    
H4    C13   S    
O7    V2    S    
O4    V1    S    
C18   H9    S    
O3    V1    S    
V1    O10   S    
C31   C32   T    
C15   C36   S    
O15   V3    S    
C32   C33   S    
O16   V4    S    
C26   H20   S    
C11   C12   S    
C28   C29   S    
C30   C31   S    
C20   H14   S    
C24   C34   S    
C8    C9    S    
O14   V3    S    
O14   C34   A    
C9    C10   T    
C39   H28   S    
