data_mof_unit_52160.cif
_audit_creation_date              2012-12-10T16:58:23-0500
_audit_creation_method            fapswitch 2.2
_symmetry_space_group_name_H-M    P1
_symmetry_Int_Tables_number       1
_space_group_crystal_system       triclinic
_cell_length_a                    7.750325
_cell_length_b                    8.644444
_cell_length_c                    23.453162
_cell_angle_alpha                 91.313527
_cell_angle_beta                  85.579225
_cell_angle_gamma                 94.122789
_cell_volume                      1562.32984317

loop_
_atom_site_label
_atom_site_type_symbol
_atom_type_description
_atom_site_fract_x
_atom_site_fract_y
_atom_site_fract_z
_atom_type_partial_charge
C1    C     C_R   0.545524 0.794411 0.498580 0.913431
C2    C     C_R   0.340562 0.450930 0.302820 -0.249139
C3    C     C_R   0.664076 0.551220 0.756310 0.039155
C4    C     C_R   0.335943 0.448828 0.243686 0.039158
C5    C     C_R   0.514532 0.500437 0.790861 0.219531
C6    C     C_R   0.485492 0.499621 0.209139 0.219530
C7    C     C_2   0.564203 0.955160 0.489249 -0.243742
C8    C     C_2   0.435797 0.044840 0.510751 -0.243743
C9    C     C_R   0.501872 0.500126 0.610437 0.886330
C10   C     C_R   0.498129 0.499877 0.389563 0.886331
C11   C     C_R   0.459049 0.362866 0.118921 0.530416
C12   C     C_R   0.454476 0.205589 0.501420 0.913435
C13   C     C_R   0.541002 0.637190 0.881079 0.530417
C14   C     C_R   0.508626 0.638794 0.120598 0.512248
C15   C     C_R   0.491420 0.361263 0.879402 0.512247
C16   C     C_R   0.530187 0.641624 0.060552 -0.051415
C17   C     C_R   0.469867 0.358432 0.939448 -0.051415
C18   C     C_R   0.496171 0.500952 0.030061 -0.026300
C19   C     C_R   0.503885 0.499103 0.969939 -0.026299
C20   C     C_R   0.455453 0.361612 0.059589 -0.014198
C21   C     C_R   0.544604 0.638443 0.940411 -0.014200
C22   C     C_R   0.585543 0.778013 0.029901 -0.033592
C23   C     C_R   0.360756 0.449789 0.765358 0.036869
C24   C     C_R   0.414515 0.222041 0.970099 -0.033593
C25   C     C_R   0.589160 0.775547 0.970428 -0.199902
C26   C     C_R   0.410900 0.224508 0.029573 -0.199901
C27   C     C_1   0.654685 0.918292 0.057150 0.277544
C28   C     C_1   0.345374 0.081761 0.942851 0.277544
C29   C     C_1   0.206278 0.393592 0.799195 0.231493
C30   C     C_1   0.793743 0.606476 0.200814 0.231497
C31   C     C_1   0.821781 0.609899 0.780669 0.235674
C32   C     C_1   0.178243 0.390154 0.219322 0.235669
C33   C     C_1   0.705207 0.006160 0.447621 0.238879
C34   C     C_R   0.639261 0.550267 0.234647 0.036867
C35   C     C_1   0.294793 0.993840 0.552379 0.238881
C36   C     C_R   0.357170 0.451363 0.706262 -0.238999
C37   C     C_R   0.642839 0.548673 0.293742 -0.239006
C38   C     C_R   0.506295 0.500032 0.672187 -0.055079
C39   C     C_R   0.493711 0.499989 0.327813 -0.055076
C40   C     C_R   0.659449 0.549100 0.697177 -0.249141
H1    H     H_    0.631217 0.880763 0.947454 0.193882
H2    H     H_    0.368844 0.119292 0.052547 0.193883
H3    H     H_    0.238910 0.412136 0.686763 0.165928
H4    H     H_    0.761096 0.587895 0.313245 0.165929
H5    H     H_    0.774317 0.588641 0.670646 0.160274
H6    H     H_    0.225691 0.411380 0.329348 0.160274
H7    H     H_    0.013976 0.382803 0.457045 0.198934
H8    H     H_    0.986023 0.617197 0.542955 0.198933
N1    N     N_R   0.482233 0.500365 0.148149 -0.360024
N2    N     N_1   0.052590 0.340896 0.199827 -0.165564
N3    N     N_1   0.817180 0.046208 0.414545 -0.192797
N4    N     N_1   0.182820 0.953791 0.585455 -0.192797
N5    N     N_R   0.517808 0.499692 0.851851 -0.360023
N6    N     N_2   0.950330 0.457950 0.484560 -0.170101
N7    N     N_2   0.049670 0.542050 0.515440 -0.170101
N8    N     N_1   0.711731 0.030185 0.078804 -0.122757
N9    N     N_1   0.288329 0.969868 0.921196 -0.122756
N10   N     N_1   0.083225 0.347340 0.826410 -0.169129
N11   N     N_1   0.916799 0.652738 0.173603 -0.169123
N12   N     N_1   0.947439 0.659161 0.800159 -0.165564
O1    O     O_R   0.389250 0.738570 0.503790 -0.606382
O2    O     O_2   0.559585 0.772199 0.852684 -0.522098
O3    O     O_2   0.512473 0.772313 0.151580 -0.520775
O4    O     O_2   0.487569 0.227744 0.848419 -0.520773
O5    O     O_R   0.610750 0.261430 0.496210 -0.606381
O6    O     O_R   0.678390 0.711620 0.493890 -0.623622
O7    O     O_R   0.321610 0.288380 0.506110 -0.623620
O8    O     O_R   0.355400 0.513520 0.588790 -0.616804
O9    O     O_R   0.644600 0.486480 0.411210 -0.616804
O10   O     O_R   0.644550 0.486570 0.578900 -0.628150
O11   O     O_R   0.355450 0.513430 0.421100 -0.628150
O12   O     O_2   0.440466 0.227858 0.147316 -0.522099
Zn1   Zn    Zn3+2 0.306930 0.518000 0.506610 0.969976
Zn2   Zn    Zn3+2 0.693070 0.482000 0.493390 0.969975

loop_
_geom_bond_atom_site_label_1
_geom_bond_atom_site_label_2
_ccdc_geom_bond_type
C31   N12   T    
O10   Zn2   S    
H8    N7    S    
C2    C4    A    
C15   O4    S    
C15   C17   A    
C11   N1    A    
C13   O2    S    
C33   N3    T    
C34   C37   A    
C24   C28   S    
C12   O5    A    
C13   N5    A    
C5    C23   A    
C8    C12   S    
O1    Zn1   S    
C30   N11   T    
C27   N8    T    
C37   H4    S    
C36   C38   A    
C1    O6    A    
C9    O8    A    
C13   C21   A    
C7    C8    D    
C37   C39   A    
C38   C40   A    
C1    C7    S    
C28   N9    T    
C2    H6    S    
C3    C31   S    
C7    C33   S    
C32   N2    T    
C4    C32   S    
C20   C26   A    
H7    N6    S    
O7    Zn1   S    
C14   O3    S    
C23   C29   S    
C5    N5    S    
C9    C38   S    
C19   C21   A    
C24   C26   A    
C3    C40   A    
C23   C36   A    
C11   O12   S    
C18   C20   A    
C22   C27   S    
C6    N1    S    
C40   H5    S    
C12   O7    A    
C14   C16   A    
C11   C20   A    
C17   C24   A    
C30   C34   S    
C10   O11   A    
C4    C6    A    
C14   N1    A    
C10   O9    A    
C15   N5    A    
O9    Zn2   S    
C9    O10   A    
C26   H2    S    
C16   C18   A    
C18   C19   A    
O6    Zn2   S    
C25   H1    S    
C35   N4    T    
O11   Zn1   S    
C21   C25   A    
N6    N7    D    
C36   H3    S    
C16   C22   A    
C29   N10   T    
C17   C19   A    
O8    Zn1   S    
N6    Zn2   S    
C2    C39   A    
C22   C25   A    
O5    Zn2   S    
C6    C34   A    
C1    O1    A    
C10   C39   S    
C3    C5    A    
C8    C35   S    
N7    Zn1   S    
