data_mof_unit_5469.cif
_audit_creation_date              2012-12-10T18:09:57-0500
_audit_creation_method            fapswitch 2.2
_symmetry_space_group_name_H-M    P1
_symmetry_Int_Tables_number       1
_space_group_crystal_system       triclinic
_cell_length_a                    10.686477
_cell_length_b                    12.662616
_cell_length_c                    13.077936
_cell_angle_alpha                 81.152955
_cell_angle_beta                  91.895092
_cell_angle_gamma                 102.704526
_cell_volume                      1705.8229599

loop_
_atom_site_label
_atom_site_type_symbol
_atom_type_description
_atom_site_fract_x
_atom_site_fract_y
_atom_site_fract_z
_atom_type_partial_charge
C1    C     C_R   0.478164 0.438641 0.691271 0.887723
C2    C     C_R   0.457870 0.448226 0.974135 0.096900
C3    C     C_R   0.428688 0.469239 0.868203 0.071055
C4    C     C_R   0.741221 0.498682 0.508603 0.869841
C5    C     C_R   0.460791 0.531578 0.034888 0.099071
C6    C     C_R   0.411442 0.625019 0.995707 0.171400
C7    C     C_R   0.363949 0.636134 0.894956 -0.207308
C8    C     C_R   0.373212 0.559568 0.831492 -0.167055
C9    C     C_R   0.514679 0.525238 0.133149 -0.234616
C10   C     C_R   0.451628 0.690490 0.161018 -0.174278
C11   C     C_R   0.457908 0.399825 0.801960 -0.117622
C12   C     C_3   0.121878 0.499666 0.502046 0.024918
C13   C     C_R   0.341776 0.098259 0.328403 -0.297334
C14   C     C_R   0.659562 0.800949 0.625512 0.034142
C15   C     C_R   0.709502 0.908739 0.637970 -0.221561
C16   C     C_R   0.512670 0.561598 0.308539 0.877375
C17   C     C_R   0.656672 0.990611 0.581902 -0.181919
C18   C     C_R   0.547979 0.964270 0.518408 0.037507
C19   C     C_R   0.511447 0.855444 0.498903 0.242106
C20   C     C_R   0.479457 0.042752 0.469327 -0.056427
C21   C     C_R   0.397888 0.017573 0.385030 0.180949
C22   C     C_R   0.371116 0.911471 0.360478 -0.269305
C23   C     C_3   0.056741 0.476771 0.397891 -0.165316
C24   C     C_R   0.423176 0.830450 0.419587 -0.210311
C25   C     C_R   0.483546 0.143486 0.503990 0.052714
C26   C     C_R   0.364807 0.201993 0.357698 -0.019887
C27   C     C_R   0.258505 0.499758 0.499102 0.828845
C28   C     C_3   0.913218 0.404369 0.594657 -0.217229
C29   C     C_3   0.058538 0.407434 0.588080 -0.491302
C30   C     C_3   0.915207 0.482798 0.404200 -0.453369
C31   C     C_3   0.962364 0.617692 0.538971 -0.008417
C32   C     C_3   0.879725 0.501995 0.515062 -0.017278
C33   C     C_2   0.124289 0.548091 0.302858 0.891393
C34   C     C_3   0.104669 0.611461 0.530001 -0.375471
C35   C     C_2   0.871182 0.395581 0.706294 0.924524
C36   C     C_2   0.519299 0.155293 0.611119 0.895671
C37   C     C_2   0.945592 0.652332 0.646243 0.956874
C38   C     C_R   0.409125 0.704959 0.058745 -0.174077
C39   C     C_R   0.501197 0.598344 0.198580 -0.029888
C40   C     C_R   0.485963 0.299222 0.844089 -0.094811
C41   C     C_R   0.493718 0.270083 0.950291 -0.150820
C42   C     C_R   0.483012 0.344671 0.015214 -0.180667
H1    H     H_    0.862295 0.326423 0.568543 0.172185
H2    H     H_    0.514104 0.191524 0.982135 0.146506
H3    H     H_    0.334671 0.570870 0.754002 0.172250
H4    H     H_    0.325687 0.266075 0.312309 0.163369
H5    H     H_    0.306526 0.890166 0.297567 0.167172
H6    H     H_    0.281915 0.081622 0.261731 0.154025
H7    H     H_    0.700012 0.736662 0.667841 0.182549
H8    H     H_    0.704891 0.073967 0.586393 0.163057
H9    H     H_    0.790315 0.928940 0.688887 0.175634
H10   H     H_    0.395679 0.749716 0.399774 0.214912
H11   H     H_    0.110803 0.420064 0.661562 0.218234
H12   H     H_    0.155837 0.680740 0.473257 0.219296
H13   H     H_    0.070918 0.326494 0.571859 0.185679
H14   H     H_    0.856535 0.403506 0.386248 0.179102
H15   H     H_    0.058626 0.390610 0.389862 0.145433
H16   H     H_    0.155808 0.622332 0.604631 0.193754
H17   H     H_    0.181971 0.698694 0.220640 0.338936
H18   H     H_    0.918540 0.413751 0.854513 0.364510
H19   H     H_    0.503271 0.079054 0.759374 0.328380
H20   H     H_    0.965555 0.702875 0.387285 0.240787
H21   H     H_    0.986924 0.783417 0.477736 0.202594
H22   H     H_    0.766703 0.559649 0.687966 0.323573
H23   H     H_    0.889608 0.544877 0.342210 0.181499
H24   H     H_    0.440067 0.747851 0.211496 0.143049
H25   H     H_    0.322332 0.705232 0.864424 0.174727
H26   H     H_    0.370037 0.775999 0.030292 0.138515
H27   H     H_    0.563670 0.460770 0.162502 0.142967
H28   H     H_    0.506861 0.245037 0.794876 0.200967
H29   H     H_    0.491540 0.318368 0.097177 0.135805
N1    N     N_R   0.433240 0.222190 0.444680 -0.142947
N2    N     N_R   0.566070 0.776970 0.554790 -0.140115
N3    N     N_3   0.935277 0.707726 0.460879 -0.440594
O1    O     O_R   0.468120 0.366740 0.627160 -0.575417
O2    O     O_R   0.135379 0.661378 0.287183 -0.855830
O3    O     O_2   0.757994 0.363472 0.729061 -0.613128
O4    O     O_R   0.960085 0.423359 0.784124 -0.789065
O5    O     O_2   0.612241 0.224619 0.629168 -0.605856
O6    O     O_R   0.456422 0.076981 0.690878 -0.808145
O7    O     O_2   0.025618 0.728837 0.671642 -0.592352
O8    O     O_R   0.843515 0.608030 0.715083 -0.772529
O9    O     O_R   0.510770 0.544830 0.662520 -0.631912
O10   O     O_R   0.663880 0.410950 0.482330 -0.580016
O11   O     O_R   0.706530 0.589040 0.517700 -0.623998
O12   O     O_R   0.489230 0.455170 0.337480 -0.614653
O13   O     O_R   0.531880 0.633260 0.372840 -0.630793
O14   O     O_R   0.293470 0.410960 0.482300 -0.618257
O15   O     O_R   0.336120 0.589050 0.517670 -0.654410
O16   O     O_2   0.169331 0.505395 0.239210 -0.628863
Zn1   Zn    Zn3+2 0.471520 0.381090 0.476390 0.984675
Zn2   Zn    Zn3+2 0.528480 0.618910 0.523610 0.938001

loop_
_geom_bond_atom_site_label_1
_geom_bond_atom_site_label_2
_ccdc_geom_bond_type
C24   H10   S    
C12   C29   S    
C26   N1    A    
C41   C42   A    
C1    C11   S    
C7    C8    A    
O9    Zn2   S    
C12   C23   S    
H18   O4    S    
C40   H28   S    
C28   C29   S    
C9    H27   S    
O12   Zn1   S    
C5    C6    A    
C14   H7    S    
C20   C25   A    
H19   O6    S    
C9    C39   A    
C15   C17   A    
C18   C19   A    
C8    H3    S    
C28   C35   S    
C23   C33   S    
C16   O13   A    
C6    C38   A    
O10   Zn1   S    
C15   H9    S    
C16   C39   S    
O1    Zn1   S    
C22   H5    S    
O13   Zn2   S    
C16   O12   A    
C37   O7    D    
C27   O14   A    
O11   Zn2   S    
C10   H24   S    
C12   C27   S    
C1    O1    A    
C14   N2    A    
C28   C32   S    
C3    C8    A    
C36   O6    S    
N1    Zn1   S    
C31   N3    S    
C4    O11   A    
C29   H13   S    
C30   H14   S    
C35   O3    D    
C31   C37   S    
C10   C39   A    
C23   C30   S    
C5    C9    A    
C33   O2    S    
C31   C32   S    
C4    O10   A    
O14   Zn1   S    
C19   N2    A    
C17   C18   A    
C31   C34   S    
C13   C21   A    
C25   N1    A    
O15   Zn2   S    
H22   O8    S    
C4    C32   S    
C40   C41   A    
C38   H26   S    
C34   H12   S    
C41   H2    S    
C22   C24   A    
C37   O8    S    
C2    C5    A    
C12   C34   S    
C23   H15   S    
C35   O4    S    
C19   C24   A    
N2    Zn2   S    
C36   O5    D    
C17   H8    S    
C13   H6    S    
C6    C7    A    
H21   N3    S    
C1    O9    A    
C28   H1    S    
C10   C38   A    
C2    C3    A    
C33   O16   D    
C30   C32   S    
C29   H11   S    
C2    C42   A    
C42   H29   S    
C27   O15   A    
C18   C20   A    
C11   C40   A    
C13   C26   A    
C30   H23   S    
C3    C11   A    
C26   H4    S    
C25   C36   S    
C7    H25   S    
C20   C21   A    
C34   H16   S    
C14   C15   A    
H20   N3    S    
C21   C22   A    
H17   O2    S    
