data_mof_unit_66886.cif
_audit_creation_date              2013-03-05T15:57:24-0500
_audit_creation_method            fapswitch 2.2
_symmetry_space_group_name_H-M    P1
_symmetry_Int_Tables_number       1
_space_group_crystal_system       triclinic
_cell_length_a                    17.282648
_cell_length_b                    18.712403
_cell_length_c                    8.607618
_cell_angle_alpha                 89.920399
_cell_angle_beta                  102.756287
_cell_angle_gamma                 90.100997
_cell_volume                      2714.98985881

loop_
_atom_site_label
_atom_site_type_symbol
_atom_site_description
_atom_site_fract_x
_atom_site_fract_y
_atom_site_fract_z
_atom_type_partial_charge
P1    P     P_3+3 0.834140 0.419320 0.003900 0.433360
P2    P     P_3+3 0.834140 0.580680 0.503900 0.433976
P3    P     P_3+3 0.334140 0.919320 0.003900 0.439122
P4    P     P_3+3 0.334140 0.080680 0.503900 0.435521
O1    O     O_2   0.841960 0.394640 0.833410 -0.387151
O2    O     O_2   0.841960 0.605360 0.333410 -0.386903
O3    O     O_2   0.341960 0.894640 0.833410 -0.385634
O4    O     O_2   0.341960 0.105360 0.333410 -0.388747
O5    O     O_3   0.907950 0.463080 0.102990 -0.418363
O6    O     O_3   0.907950 0.536920 0.602990 -0.415385
O7    O     O_3   0.407950 0.963080 0.102990 -0.416786
O8    O     O_3   0.407950 0.036920 0.602990 -0.415237
O9    O     O_3   0.972780 0.329600 0.629720 -0.389086
O10   O     O_3   0.972780 0.670400 0.129720 -0.405652
O11   O     O_3   0.472780 0.829600 0.629720 -0.414280
O12   O     O_3   0.472780 0.170400 0.129720 -0.406446
O13   O     O_2   0.836232 0.277801 0.677902 -0.391648
O14   O     O_2   0.843607 0.731922 0.187923 -0.394640
O15   O     O_2   0.340491 0.772726 0.687214 -0.371368
O16   O     O_2   0.343769 0.231938 0.189047 -0.396166
O17   O     O_3   0.744963 0.467873 0.972658 -0.569894
O18   O     O_3   0.744734 0.532064 0.472337 -0.578072
O19   O     O_3   0.244553 0.967777 0.970570 -0.571880
O20   O     O_3   0.244542 0.032306 0.471210 -0.574201
O21   O     O_3   0.936634 0.183002 0.627332 -0.498328
O22   O     O_3   0.949805 0.816143 0.110990 -0.476339
O23   O     O_3   0.444168 0.683684 0.622207 -0.485606
O24   O     O_3   0.450098 0.315837 0.111466 -0.477432
H1    H     H_    0.999356 0.203695 0.444778 -0.015528
H2    H     H_    0.062205 0.771582 0.142938 0.134876
H3    H     H_    0.557081 0.715003 0.736562 0.170401
H4    H     H_    0.562335 0.270730 0.143389 0.135970
C1    C     C_3   0.078167 0.182365 0.671348 -0.781318
C2    C     C_3   0.063510 0.879320 0.069676 -0.739525
C3    C     C_3   0.560605 0.621803 0.595054 -0.855894
C4    C     C_3   0.564012 0.378319 0.070487 -0.724915
H5    H     H_    0.565308 0.590302 0.704988 0.324046
H6    H     H_    0.570924 0.398883 0.193120 0.302701
H7    H     H_    0.085110 0.239304 0.705833 0.280455
H8    H     H_    0.068858 0.900972 0.190985 0.307476
H9    H     H_    0.080325 0.149093 0.778939 0.293160
H10   H     H_    0.029650 0.916295 0.979900 0.312567
H11   H     H_    0.522805 0.593822 0.492472 0.299552
H12   H     H_    0.529025 0.415577 0.982901 0.321651
P5    P     P_3+3 0.165830 0.418670 0.685610 0.457932
P6    P     P_3+3 0.165830 0.581330 0.185610 0.450427
P7    P     P_3+3 0.665830 0.918670 0.685610 0.459780
P8    P     P_3+3 0.665830 0.081330 0.185610 0.452074
P9    P     P_3+3 0.098835 0.262255 0.112471 0.439700
P10   P     P_3+3 0.099238 0.737874 0.611388 0.458600
P11   P     P_3+3 0.598637 0.762351 0.108533 0.449595
P12   P     P_3+3 0.598872 0.237646 0.610820 0.462023
O25   O     O_2   0.157990 0.394030 0.856030 -0.372962
O26   O     O_2   0.157990 0.605970 0.356030 -0.373676
O27   O     O_2   0.657990 0.894030 0.856030 -0.376405
O28   O     O_2   0.657990 0.105970 0.356030 -0.371178
O29   O     O_3   0.027110 0.329490 0.059550 -0.382658
O30   O     O_3   0.027110 0.670510 0.559550 -0.380132
O31   O     O_3   0.527110 0.829490 0.059550 -0.362160
O32   O     O_3   0.527110 0.170510 0.559550 -0.382999
O33   O     O_2   0.153618 0.265845 0.992622 -0.390409
O34   O     O_2   0.153275 0.734348 0.490007 -0.382669
O35   O     O_2   0.651727 0.766702 0.985570 -0.396940
O36   O     O_2   0.651947 0.234939 0.487556 -0.383017
O37   O     O_3   0.247924 0.476212 0.725715 -0.525585
O38   O     O_3   0.248020 0.524049 0.225551 -0.557694
O39   O     O_3   0.748180 0.976052 0.725097 -0.523068
O40   O     O_3   0.747651 0.023553 0.225378 -0.553656
O41   O     O_3   0.048338 0.180518 0.077662 -0.522164
O42   O     O_3   0.050727 0.820635 0.578336 -0.503023
O43   O     O_3   0.542020 0.684551 0.063423 -0.484437
O44   O     O_3   0.548388 0.319218 0.578605 -0.493009
C5    C     C_3   0.965715 0.191919 0.057370 0.303590
C6    C     C_3   0.968178 0.811197 0.561660 0.279751
C7    C     C_3   0.486158 0.685526 0.160887 0.213588
C8    C     C_3   0.465814 0.308031 0.560296 0.307833
H13   H     H_    0.939808 0.202961 0.929928 0.154184
H14   H     H_    0.940468 0.801811 0.434233 0.148532
H15   H     H_    0.450670 0.735078 0.142949 0.064807
H16   H     H_    0.438942 0.299195 0.432347 0.143439
H17   H     H_    0.951136 0.236630 0.129269 0.002064
H18   H     H_    0.952958 0.766195 0.632701 -0.009839
H19   H     H_    0.517378 0.680877 0.286762 -0.012818
H20   H     H_    0.451105 0.262358 0.629624 -0.013156
C9    C     C_3   0.923993 0.127387 0.111084 0.065721
C10   C     C_3   0.930418 0.876734 0.620417 0.169107
C11   C     C_3   0.425947 0.625122 0.124191 0.163937
C12   C     C_3   0.425997 0.372025 0.619985 0.142345
H21   H     H_    0.377892 0.640599 0.022423 0.061252
H22   H     H_    0.361859 0.372463 0.563493 0.021288
H23   H     H_    0.860411 0.127650 0.050664 0.053875
H24   H     H_    0.865159 0.874031 0.576060 0.029257
C13   C     C_3   0.225098 0.454787 0.259803 0.345427
C14   C     C_3   0.224872 0.545152 0.761067 0.371601
C15   C     C_3   0.724021 0.953977 0.255906 0.364324
C16   C     C_3   0.725816 0.044935 0.762627 0.392725
H25   H     H_    0.219920 0.452454 0.385758 0.086474
H26   H     H_    0.220801 0.547140 0.887676 0.088111
H27   H     H_    0.719248 0.950223 0.381939 0.090305
H28   H     H_    0.723435 0.046602 0.890176 0.082523
H29   H     H_    0.169074 0.436938 0.180022 0.137211
H30   H     H_    0.168372 0.562776 0.682914 0.121858
H31   H     H_    0.667721 0.937124 0.175842 0.132640
H32   H     H_    0.668584 0.062594 0.687398 0.115630
C17   C     C_3   0.288024 0.402532 0.233837 -0.791760
C18   C     C_3   0.286870 0.597968 0.732821 -0.757185
C19   C     C_3   0.785779 0.901509 0.225547 -0.784457
C20   C     C_3   0.787110 0.098041 0.731574 -0.769389
H33   H     H_    0.347088 0.420813 0.297313 0.294219
H34   H     H_    0.346464 0.579277 0.792538 0.321574
H35   H     H_    0.844726 0.916220 0.295471 0.295351
H36   H     H_    0.847297 0.078987 0.785634 0.317594
H37   H     H_    0.277095 0.348996 0.278880 0.194823
H38   H     H_    0.276651 0.651162 0.779897 0.191525
H39   H     H_    0.771865 0.846972 0.260170 0.199795
H40   H     H_    0.778438 0.150848 0.782464 0.180636
H41   H     H_    0.287509 0.398758 0.105151 0.280553
H42   H     H_    0.284228 0.602789 0.603543 0.257524
H43   H     H_    0.787373 0.901858 0.097598 0.278881
H44   H     H_    0.781947 0.104063 0.601771 0.268895
Ba1   Ba    Ba6+2 0.000000 0.447380 0.844850 1.513288
Ba2   Ba    Ba6+2 0.000000 0.552620 0.344850 1.511090
Ba3   Ba    Ba6+2 0.500000 0.947380 0.844850 1.520644
Ba4   Ba    Ba6+2 0.500000 0.052620 0.344850 1.513812
C21   C     C_3   0.755825 0.542208 0.978989 0.655913
C22   C     C_3   0.755230 0.457714 0.479390 0.598830
C23   C     C_3   0.254359 0.042295 0.977884 0.618502
C24   C     C_3   0.254713 0.957965 0.480632 0.600269
H45   H     H_    0.815666 0.559985 0.043194 0.140900
H46   H     H_    0.814800 0.440025 0.544931 0.148332
H47   H     H_    0.314735 0.060336 0.038416 0.140072
H48   H     H_    0.314229 0.940350 0.546549 0.146455
C25   C     C_3   0.694214 0.576506 0.056664 -0.843943
C26   C     C_3   0.692837 0.423499 0.555783 -0.721786
C27   C     C_3   0.194012 0.075446 0.060739 -0.769242
C28   C     C_3   0.192147 0.924830 0.558177 -0.729549
H49   H     H_    0.634730 0.555392 0.002127 0.317633
H50   H     H_    0.633505 0.444111 0.498690 0.320046
H51   H     H_    0.134133 0.054772 0.007163 0.322618
H52   H     H_    0.132584 0.943546 0.497017 0.315664
H53   H     H_    0.694267 0.635253 0.041488 0.245925
H54   H     H_    0.693333 0.364797 0.541441 0.238236
H55   H     H_    0.194050 0.134281 0.047804 0.239553
H56   H     H_    0.194227 0.865926 0.549562 0.236323
H57   H     H_    0.707497 0.565953 0.184935 0.249058
H58   H     H_    0.704773 0.434018 0.684085 0.248638
H59   H     H_    0.208225 0.064109 0.188459 0.257579
H60   H     H_    0.202455 0.938278 0.684984 0.252678
O45   O     O_3   0.092100 0.536880 0.086720 -0.424008
O46   O     O_3   0.092100 0.463120 0.586720 -0.428953
O47   O     O_3   0.592100 0.036880 0.086720 -0.427445
O48   O     O_3   0.592100 0.963120 0.586720 -0.427436
P13   P     P_3+3 0.899459 0.735080 0.070227 0.444632
P14   P     P_3+3 0.896178 0.267086 0.570977 0.443731
P15   P     P_3+3 0.399436 0.234975 0.071002 0.444273
P16   P     P_3+3 0.397669 0.765918 0.573047 0.451524
C29   C     C_3   0.000414 0.170918 0.553228 0.414785
C30   C     C_3   0.021846 0.808465 0.061692 0.375041
C31   C     C_3   0.524926 0.692663 0.620939 0.438400
C32   C     C_3   0.522102 0.307727 0.062214 0.365170
H61   H     H_    0.998532 0.114518 0.514702 0.142991
H62   H     H_    0.012075 0.789479 0.936673 0.009546
H63   H     H_    0.534561 0.728117 0.523937 0.025931
H64   H     H_    0.512236 0.288854 0.937104 0.015769
H65   H     H_    0.620046 0.630152 0.569226 0.202188
H66   H     H_    0.622947 0.371242 0.041674 0.199189
H67   H     H_    0.126911 0.166836 0.614065 0.185342
H68   H     H_    0.123090 0.871997 0.044032 0.196936
H69   H     H_    0.399115 0.616199 0.228472 0.049855
H70   H     H_    0.431830 0.368385 0.750613 0.091723
H71   H     H_    0.926749 0.130272 0.240502 0.017216
H72   H     H_    0.942375 0.877005 0.752095 0.090942
C33   C     C_R   0.135872 0.679132 0.923513 -0.194499
C34   C     C_R   0.135611 0.320367 0.424470 -0.163427
C35   C     C_R   0.635735 0.178884 0.922785 -0.194509
C36   C     C_R   0.635485 0.820526 0.422624 -0.169836
C37   C     C_R   0.860638 0.323562 0.261655 -0.526524
C38   C     C_R   0.860607 0.676537 0.762135 -0.536222
C39   C     C_R   0.360346 0.823786 0.263784 -0.545326
C40   C     C_R   0.360230 0.175935 0.763542 -0.539105
C41   C     C_R   0.790872 0.214188 0.294787 -0.212468
C42   C     C_R   0.791115 0.785883 0.794680 -0.197058
C43   C     C_R   0.290650 0.714311 0.296537 -0.211451
C44   C     C_R   0.291557 0.285973 0.795711 -0.191039
C45   C     C_R   0.845667 0.267684 0.357821 0.214480
C46   C     C_R   0.845972 0.732543 0.858247 0.214037
C47   C     C_R   0.345562 0.767676 0.360133 0.211297
C48   C     C_R   0.345983 0.232303 0.859332 0.213467
C49   C     C_R   0.819614 0.330695 0.103351 0.331734
C50   C     C_R   0.819543 0.669274 0.603618 0.333821
C51   C     C_R   0.319593 0.830840 0.104846 0.343712
C52   C     C_R   0.319777 0.169181 0.604502 0.332330
C53   C     C_R   0.760363 0.277330 0.039615 -0.083672
C54   C     C_R   0.760012 0.722343 0.539852 -0.059161
C55   C     C_R   0.260480 0.777439 0.041004 -0.066814
C56   C     C_R   0.261036 0.222856 0.540520 -0.071877
C57   C     C_R   0.245669 0.718205 0.138406 -0.113297
C58   C     C_R   0.246283 0.282035 0.637992 -0.117028
C59   C     C_R   0.745636 0.218102 0.137096 -0.107967
C60   C     C_R   0.745410 0.781603 0.637197 -0.117252
C61   C     C_R   0.183512 0.667062 0.077314 0.244015
C62   C     C_R   0.183814 0.332977 0.577426 0.234424
C63   C     C_R   0.683468 0.166919 0.076545 0.239370
C64   C     C_R   0.683242 0.832719 0.576544 0.239606
C65   C     C_R   0.155997 0.731769 0.822822 0.208044
C66   C     C_R   0.155579 0.267927 0.323762 0.214004
C67   C     C_R   0.655820 0.231502 0.821918 0.212739
C68   C     C_R   0.654855 0.767430 0.321907 0.181153
C69   C     C_R   0.215277 0.781669 0.883683 -0.242578
C70   C     C_R   0.215551 0.218623 0.383528 -0.251428
C71   C     C_R   0.715026 0.281498 0.882499 -0.243517
C72   C     C_R   0.714481 0.717902 0.382655 -0.267656
H73   H     H_    0.282579 0.670933 0.373604 0.180899
H74   H     H_    0.283797 0.329470 0.872560 0.189674
H75   H     H_    0.782796 0.170936 0.372162 0.180929
H76   H     H_    0.783365 0.829376 0.871479 0.189816
H77   H     H_    0.723845 0.324256 0.805733 0.202080
H78   H     H_    0.724103 0.675756 0.305386 0.194512
H79   H     H_    0.224254 0.824437 0.806991 0.198331
H80   H     H_    0.225004 0.176469 0.306125 0.198308
H81   H     H_    0.898095 0.366849 0.316317 0.169581
H82   H     H_    0.898147 0.633381 0.816859 0.170234
H83   H     H_    0.397884 0.867029 0.318410 0.172940
H84   H     H_    0.397229 0.132446 0.818482 0.171456
C73   C     C_3   0.739817 0.567414 0.810875 -0.956031
H85   H     H_    0.685025 0.543006 0.741934 0.293769
H86   H     H_    0.731688 0.625978 0.803002 0.226503
H87   H     H_    0.790286 0.548204 0.765352 0.248894
C74   C     C_3   0.740014 0.432242 0.311382 -0.954680
H88   H     H_    0.685440 0.456327 0.240911 0.296512
H89   H     H_    0.790836 0.451419 0.266583 0.252617
H90   H     H_    0.731791 0.373656 0.303861 0.227510
C75   C     C_3   0.234615 0.069108 0.810295 -0.959706
H91   H     H_    0.175781 0.049706 0.745056 0.299965
H92   H     H_    0.232288 0.127947 0.808740 0.227947
H93   H     H_    0.281505 0.047961 0.756751 0.253586
C76   C     C_3   0.239222 0.931303 0.313413 -0.960938
H94   H     H_    0.184476 0.955003 0.242886 0.297315
H95   H     H_    0.289614 0.950198 0.266802 0.251911
H96   H     H_    0.231155 0.872655 0.308018 0.229680
C77   C     C_3   0.058662 0.641151 0.865727 -0.702322
H97   H     H_    0.029419 0.622742 0.954581 0.266567
H98   H     H_    0.014321 0.681055 0.812779 0.183745
H99   H     H_    0.064150 0.595640 0.786934 0.247823
C78   C     C_3   0.058348 0.357911 0.366537 -0.695685
H100  H     H_    0.029453 0.377222 0.454781 0.267462
H101  H     H_    0.063884 0.403066 0.286452 0.243579
H102  H     H_    0.014147 0.317387 0.315206 0.186251
C79   C     C_3   0.558405 0.140933 0.865475 -0.701932
H103  H     H_    0.529294 0.122632 0.954596 0.266701
H104  H     H_    0.513939 0.180739 0.812686 0.182813
H105  H     H_    0.563649 0.095358 0.786711 0.248266
C80   C     C_3   0.558691 0.858874 0.365115 -0.707242
H106  H     H_    0.529694 0.877283 0.454161 0.267508
H107  H     H_    0.564463 0.904370 0.286142 0.246834
H108  H     H_    0.514014 0.819093 0.313157 0.177433
S1    S     S_3+6 0.967459 0.045621 0.071695 0.001073
O49   O     O_2   0.910296 0.985622 0.076255 -0.235347
O50   O     O_2   0.985949 0.048962 0.909626 -0.232248
O51   O     O_3   0.051777 0.032446 0.209822 -0.505028
H109  H     H_    0.055825 0.072296 0.286806 0.346193
S2    S     S_3+6 0.965128 0.958284 0.554406 -0.008277
O52   O     O_2   0.037869 0.982866 0.671792 -0.264856
O53   O     O_2   0.985223 0.946760 0.395550 -0.268711
O54   O     O_3   0.893247 0.019893 0.538458 -0.513615
H110  H     H_    0.885219 0.038897 0.428717 0.364363
S3    S     S_3+6 0.469478 0.544091 0.081157 0.004039
O55   O     O_2   0.410636 0.484639 0.076508 -0.236454
O56   O     O_2   0.489839 0.550098 0.921165 -0.227011
O57   O     O_3   0.551767 0.526815 0.221554 -0.519128
H111  H     H_    0.579376 0.572866 0.248495 0.343463
S4    S     S_3+6 0.469177 0.453364 0.577836 -0.001714
O58   O     O_2   0.545025 0.463524 0.700000 -0.270801
O59   O     O_2   0.486971 0.449331 0.415364 -0.254920
O60   O     O_3   0.407003 0.521363 0.584866 -0.482150
H112  H     H_    0.383080 0.533301 0.472355 0.359445

loop_
_geom_bond_atom_site_label_1
_geom_bond_atom_site_label_2
_geom_bond_distance
_ccdc_geom_bond_type
C43   H73   1.075804 S    
C42   H76   1.076220 S    
C33   C65   1.404223 A    
C78   H101  1.107027 S    
P1    O17   1.759076 S    
C73   H86   1.105167 S    
O10   Ba2   2.848740 S    
O16   P15   1.546797 D    
C29   H61   1.104965 S    
P12   C67   1.869120 S    
C20   H44   1.106642 S    
P3    O19   1.763466 S    
O7    Ba4   2.865302 S    
C2    H10   1.103887 S    
C35   C67   1.404733 A    
C25   H49   1.104232 S    
O44   C8    1.415988 S    
O6    Ba1   2.865198 S    
C8    H20   1.102708 S    
S2    O54   1.679443 S    
C9    H23   1.107092 S    
C37   C45   1.391642 A    
P4    C52   1.911652 S    
P2    O2    1.571823 D    
C27   H51   1.105268 S    
P8    C63   1.913049 S    
C79   H103  1.062063 S    
C43   C57   1.412429 A    
P1    C49   1.906724 S    
O11   Ba3   2.851436 S    
C18   H38   1.104337 S    
C10   H72   1.106339 S    
C32   H64   1.110524 S    
C17   H37   1.104601 S    
C3    H5    1.101889 S    
C23   C27   1.520922 S    
C55   C69   1.408215 A    
C74   H90   1.105351 S    
P3    O3    1.573159 D    
P15   C48   1.852654 S    
C24   C28   1.521317 S    
C80   H106  1.062197 S    
P4    O20   1.760602 S    
S3    O57   1.681981 S    
C21   C73   1.488206 S    
O18   C22   1.402865 S    
C39   C47   1.394884 A    
P13   C46   1.855084 S    
C14   H26   1.108141 S    
C15   H27   1.108110 S    
O23   C31   1.407929 S    
C11   H69   1.109856 S    
O1    Ba1   2.883734 S    
O24   C32   1.408969 S    
C73   H87   1.093613 S    
P9    O29   1.755422 S    
Ba1   O46   3.019183 S    
P4    Ba4   3.479530 S    
C33   C61   1.414213 A    
C77   H97   1.062261 S    
C42   C46   1.402568 A    
C5    H17   1.103426 S    
P4    O4    1.571823 D    
O32   Ba4   2.850718 S    
C49   C53   1.447950 A    
C36   C64   1.416291 A    
C23   H47   1.110580 S    
C40   C48   1.394996 A    
C13   C17   1.516746 S    
C36   C80   1.494555 S    
P7    O48   1.600902 S    
P5    O37   1.752396 S    
P7    Ba3   3.481880 S    
C12   S4    1.766120 S    
P6    C61   1.912030 S    
C54   C60   1.446512 A    
P1    O5    1.594686 S    
O60   H112  0.990781 S    
P3    Ba3   3.477431 S    
P5    C62   1.915388 S    
P2    O18   1.760479 S    
O24   P15   1.743431 S    
O41   C5    1.416288 S    
P4    O8    1.595779 S    
P12   O32   1.750873 S    
C75   H91   1.108225 S    
C8    C12   1.527159 S    
C38   H82   1.077398 S    
O28   Ba4   2.887220 S    
P11   O35   1.548250 D    
C28   H52   1.104960 S    
C56   C70   1.407579 A    
C27   H55   1.106412 S    
P8    O47   1.599796 S    
C16   C20   1.517148 S    
P7    O27   1.571129 D    
P5    O25   1.571129 D    
P9    O41   1.752681 S    
C78   H100  1.061042 S    
C18   H42   1.107157 S    
O17   C21   1.402777 S    
C59   C63   1.446998 A    
O15   P16   1.545343 D    
C17   H41   1.108096 S    
C1    H67   1.105401 S    
P11   O43   1.748275 S    
C6    H18   1.105016 S    
C2    H68   1.108473 S    
O13   P14   1.543684 D    
C24   H48   1.109751 S    
P7    O39   1.753869 S    
C15   H31   1.106587 S    
C73   H85   1.099347 S    
C50   C54   1.448677 A    
C51   C55   1.447146 A    
P2    Ba2   3.479530 S    
P11   O31   1.748740 S    
O31   Ba3   2.848022 S    
C71   H77   1.068911 S    
P14   C45   1.849645 S    
Ba3   O47   2.865255 S    
O30   Ba2   2.850718 S    
O40   C15   1.405499 S    
C37   C49   1.396571 A    
P10   O30   1.758505 S    
Ba2   O45   3.020333 S    
C8    H16   1.109203 S    
Ba3   Ba4   4.730468 S    
C22   C74   1.490377 S    
P3    O7    1.594686 S    
C56   C58   1.446816 A    
C34   C78   1.494519 S    
C40   C52   1.398689 A    
C70   H80   1.069005 S    
C13   H29   1.107481 S    
O20   C24   1.402462 S    
C80   H107  1.106736 S    
C22   H46   1.109937 S    
C4    C32   1.499565 S    
P11   C68   1.881067 S    
O4    Ba4   2.886933 S    
S2    O53   1.499201 D    
C12   H70   1.108518 S    
P5    Ba1   3.481880 S    
C24   C76   1.491204 S    
C53   C59   1.444965 A    
C67   C71   1.398764 A    
C54   C72   1.409554 A    
C6    C10   1.528381 S    
C20   H36   1.101241 S    
C39   H83   1.077613 S    
C77   H98   1.095146 S    
C69   H79   1.069397 S    
C52   C56   1.448411 A    
P10   C65   1.870539 S    
O42   C6    1.412778 S    
C74   H88   1.099421 S    
P12   O44   1.750636 S    
C38   C46   1.393719 A    
C33   C77   1.495881 S    
C60   C64   1.447893 A    
C26   H54   1.105803 S    
O9    Ba1   2.851436 S    
C66   C70   1.398820 A    
C44   H74   1.076615 S    
Ba2   O46   2.865154 S    
C34   C62   1.413829 A    
C65   C69   1.398906 A    
C68   C72   1.399397 A    
C21   H45   1.110212 S    
C5    C9    1.527896 S    
P6    O26   1.572465 D    
O12   P15   1.744449 S    
C4    H66   1.108432 S    
O5    Ba2   2.865302 S    
Ba1   Ba2   4.730468 S    
C23   C75   1.493422 S    
C42   C60   1.412486 A    
C41   H75   1.075754 S    
C36   C68   1.408018 A    
C1    H7    1.105640 S    
P8    O40   1.753934 S    
C57   C61   1.447303 A    
C75   H92   1.101790 S    
C19   H39   1.103633 S    
O11   P16   1.749165 S    
C28   H60   1.095987 S    
O14   P13   1.546948 D    
C15   C19   1.516250 S    
O38   C13   1.404404 S    
C58   C62   1.449059 A    
C2    C30   1.502054 S    
C7    C11   1.520502 S    
O37   C14   1.404269 S    
Ba4   O47   3.020333 S    
C12   H22   1.107812 S    
C79   H104  1.094875 S    
C44   C58   1.411262 A    
P12   O36   1.549124 D    
C76   H95   1.094203 S    
O10   P13   1.746419 S    
O21   C29   1.408832 S    
O39   C16   1.404725 S    
P10   O34   1.549014 D    
P1    O1    1.573159 D    
C4    H12   1.103980 S    
C25   H57   1.094696 S    
O2    Ba2   2.886933 S    
C26   H58   1.095805 S    
P2    O6    1.595779 S    
O27   Ba3   2.890455 S    
C13   H25   1.108168 S    
S1    O49   1.500385 D    
C3    H11   1.107213 S    
S4    O58   1.500395 D    
O19   C23   1.404208 S    
C18   H34   1.101954 S    
P16   C47   1.855235 S    
C21   C25   1.520103 S    
O23   P16   1.745046 S    
H2    C30   1.112147 S    
C17   H33   1.100242 S    
Ba3   O48   3.019183 S    
P5    O46   1.600902 S    
C79   H105  1.106419 S    
C41   C45   1.401624 A    
H4    C32   1.112100 S    
C35   C79   1.496770 S    
O21   P14   1.746933 S    
O22   C30   1.408891 S    
C19   H35   1.097542 S    
C28   H56   1.105997 S    
P6    Ba2   3.479733 S    
P2    C50   1.910431 S    
O3    Ba3   2.883734 S    
O51   H109  0.990330 S    
C26   H50   1.104573 S    
C80   H108  1.093954 S    
H1    C29   1.113034 S    
S3    O55   1.500528 D    
P6    O38   1.753141 S    
S2    O52   1.500426 D    
P8    O28   1.572465 D    
C20   H40   1.105205 S    
C27   H59   1.092805 S    
C19   H43   1.107761 S    
C9    S1    1.771518 S    
S1    O51   1.683226 S    
C1    H9    1.109018 S    
C77   H99   1.106592 S    
C14   C18   1.514794 S    
C16   H32   1.106598 S    
O12   Ba4   2.848740 S    
C35   C63   1.414214 A    
C74   H89   1.094085 S    
O25   Ba1   2.890455 S    
O43   C7    1.412093 S    
S3    O56   1.498807 D    
P9    O33   1.547932 D    
C7    H19   1.101978 S    
C72   H78   1.069002 S    
P10   O42   1.755061 S    
O8    Ba3   2.865198 S    
O54   H110  0.989629 S    
S4    O60   1.676627 S    
C38   C50   1.398716 A    
C16   H28   1.108190 S    
C4    H6    1.105382 S    
C3    H65   1.108770 S    
Ba1   O45   2.865255 S    
P7    C64   1.920762 S    
C40   H84   1.077952 S    
C31   H63   1.106563 S    
Ba4   O48   2.865154 S    
P3    C51   1.910617 S    
C75   H93   1.091923 S    
P1    Ba1   3.477431 S    
O9    P14   1.754227 S    
C1    C29   1.510502 S    
C3    C31   1.500802 S    
C53   C71   1.407465 A    
C30   H62   1.110567 S    
O29   Ba1   2.848022 S    
C9    H71   1.105835 S    
C76   H96   1.105770 S    
C44   C48   1.402710 A    
O26   Ba2   2.887220 S    
P6    O45   1.599796 S    
C39   C51   1.399796 A    
P9    C66   1.869023 S    
C22   C26   1.521368 S    
S4    O59   1.498796 D    
P8    Ba4   3.479733 S    
C6    H14   1.109743 S    
C78   H102  1.097108 S    
S1    O50   1.499550 D    
C34   C66   1.403243 A    
C11   H21   1.104464 S    
C5    H13   1.108739 S    
O57   H111  0.987045 S    
C2    H8    1.105196 S    
O22   P13   1.744451 S    
C10   H24   1.109078 S    
C25   H53   1.106872 S    
C37   H81   1.077618 S    
C76   H94   1.098863 S    
C7    H15   1.104341 S    
C10   S2    1.776580 S    
H3    C31   1.109127 S    
C43   C47   1.402224 A    
C14   H30   1.106896 S    
C11   S3    1.769442 S    
C55   C57   1.445065 A    
C41   C59   1.410767 A    
