data_mof_unit_65495.cif
_audit_creation_date              2012-12-10T17:51:38-0500
_audit_creation_method            fapswitch 2.2
_symmetry_space_group_name_H-M    P1
_symmetry_Int_Tables_number       1
_space_group_crystal_system       triclinic
_cell_length_a                    18.725297
_cell_length_b                    18.720668
_cell_length_c                    18.699963
_cell_angle_alpha                 109.148182
_cell_angle_beta                  109.456738
_cell_angle_gamma                 109.529125
_cell_volume                      5063.54336563

loop_
_atom_site_label
_atom_site_type_symbol
_atom_type_description
_atom_site_fract_x
_atom_site_fract_y
_atom_site_fract_z
_atom_type_partial_charge
C1    C     C_R   0.620169 0.119655 0.999335 0.931957
C2    C     C_R   0.509384 0.765269 0.685840 0.524430
C3    C     C_R   0.505622 0.826051 0.748755 -0.300638
C4    C     C_R   0.497554 0.117049 0.120045 0.965393
C5    C     C_R   0.496267 0.811944 0.814605 -0.155938
C6    C     C_R   0.321872 0.821024 0.079479 -0.166780
C7    C     C_R   0.257216 0.757733 0.079441 -0.190734
C8    C     C_R   0.186844 0.685994 0.999961 -0.010830
C9    C     C_R   0.180078 0.677304 0.920512 -0.177415
C10   C     C_R   0.243387 0.741909 0.920515 -0.191531
C11   C     C_R   0.314136 0.813220 0.000004 -0.000755
C12   C     C_R   0.823405 0.245339 0.002822 -0.349927
C13   C     C_R   0.620032 0.501926 0.622146 0.923457
C14   C     C_R   0.498259 0.383747 0.381259 0.987611
C15   C     C_R   0.379945 0.504397 0.383930 0.900784
C16   C     C_R   0.379902 0.879655 0.000012 0.848584
C17   C     C_R   0.499453 0.622690 0.622166 0.920753
C18   C     C_R   0.879954 0.501009 0.880281 0.893782
C19   C     C_R   0.878995 0.379927 0.999236 0.921837
C20   C     C_R   0.120813 0.500081 0.119488 0.865925
C21   C     C_R   0.120356 0.620169 0.999924 0.847695
C22   C     C_R   0.753112 0.579515 0.761683 -0.272592
C23   C     C_R   0.811802 0.313768 0.997960 -0.118214
C24   C     C_R   0.816305 0.579534 0.826190 -0.176601
C25   C     C_R   0.813423 0.500821 0.814319 -0.085892
C26   C     C_R   0.746889 0.421804 0.739347 -0.294185
C27   C     C_R   0.680174 0.420657 0.676400 0.537012
C28   C     C_R   0.498722 0.879553 0.880594 0.893657
C29   C     C_R   0.685602 0.500488 0.687325 -0.121828
C30   C     C_R   0.326473 0.508671 0.248964 -0.263611
C31   C     C_R   0.263759 0.507934 0.181983 0.231241
C32   C     C_R   0.188329 0.501922 0.186090 -0.117042
C33   C     C_R   0.176791 0.499279 0.255397 -0.291487
C34   C     C_R   0.736696 0.318088 0.991789 0.232244
C35   C     C_R   0.240038 0.501734 0.322394 0.220629
C36   C     C_R   0.314311 0.505165 0.317819 -0.093386
C37   C     C_2   0.422102 0.240383 0.253258 -0.294192
C38   C     C_2   0.492463 0.319923 0.307191 -0.396831
C39   C     C_2   0.418448 0.178354 0.176749 0.577437
C40   C     C_2   0.492235 0.175899 0.188399 -0.440240
C41   C     C_R   0.761692 0.181646 0.005791 0.538252
C42   C     C_3   0.597011 0.846134 0.649433 -0.263935
C43   C     C_3   0.560997 0.289473 0.620373 -0.290741
C44   C     C_3   0.352363 0.520211 0.107305 -0.794790
C45   C     C_R   0.673868 0.253169 0.992271 -0.344328
C46   C     C_3   0.277767 0.587013 0.471279 -0.721043
C47   C     C_3   0.281085 0.147526 0.081377 -0.291590
C48   C     C_3   0.841054 0.138952 0.086371 -0.284461
C49   C     C_3   0.689909 0.371957 0.894796 -0.781972
C50   C     C_3   0.457713 0.640719 0.884799 -0.790902
C51   C     C_R   0.686280 0.185547 0.998875 -0.159668
C52   C     C_R   0.485777 0.735041 0.817488 0.235303
C53   C     C_R   0.487405 0.673146 0.752613 -0.288211
C54   C     C_R   0.498763 0.688292 0.687742 -0.187753
H1    H     H_    0.366504 0.221639 0.263627 0.179426
H2    H     H_    0.746368 0.361406 0.730406 0.159694
H3    H     H_    0.544923 0.341309 0.292781 0.154961
H4    H     H_    0.385171 0.512004 0.248648 0.166555
H5    H     H_    0.118579 0.495806 0.257507 0.153737
H6    H     H_    0.550244 0.214659 0.252688 0.130587
H7    H     H_    0.880633 0.241903 0.004818 0.167782
H8    H     H_    0.615309 0.255283 0.987289 0.169378
H9    H     H_    0.604427 0.846257 0.593037 0.186819
H10   H     H_    0.650882 0.839197 0.689391 0.159994
H11   H     H_    0.603150 0.909718 0.687484 0.155393
H12   H     H_    0.479862 0.612859 0.751508 0.179234
H13   H     H_    0.502408 0.233664 0.558409 0.194464
H14   H     H_    0.537844 0.324400 0.659668 0.156388
H15   H     H_    0.595171 0.262349 0.654625 0.152890
H16   H     H_    0.254655 0.553766 0.092913 0.223906
H17   H     H_    0.347227 0.521053 0.046714 0.241392
H18   H     H_    0.357538 0.462125 0.104763 0.243279
H19   H     H_    0.411757 0.581015 0.164104 0.237969
H20   H     H_    0.164942 0.469000 0.378553 0.216229
H21   H     H_    0.252337 0.629787 0.458068 0.232635
H22   H     H_    0.348282 0.617872 0.491772 0.256594
H23   H     H_    0.510808 0.884798 0.746937 0.167686
H24   H     H_    0.270713 0.580404 0.525779 0.232196
H25   H     H_    0.312566 0.215053 0.092196 0.156831
H26   H     H_    0.248866 0.143348 0.121288 0.157444
H27   H     H_    0.229230 0.104729 0.011859 0.190971
H28   H     H_    0.837636 0.178979 0.142945 0.155712
H29   H     H_    0.904190 0.175545 0.090566 0.149041
H30   H     H_    0.838983 0.080678 0.090731 0.191387
H31   H     H_    0.687925 0.402606 0.010609 0.221918
H32   H     H_    0.622783 0.314747 0.851638 0.228949
H33   H     H_    0.732699 0.360715 0.868632 0.231446
H34   H     H_    0.376817 0.876595 0.140971 0.145733
H35   H     H_    0.687847 0.430502 0.894646 0.241682
H36   H     H_    0.435401 0.745719 0.902807 0.217883
H37   H     H_    0.451178 0.643679 0.942453 0.241213
H38   H     H_    0.514355 0.631248 0.890101 0.245267
H39   H     H_    0.396628 0.584846 0.824947 0.235464
H40   H     H_    0.262494 0.763912 0.140927 0.145233
H41   H     H_    0.125275 0.621634 0.859001 0.145830
H42   H     H_    0.238014 0.735900 0.859046 0.141695
H43   H     H_    0.755965 0.640712 0.770139 0.164130
H44   H     H_    0.868307 0.640791 0.884254 0.159822
N1    N     N_2   0.275348 0.515180 0.112033 -0.284978
N2    N     N_2   0.229268 0.501812 0.394345 -0.300913
N3    N     N_2   0.723255 0.385928 0.982871 -0.287020
N4    N     N_2   0.472047 0.721397 0.884159 -0.281575
O1    O     O_R   0.539900 0.091920 0.948590 -0.637616
O2    O     O_R   0.908310 0.551980 0.960300 -0.616372
O3    O     O_R   0.908280 0.357000 0.948510 -0.630760
O4    O     O_R   0.643340 0.091290 0.051390 -0.595725
O5    O     O_R   0.908310 0.459790 0.051330 -0.602664
O6    O     O_R   0.091510 0.448020 0.039520 -0.612238
O7    O     O_R   0.091540 0.550800 0.142340 -0.624111
O8    O     O_R   0.091520 0.540220 0.948490 -0.625390
O9    O     O_R   0.091540 0.643000 0.051310 -0.622771
O10   O     O_R   0.448270 0.091350 0.039630 -0.569132
O11   O     O_R   0.551710 0.090720 0.142430 -0.638673
O12   O     O_R   0.643360 0.554400 0.594170 -0.632300
O13   O     O_R   0.356660 0.908710 0.948610 -0.611894
O14   O     O_R   0.460100 0.908080 0.051410 -0.632690
O15   O     O_R   0.448290 0.909280 0.857570 -0.630391
O16   O     O_R   0.551730 0.908650 0.960370 -0.599526
O17   O     O_R   0.539910 0.450960 0.594180 -0.606542
O18   O     O_3   0.514167 0.776053 0.617398 -0.608830
O19   O     O_3   0.614524 0.343575 0.600333 -0.604196
O20   O     O_3   0.340914 0.117002 0.097909 -0.583458
O21   O     O_3   0.769679 0.110744 0.006059 -0.599990
O22   O     O_R   0.448310 0.360490 0.412110 -0.610970
O23   O     O_R   0.551750 0.463920 0.412090 -0.632631
O24   O     O_R   0.356690 0.452080 0.412090 -0.606607
O25   O     O_R   0.460130 0.555510 0.412070 -0.625687
O26   O     O_R   0.448290 0.542560 0.594160 -0.634755
O27   O     O_R   0.551730 0.645990 0.594150 -0.592603
O28   O     O_R   0.908290 0.449200 0.857490 -0.625533
Zn1   Zn    Zn3+2 0.430930 0.000420 0.931360 0.977947
Zn2   Zn    Zn3+2 0.569070 0.999580 0.068640 0.971563
Zn3   Zn    Zn3+2 0.430950 0.434180 0.503140 0.962067
Zn4   Zn    Zn3+2 0.569090 0.572300 0.503120 0.962353
Zn5   Zn    Zn3+2 0.999890 0.431370 0.931260 0.957847
Zn6   Zn    Zn3+2 0.999930 0.568630 0.068560 0.961984

loop_
_geom_bond_atom_site_label_1
_geom_bond_atom_site_label_2
_ccdc_geom_bond_type
O23   Zn4   S    
C40   H6    S    
O11   Zn2   S    
C27   C29   A    
C49   H33   S    
O28   Zn5   S    
O25   Zn4   S    
C47   H25   S    
C48   O21   S    
C46   H22   S    
C21   O8    A    
C27   O19   S    
C7    C8    A    
O13   Zn1   S    
C53   C54   A    
C52   C53   A    
O4    Zn2   S    
C12   C23   A    
C52   N4    S    
C26   C27   A    
O17   Zn3   S    
C39   O20   S    
O22   Zn3   S    
C24   H44   S    
C13   C29   S    
C22   C29   A    
C28   O15   A    
C49   N3    S    
C30   C31   A    
C44   N1    S    
O9    Zn6   S    
C45   C51   A    
C5    C28   S    
C45   H8    S    
C6    H34   S    
C42   H9    S    
C44   H17   S    
H36   N4    S    
C46   N2    S    
C21   O9    A    
C35   C36   A    
O24   Zn3   S    
C8    C9    A    
C15   O24   A    
C42   H11   S    
C5    C52   A    
C31   N1    S    
C9    C10   A    
C9    H41   S    
C13   O12   A    
C1    O4    A    
O3    Zn5   S    
C4    O10   A    
C33   H5    S    
C22   H43   S    
C15   O25   A    
O7    Zn6   S    
O8    Zn5   S    
C18   C25   S    
C47   H26   S    
C16   O14   A    
C46   H21   S    
C13   O17   A    
C34   N3    S    
C14   O22   A    
C17   O27   A    
C4    C40   S    
C4    O11   A    
C24   C25   A    
O6    Zn5   S    
C2    C54   A    
C6    C11   A    
C46   H24   S    
C2    O18   S    
C43   H14   S    
C47   O20   S    
H20   N2    S    
C25   C26   A    
C20   O7    A    
C19   C23   S    
C37   C38   D    
C14   C38   S    
C38   H3    S    
C1    C51   S    
C11   C16   S    
C31   C32   A    
O14   Zn2   S    
C10   H42   S    
C23   C34   A    
C8    C21   S    
O12   Zn4   S    
C50   H39   S    
C34   C45   A    
C18   O2    A    
C53   H12   S    
C14   O23   A    
C19   O3    A    
C50   H38   S    
C50   N4    S    
C22   C24   A    
C18   O28   A    
C35   N2    S    
C3    H23   S    
C16   O13   A    
C42   H10   S    
C15   C36   S    
C39   C40   D    
H31   N3    S    
H16   N1    S    
C12   C41   A    
C20   C32   S    
C1    O1    A    
C7    H40   S    
C43   O19   S    
O2    Zn6   S    
C49   H32   S    
C49   H35   S    
C3    C5    A    
C26   H2    S    
C17   O26   A    
C6    C7    A    
C48   H29   S    
C30   C36   A    
C32   C33   A    
C41   O21   S    
C2    C3    A    
C37   C39   S    
C28   O16   A    
O26   Zn3   S    
C12   H7    S    
C42   O18   S    
C30   H4    S    
C33   C35   A    
C48   H28   S    
C44   H18   S    
C47   H27   S    
O10   Zn1   S    
C44   H19   S    
O15   Zn1   S    
O16   Zn2   S    
C10   C11   A    
O27   Zn4   S    
C37   H1    S    
C48   H30   S    
C50   H37   S    
C43   H13   S    
C43   H15   S    
O1    Zn1   S    
C17   C54   S    
C41   C51   A    
C20   O6    A    
O5    Zn6   S    
C19   O5    A    
