data_mof_unit_17061.cif
_audit_creation_date              2012-12-10T17:03:25-0500
_audit_creation_method            fapswitch 2.2
_symmetry_space_group_name_H-M    P1
_symmetry_Int_Tables_number       1
_space_group_crystal_system       triclinic
_cell_length_a                    14.979672
_cell_length_b                    11.033508
_cell_length_c                    9.925522
_cell_angle_alpha                 112.068404
_cell_angle_beta                  96.913197
_cell_angle_gamma                 92.93909
_cell_volume                      1500.90801482

loop_
_atom_site_label
_atom_site_type_symbol
_atom_type_description
_atom_site_fract_x
_atom_site_fract_y
_atom_site_fract_z
_atom_type_partial_charge
C1    C     C_R   0.494353 0.253281 0.438914 0.818654
C2    C     C_R   0.507135 0.746732 0.561030 0.818686
C3    C     C_R   0.041836 0.275926 0.482922 -0.211579
C4    C     C_R   0.958173 0.724082 0.517189 -0.211494
C5    C     C_2   0.494635 0.111332 0.401851 0.003302
C6    C     C_2   0.512361 0.888979 0.598081 0.005414
C7    C     C_2   0.519489 0.070924 0.511678 -0.157320
C8    C     C_2   0.518656 0.932015 0.489146 -0.157765
C9    C     C_2   0.513381 0.501856 0.076197 0.238471
C10   C     C_2   0.486687 0.497964 0.923722 0.237248
C11   C     C_R   0.329622 0.501050 0.502510 0.806938
C12   C     C_R   0.670379 0.498943 0.497495 0.803214
C13   C     C_R   0.816084 0.605403 0.499275 -0.270803
C14   C     C_R   0.183910 0.394547 0.500636 -0.270790
C15   C     C_R   0.765905 0.493415 0.491313 -0.092956
C16   C     C_R   0.234099 0.506575 0.508732 -0.094387
C17   C     C_R   0.806455 0.379325 0.483554 0.100851
C18   C     C_R   0.193578 0.620759 0.516820 0.099502
C19   C     C_R   0.901491 0.378646 0.485105 0.106018
C20   C     C_R   0.098532 0.621413 0.515180 0.106451
C21   C     C_R   0.952638 0.496615 0.497274 -0.024001
C22   C     C_R   0.047377 0.503414 0.502910 -0.023644
C23   C     C_R   0.909018 0.608489 0.503844 0.086898
C24   C     C_R   0.090989 0.391508 0.496229 0.086874
C25   C     C_R   0.947972 0.266552 0.476050 0.176442
C26   C     C_R   0.052048 0.733500 0.524217 0.176283
Cu1   Cu    Cu3+1 0.515770 0.521810 0.644910 0.921377
Cu2   Cu    Cu3+1 0.484230 0.478190 0.355090 0.922752
H1    H     H_    0.782347 0.691734 0.505406 0.133808
H2    H     H_    0.217634 0.308170 0.494341 0.134817
H3    H     H_    0.077507 0.191302 0.476964 0.146174
H4    H     H_    0.922496 0.808685 0.523077 0.146073
H5    H     H_    0.521212 0.861986 0.378634 0.166747
H6    H     H_    0.539166 0.142781 0.623116 0.172110
H7    H     H_    0.601408 0.600626 0.921703 0.213222
H8    H     H_    0.398516 0.399615 0.078408 0.213013
N1    N     N_2   0.460520 0.445420 0.137370 -0.298023
N2    N     N_2   0.539480 0.554580 0.862630 -0.299405
O1    O     O_R   0.508410 0.332340 0.577400 -0.609672
O2    O     O_R   0.491590 0.667660 0.422600 -0.607396
O3    O     O_R   0.481780 0.295500 0.332650 -0.561532
O4    O     O_R   0.518220 0.704500 0.667350 -0.561848
O5    O     O_R   0.383570 0.518390 0.622380 -0.591679
O6    O     O_R   0.616430 0.481610 0.377620 -0.592254
O7    O     O_R   0.356940 0.481550 0.377630 -0.571119
O8    O     O_R   0.643060 0.518450 0.622370 -0.572107
N3    N     N_3   0.750523 0.266202 0.474865 -0.611480
H9    H     H_    0.700767 0.238257 0.382277 0.217990
H10   H     H_    0.719061 0.290991 0.568764 0.229743
N4    N     N_3   0.249557 0.734010 0.525965 -0.610607
H11   H     H_    0.299279 0.761729 0.618578 0.218877
H12   H     H_    0.281068 0.709453 0.432134 0.233010
C27   C     C_3   0.901873 0.134866 0.457536 -0.810106
H13   H     H_    0.869045 0.144507 0.555025 0.249285
H14   H     H_    0.851966 0.095492 0.355167 0.251311
H15   H     H_    0.950228 0.060058 0.447164 0.202065
C28   C     C_3   0.098146 0.865198 0.542779 -0.810079
H16   H     H_    0.147974 0.904621 0.645240 0.251158
H17   H     H_    0.131064 0.855555 0.445376 0.249399
H18   H     H_    0.049776 0.939968 0.553007 0.202081
C29   C     C_3   0.508065 0.982043 0.754296 -0.862522
H19   H     H_    0.497879 0.928899 0.827411 0.247481
H20   H     H_    0.572148 0.047981 0.800599 0.234508
H21   H     H_    0.450500 0.041879 0.755725 0.236920
C30   C     C_3   0.466529 0.015205 0.244313 -0.860247
H22   H     H_    0.444287 0.065143 0.169628 0.248003
H23   H     H_    0.524349 0.960642 0.203197 0.233044
H24   H     H_    0.409085 0.944607 0.238132 0.237962
N5    N     N_3   0.399264 0.432390 0.849044 -0.627347
H25   H     H_    0.356213 0.502124 0.842739 0.246909
H26   H     H_    0.403638 0.361228 0.746137 0.263704
N6    N     N_3   0.600914 0.567067 0.150708 -0.628736
H27   H     H_    0.643805 0.497091 0.156797 0.247279
H28   H     H_    0.596693 0.638126 0.253741 0.258829

loop_
_geom_bond_atom_site_label_1
_geom_bond_atom_site_label_2
_ccdc_geom_bond_type
C29   H21   S    
C4    C26   A    
C9    N6    S    
C11   O5    A    
Cu1   O5    S    
C17   N3    S    
C11   C16   S    
N4    H12   S    
N3    H9    S    
C12   C15   S    
C10   N2    D    
C30   H24   S    
C22   C24   A    
C9    N1    D    
N4    H11   S    
C3    C24   A    
N5    H26   S    
C7    C8    S    
N3    H10   S    
C16   C18   A    
C2    C6    S    
C21   C22   A    
Cu1   O1    S    
C3    H3    S    
Cu1   O4    S    
C13   C23   A    
C28   H16   S    
C4    H4    S    
C20   C26   A    
Cu2   N1    S    
C2    O4    A    
C1    C5    S    
C15   C17   A    
C6    C29   S    
N6    H28   S    
H8    N1    S    
C17   C19   A    
C20   C22   A    
C18   C20   A    
C8    H5    S    
C27   H14   S    
C13   C15   A    
C29   H19   S    
C19   C25   A    
C26   C28   S    
C14   C16   A    
Cu2   O7    S    
C28   H17   S    
C11   O7    A    
C1    O1    A    
Cu1   N2    S    
C27   H13   S    
C10   N5    S    
C2    O2    A    
Cu2   O3    S    
C3    C25   A    
H7    N2    S    
Cu1   O8    S    
C7    H6    S    
C18   N4    S    
C5    C30   S    
C30   H22   S    
C9    C10   S    
C27   H15   S    
C14   C24   A    
Cu1   Cu2   S    
C5    C7    D    
C4    C23   A    
Cu2   O2    S    
C12   O6    A    
C28   H18   S    
C6    C8    D    
N5    H25   S    
C19   C21   A    
C14   H2    S    
C21   C23   A    
Cu2   O6    S    
C29   H20   S    
C1    O3    A    
C13   H1    S    
C25   C27   S    
N6    H27   S    
C30   H23   S    
C12   O8    A    
