data_mof_unit_51173.cif
_audit_creation_date              2012-12-11T14:50:37-0500
_audit_creation_method            fapswitch 2.2
_symmetry_space_group_name_H-M    P1
_symmetry_Int_Tables_number       1
_space_group_crystal_system       triclinic
_cell_length_a                    10.928458
_cell_length_b                    10.826055
_cell_length_c                    18.771595
_cell_angle_alpha                 90.24189
_cell_angle_beta                  90.091792
_cell_angle_gamma                 60.047017
_cell_volume                      1924.25463994

loop_
_atom_site_label
_atom_site_type_symbol
_atom_type_description
_atom_site_fract_x
_atom_site_fract_y
_atom_site_fract_z
_atom_type_partial_charge
C1    C     C_R   0.237626 0.646078 0.610191 0.540811
C2    C     C_3   0.639991 0.619762 0.802577 -0.222062
C3    C     C_3   0.727488 0.696340 0.807083 0.020134
C4    C     C_3   0.680077 0.660608 0.673522 0.059483
C5    C     C_3   0.841509 0.581439 0.689801 -0.262452
C6    C     C_3   0.609362 0.602128 0.724599 -0.219565
C7    C     C_R   0.787195 0.149620 0.710034 -0.156515
C8    C     C_R   0.803202 0.131954 0.783803 -0.149305
C9    C     C_R   0.684789 0.166687 0.826664 0.015246
C10   C     C_R   0.550728 0.227057 0.796002 -0.137143
C11   C     C_R   0.536625 0.235826 0.723333 -0.113522
C12   C     C_R   0.656245 0.626170 0.599638 0.548817
C13   C     C_R   0.653921 0.196910 0.679466 0.021332
C14   C     C_R   0.200748 0.548328 0.722783 -0.159613
C15   C     C_R   0.192242 0.553115 0.796957 -0.159502
C16   C     C_R   0.177587 0.672858 0.833729 0.023196
C17   C     C_R   0.183113 0.781550 0.796104 -0.141020
C18   C     C_R   0.189457 0.777671 0.722874 -0.142735
C19   C     C_R   0.199010 0.660988 0.685332 0.012761
C20   C     C_R   0.773366 0.555462 0.283044 -0.199218
C21   C     C_R   0.789573 0.573598 0.212994 -0.167048
C22   C     C_R   0.704242 0.705022 0.180352 -0.018904
C23   C     C_R   0.625988 0.232364 0.604354 0.543532
C24   C     C_R   0.603425 0.820959 0.220561 -0.140061
C25   C     C_R   0.581753 0.801454 0.292679 0.239568
C26   C     C_R   0.668313 0.666368 0.323494 0.031601
C27   C     C_R   0.493105 0.290996 0.269489 -0.191063
C28   C     C_R   0.512442 0.255950 0.198065 -0.156633
C29   C     C_R   0.649370 0.175050 0.171917 -0.011127
C30   C     C_R   0.766534 0.131953 0.216643 -0.123088
C31   C     C_R   0.747440 0.159582 0.288639 0.260790
C32   C     C_R   0.609447 0.245387 0.314534 0.042593
C33   C     C_R   0.312715 0.673773 0.269748 -0.156341
C34   C     C_R   0.288597 0.619672 0.392753 0.525925
C35   C     C_R   0.270581 0.690563 0.199266 -0.128101
C36   C     C_R   0.167719 0.656888 0.178461 0.032493
C37   C     C_R   0.113309 0.599072 0.226796 -0.159708
C38   C     C_R   0.151445 0.587416 0.297516 -0.163658
C39   C     C_R   0.248471 0.628825 0.319254 0.009399
C40   C     C_R   0.701001 0.104922 0.896990 0.536450
C41   C     C_R   0.756077 0.712279 0.882963 0.555395
C42   C     C_R   0.119109 0.705730 0.905603 0.539303
C43   C     C_R   0.674222 0.110247 0.102814 0.541710
C44   C     C_R   0.731431 0.717524 0.105751 0.572533
C45   C     C_R   0.644345 0.626205 0.393677 0.542930
C46   C     C_R   0.097932 0.706048 0.111189 0.539959
C47   C     C_R   0.583340 0.289070 0.387861 0.538946
C48   C     C_3   0.645020 0.843252 0.769075 -0.199356
C49   C     C_3   0.620978 0.822976 0.689202 0.028119
C50   C     C_3   0.868449 0.608650 0.766904 -0.262644
Cr1   Cr    Cr6+3 0.392930 0.397900 0.502230 1.017610
Cr2   Cr    Cr6+3 0.398240 0.708600 0.501260 1.061946
Cr3   Cr    Cr6+3 0.708800 0.393470 0.496460 1.024281
Cr4   Cr    Cr6+3 0.937620 0.938540 0.007640 1.007054
Cr5   Cr    Cr6+3 0.625150 0.937450 0.994520 1.010127
Cr6   Cr    Cr6+3 0.937990 0.625080 0.001190 1.003130
H1    H     H_    0.705268 0.900827 0.773082 0.107621
H2    H     H_    0.649206 0.487046 0.713585 0.128003
H3    H     H_    0.937331 0.504780 0.793484 0.148415
H4    H     H_    0.888621 0.464266 0.682418 0.159371
H5    H     H_    0.878274 0.123291 0.677026 0.132010
H6    H     H_    0.908061 0.083980 0.806607 0.134661
H7    H     H_    0.457580 0.255723 0.827851 0.136814
H8    H     H_    0.432378 0.274468 0.701602 0.160194
H9    H     H_    0.206705 0.457978 0.694749 0.131920
H10   H     H_    0.186761 0.468659 0.824864 0.123821
H11   H     H_    0.173071 0.875197 0.822679 0.144135
H12   H     H_    0.542355 0.910472 0.796471 0.185944
H13   H     H_    0.190009 0.865586 0.695891 0.179451
H14   H     H_    0.840744 0.449776 0.304238 0.163226
H15   H     H_    0.870894 0.481841 0.184713 0.152587
H16   H     H_    0.542388 0.924926 0.196309 0.136351
H17   H     H_    0.387479 0.348622 0.290399 0.137723
H18   H     H_    0.421407 0.286917 0.164147 0.141134
H19   H     H_    0.873648 0.065723 0.197436 0.149532
H20   H     H_    0.393887 0.696802 0.286123 0.112752
H21   H     H_    0.314246 0.733954 0.161663 0.128798
H22   H     H_    0.034624 0.572164 0.210808 0.126123
H23   H     H_    0.104842 0.547004 0.334978 0.134239
H24   H     H_    0.679885 0.860699 0.655868 0.130895
H25   H     H_    0.924129 0.670673 0.766653 0.129926
H26   H     H_    0.896605 0.617370 0.652570 0.114820
H27   H     H_    0.698597 0.512836 0.827911 0.146131
H28   H     H_    0.538394 0.681988 0.831801 0.144234
H29   H     H_    0.493292 0.658544 0.715851 0.169870
O1    O     O_R   0.507430 0.255570 0.581420 -0.497097
O2    O     O_R   0.524460 0.695920 0.424060 -0.482073
O3    O     O_R   0.736530 0.504260 0.414810 -0.538557
O4    O     O_R   0.691460 0.277160 0.422180 -0.452820
O5    O     O_3   0.499990 0.499990 0.499980 -0.296928
O6    O     O_R   0.089490 0.825610 0.930610 -0.522899
O7    O     O_R   0.818370 0.054540 0.929880 -0.501609
O8    O     O_R   0.605870 0.077310 0.915530 -0.531540
O9    O     O_R   0.646440 0.806700 0.917570 -0.498851
O10   O     O_R   0.837200 0.593290 0.915250 -0.514876
O11   O     O_R   0.065330 0.635370 0.931590 -0.518980
O12   O     O_R   0.280190 0.527390 0.578910 -0.504736
O13   O     O_R   0.068300 0.828790 0.091860 -0.521761
O14   O     O_R   0.798730 0.057480 0.079370 -0.508548
O15   O     O_R   0.584680 0.080480 0.076790 -0.530347
O16   O     O_R   0.626790 0.809640 0.067050 -0.491885
O17   O     O_R   0.816010 0.596460 0.076500 -0.515292
O18   O     O_R   0.045680 0.638310 0.081070 -0.522947
O19   O     O_3   0.833590 0.833690 0.001120 -0.280992
O20   O     O_R   0.260310 0.739740 0.584580 -0.495976
O21   O     O_R   0.532250 0.695150 0.573830 -0.445897
O22   O     O_R   0.744930 0.503430 0.576380 -0.532863
O23   O     O_R   0.699250 0.276390 0.571950 -0.504146
O24   O     O_R   0.499020 0.256400 0.419850 -0.526432
O25   O     O_R   0.272400 0.528160 0.429140 -0.526335
O26   O     O_R   0.251910 0.740570 0.423020 -0.532778
O27   O     O_3   0.486851 0.914575 0.334691 -0.558468
C51   C     C_3   0.346976 0.974473 0.308380 0.018819
H30   H     H_    0.283213 0.957049 0.348937 0.181715
H31   H     H_    0.336634 0.927292 0.257348 0.107351
C52   C     C_3   0.285019 0.134261 0.297467 -0.268369
H32   H     H_    0.299184 0.183449 0.346600 0.200513
H33   H     H_    0.341850 0.150579 0.252963 0.163556
C53   C     C_3   0.128415 0.207406 0.278972 -0.481009
H34   H     H_    0.111361 0.159345 0.230246 0.158416
H35   H     H_    0.089328 0.322046 0.268890 0.131556
H36   H     H_    0.067576 0.197776 0.323829 0.192593
O28   O     O_3   0.863546 0.100728 0.333462 -0.568311
C54   C     C_3   0.907300 0.955433 0.346046 -0.001886
H37   H     H_    0.019410 0.902983 0.362353 0.191029
H38   H     H_    0.903535 0.897950 0.297354 0.123719
C55   C     C_3   0.821683 0.939525 0.406561 -0.246708
H39   H     H_    0.823616 0.999916 0.454146 0.198491
H40   H     H_    0.710509 0.982879 0.389279 0.206159
C56   C     C_3   0.880300 0.784100 0.427352 -0.464359
H41   H     H_    0.878938 0.721505 0.380761 0.150562
H42   H     H_    0.813838 0.777050 0.470052 0.157982
H43   H     H_    0.989859 0.738208 0.447601 0.182351
Br1   Br    Br    0.421245 0.947835 0.666302 -0.576030

loop_
_geom_bond_atom_site_label_1
_geom_bond_atom_site_label_2
_ccdc_geom_bond_type
Cr1   O12   S    
Cr6   O10   S    
C49   Br1   S    
C5    H26   S    
C48   H1    S    
C6    H2    S    
Cr2   O5    S    
C35   C36   A    
C40   O8    A    
Cr5   O8    S    
C28   H18   S    
O28   C54   S    
C41   O10   A    
C33   C39   A    
C6    H29   S    
C43   O15   A    
C21   H15   S    
C42   O11   A    
C50   H3    S    
Cr4   O19   S    
C36   C37   A    
C45   O2    A    
C43   O14   A    
C42   O6    A    
Cr1   O5    S    
C38   C39   A    
C38   H23   S    
C15   C16   A    
Cr2   O2    S    
C3    C48   S    
C52   H32   S    
C13   C23   S    
C18   C19   A    
C7    H5    S    
C26   C45   S    
C2    H28   S    
C22   C44   S    
C10   H7    S    
C8    C9    A    
C23   O1    A    
Cr5   O15   S    
C36   C46   S    
C4    C12   S    
C29   C30   A    
C9    C10   A    
C25   O27   S    
C51   C52   S    
C18   H13   S    
C46   O13   A    
Cr2   O21   S    
Cr1   O24   S    
C21   C22   A    
C29   C43   S    
C34   O26   A    
C47   O4    A    
C20   H14   S    
C2    H27   S    
C2    C6    S    
Cr5   O9    S    
Cr1   O1    S    
O27   C51   S    
C3    C50   S    
C53   H35   S    
C17   H11   S    
C1    C19   S    
C34   C39   S    
C7    C8    A    
C45   O3    A    
C24   C25   A    
Cr6   O19   S    
C4    C6    S    
C11   H8    S    
C1    O12   A    
C44   O17   A    
C16   C17   A    
Cr2   O26   S    
C25   C26   A    
C47   O24   A    
C15   H10   S    
Cr5   O19   S    
C35   H21   S    
C9    C40   S    
C40   O7    A    
C56   H42   S    
C55   H40   S    
Cr4   O7    S    
C37   C38   A    
Cr3   O22   S    
C33   H20   S    
C41   O9    A    
C44   O16   A    
C17   C18   A    
C48   H12   S    
C54   C55   S    
C48   C49   S    
Cr2   O20   S    
Cr1   O25   S    
Cr3   O4    S    
C34   O25   A    
C32   C47   S    
C22   C24   A    
Cr4   O14   S    
C56   H43   S    
C55   H39   S    
C16   C42   S    
Cr3   O5    S    
C24   H16   S    
C54   H38   S    
C51   H30   S    
C46   O18   A    
C53   H36   S    
Cr6   O11   S    
C28   C29   A    
C5    H4    S    
C27   C32   A    
C14   C19   A    
C31   C32   A    
Cr6   O18   S    
C4    C5    S    
C12   O22   A    
C53   H34   S    
C52   C53   S    
C37   H22   S    
Cr5   O16   S    
C49   H24   S    
C4    C49   S    
C56   H41   S    
C55   C56   S    
C31   O28   S    
Cr4   O6    S    
C12   O21   A    
C30   H19   S    
C11   C13   A    
Cr3   O23   S    
C30   C31   A    
C20   C26   A    
C23   O23   A    
C33   C35   A    
C14   H9    S    
C52   H33   S    
C2    C3    S    
Cr3   O3    S    
C5    C50   S    
C3    C41   S    
C10   C11   A    
Cr6   O17   S    
C7    C13   A    
C20   C21   A    
C1    O20   A    
C27   C28   A    
C14   C15   A    
Cr4   O13   S    
C27   H17   S    
C50   H25   S    
C8    H6    S    
C54   H37   S    
C51   H31   S    
