data_mof_unit_68106.cif
_audit_creation_date              2013-03-05T15:58:25-0500
_audit_creation_method            fapswitch 2.2
_symmetry_space_group_name_H-M    P1
_symmetry_Int_Tables_number       1
_space_group_crystal_system       triclinic
_cell_length_a                    7.18726
_cell_length_b                    14.520206
_cell_length_c                    15.946157
_cell_angle_alpha                 90.001816
_cell_angle_beta                  89.997732
_cell_angle_gamma                 89.963084
_cell_volume                      1664.14850267

loop_
_atom_site_label
_atom_site_type_symbol
_atom_site_description
_atom_site_fract_x
_atom_site_fract_y
_atom_site_fract_z
_atom_type_partial_charge
O1    O     O_R   0.388780 0.834790 0.412340 -0.594792
O2    O     O_R   0.111220 0.165210 0.912340 -0.594643
O3    O     O_R   0.888780 0.665210 0.587660 -0.589225
O4    O     O_R   0.611220 0.334790 0.087660 -0.589156
O5    O     O_R   0.059040 0.845930 0.587040 -0.540493
O6    O     O_R   0.440960 0.154070 0.087040 -0.540389
O7    O     O_R   0.559040 0.654070 0.412960 -0.550658
O8    O     O_R   0.940960 0.345930 0.912960 -0.550538
C1    C     C_R   0.226755 0.867176 0.616201 1.055775
C2    C     C_R   0.273241 0.132840 0.116213 1.055386
C3    C     C_R   0.726935 0.632586 0.383999 1.033983
C4    C     C_R   0.773080 0.367422 0.884005 1.034383
O9    O     O_R   0.059070 0.845930 0.412970 -0.575748
O10   O     O_R   0.440930 0.154070 0.912970 -0.575651
O11   O     O_R   0.559070 0.654070 0.587030 -0.568130
O12   O     O_R   0.940930 0.345930 0.087030 -0.568316
O13   O     O_R   0.888760 0.665210 0.412340 -0.582656
O14   O     O_R   0.611240 0.334790 0.912340 -0.582933
O15   O     O_R   0.388760 0.834790 0.587660 -0.593438
O16   O     O_R   0.111240 0.165210 0.087660 -0.593618
C5    C     C_R   0.227482 0.869025 0.385648 1.073618
C6    C     C_R   0.272511 0.130950 0.885670 1.073323
C7    C     C_R   0.727688 0.632183 0.615371 1.046415
C8    C     C_R   0.772307 0.367806 0.115379 1.046143
O17   O     O_3   0.222280 0.690700 0.500000 -0.251757
O18   O     O_3   0.277720 0.309300 0.000000 -0.251785
O19   O     O_3   0.722280 0.809300 0.500000 -0.261565
O20   O     O_3   0.777720 0.190700 0.000000 -0.261504
V1    V     V_3+5 0.947430 0.761000 0.500000 1.340095
V2    V     V_3+5 0.552570 0.239000 0.000000 1.340149
V3    V     V_3+5 0.447430 0.739000 0.500000 1.340349
V4    V     V_3+5 0.052570 0.261000 0.000000 1.340290
C9    C     C_3   0.921465 0.573741 0.737602 -0.505345
C10   C     C_3   0.578263 0.426431 0.237476 -0.505835
C11   C     C_3   0.390638 0.913936 0.251884 -0.462704
C12   C     C_3   0.109213 0.086011 0.751965 -0.462475
H1    H     H_    0.044573 0.560001 0.697076 0.183342
H2    H     H_    0.455386 0.440391 0.196878 0.183705
H3    H     H_    0.526279 0.903511 0.284191 0.173917
H4    H     H_    0.973574 0.096262 0.784323 0.174371
H5    H     H_    0.933384 0.646282 0.759066 0.289657
H6    H     H_    0.565837 0.353886 0.258864 0.289496
H7    H     H_    0.352659 0.847280 0.222375 0.306217
H8    H     H_    0.146922 0.152754 0.722543 0.306067
C13   C     C_3   0.928828 0.508419 0.814788 0.733457
C14   C     C_3   0.571038 0.491684 0.314724 0.733387
C15   C     C_3   0.417431 0.987348 0.182580 0.726055
C16   C     C_3   0.082592 0.012679 0.682574 0.726176
H9    H     H_    0.066505 0.474030 0.814920 0.110976
H10   H     H_    0.433445 0.526166 0.314887 0.110930
H11   H     H_    0.559403 0.015710 0.189125 0.102940
H12   H     H_    0.940590 0.984322 0.689004 0.103164
H13   H     H_    0.856258 0.461880 0.603388 0.159088
H14   H     H_    0.644713 0.538205 0.103227 0.159281
H15   H     H_    0.426610 0.030490 0.379414 0.138711
H16   H     H_    0.073548 0.969445 0.879497 0.138868
C17   C     C_3   0.740760 0.459581 0.649616 0.018096
C18   C     C_3   0.759813 0.540409 0.149645 0.018641
C19   C     C_3   0.285649 0.039708 0.351467 0.009867
C20   C     C_3   0.214449 0.960249 0.851477 0.009975
C21   C     C_3   0.578011 0.573165 0.749548 -0.317370
C22   C     C_3   0.921637 0.426616 0.249696 -0.317326
C23   C     C_3   0.051397 0.948172 0.266716 -0.380712
C24   C     C_3   0.448495 0.051878 0.766692 -0.380050
C25   C     C_3   0.738213 0.560552 0.685747 -0.299135
C26   C     C_3   0.761776 0.439425 0.185762 -0.299128
C27   C     C_3   0.236538 0.941886 0.316208 -0.290687
C28   C     C_3   0.263429 0.058088 0.816232 -0.291421
H17   H     H_    0.439772 0.578697 0.719291 0.214674
H18   H     H_    0.059944 0.420808 0.219551 0.214795
H19   H     H_    0.934713 0.971873 0.306706 0.213808
H20   H     H_    0.565341 0.028319 0.806653 0.213784
H21   H     H_    0.599421 0.639963 0.782066 0.271124
H22   H     H_    0.899683 0.359892 0.282268 0.271206
H23   H     H_    0.011639 0.877972 0.247054 0.253476
H24   H     H_    0.487869 0.122101 0.746980 0.253883
C29   C     C_3   0.765952 0.436461 0.810700 -0.550568
C30   C     C_3   0.734108 0.563548 0.310694 -0.550259
C31   C     C_3   0.266072 0.064274 0.189888 -0.556010
C32   C     C_3   0.233910 0.935736 0.689880 -0.556256
C33   C     C_3   0.787641 0.385876 0.721166 0.304277
C34   C     C_3   0.712656 0.614131 0.221146 0.303818
C35   C     C_3   0.298805 0.114651 0.278521 0.310724
C36   C     C_3   0.201150 0.885341 0.778500 0.310920
C37   C     C_3   0.575927 0.492676 0.813053 0.181105
C38   C     C_3   0.923986 0.507198 0.313106 0.181772
C39   C     C_3   0.069760 0.014082 0.190482 0.180495
C40   C     C_3   0.430238 0.985908 0.690499 0.180410
H25   H     H_    0.462572 0.446748 0.792421 0.168527
H26   H     H_    0.037498 0.552980 0.292389 0.168696
H27   H     H_    0.958986 0.066640 0.197205 0.167848
H28   H     H_    0.540964 0.933339 0.697301 0.167893
N1    N     N_R   0.575967 0.433547 0.599845 0.290834
O21   O     O_R   0.587311 0.363270 0.549452 -0.126306
O22   O     O_R   0.419199 0.477981 0.604139 -0.327239
N2    N     N_R   0.925092 0.566339 0.100154 0.290693
O23   O     O_R   0.914219 0.636486 0.049599 -0.126319
O24   O     O_R   0.081849 0.521960 0.104871 -0.328120
N3    N     N_R   0.166538 0.071116 0.421121 0.295179
O25   O     O_R   0.210238 0.146319 0.460814 -0.129071
O26   O     O_R   0.012717 0.029470 0.441189 -0.286025
N4    N     N_R   0.333708 0.928831 0.921068 0.295223
O27   O     O_R   0.290062 0.853635 0.960783 -0.129200
O28   O     O_R   0.487548 0.970487 0.941086 -0.285888
N5    N     N_R   0.665853 0.303686 0.715813 0.251323
O29   O     O_R   0.737735 0.223511 0.698563 -0.325820
O30   O     O_R   0.486231 0.309094 0.724406 -0.350005
N6    N     N_R   0.834406 0.696334 0.215755 0.250866
O31   O     O_R   0.763052 0.776155 0.196931 -0.322390
O32   O     O_R   0.013771 0.691104 0.225316 -0.351553
N7    N     N_R   0.159007 0.188849 0.288486 0.254215
O33   O     O_R   0.209403 0.274350 0.279711 -0.385855
O34   O     O_R   0.985807 0.171683 0.306458 -0.321963
N8    N     N_R   0.340821 0.811079 0.788393 0.254324
O35   O     O_R   0.290407 0.725629 0.779193 -0.386667
O36   O     O_R   0.514024 0.828140 0.806440 -0.321733
F1    F     F_    0.925244 0.558737 0.888178 -0.569485
F2    F     F_    0.574523 0.441281 0.388065 -0.569344
F3    F     F_    0.414872 0.946084 0.104715 -0.566730
F4    F     F_    0.085393 0.054038 0.604756 -0.566665
N9    N     N_R   0.982202 0.353460 0.707229 0.216613
O37   O     O_R   0.075490 0.315851 0.768034 -0.412122
O38   O     O_R   0.037697 0.334331 0.631396 -0.214285
N10   N     N_R   0.518083 0.646519 0.207205 0.216529
O39   O     O_R   0.425228 0.684568 0.267917 -0.412251
O40   O     O_R   0.462103 0.665126 0.131344 -0.214493
N11   N     N_R   0.485428 0.158253 0.287628 0.216251
O41   O     O_R   0.600254 0.169499 0.225621 -0.432496
O42   O     O_R   0.529686 0.195603 0.359177 -0.210874
N12   N     N_R   0.014480 0.841798 0.787622 0.216249
O43   O     O_R   0.899613 0.830598 0.725628 -0.432429
O44   O     O_R   0.970266 0.804404 0.859156 -0.211099
N13   N     N_R   0.522539 0.525390 0.897273 0.258642
O45   O     O_R   0.599024 0.597856 0.930563 -0.208423
O46   O     O_R   0.374654 0.491630 0.932882 -0.313068
N14   N     N_R   0.977302 0.474580 0.397358 0.258580
O47   O     O_R   0.900700 0.402186 0.430717 -0.208594
O48   O     O_R   0.125242 0.508325 0.432929 -0.313045
N15   N     N_R   0.029678 0.965436 0.111319 0.272189
O49   O     O_R   0.078472 0.879868 0.100821 -0.189491
O50   O     O_R   0.912811 0.001382 0.058262 -0.324240
N16   N     N_R   0.470508 0.034478 0.611314 0.272147
O51   O     O_R   0.421924 0.120068 0.600764 -0.189445
O52   O     O_R   0.587427 0.998453 0.558318 -0.324372

loop_
_geom_bond_atom_site_label_1
_geom_bond_atom_site_label_2
_geom_bond_distance
_ccdc_geom_bond_type
O17   V3    1.764066 S    
O1    C5    1.330992 A    
N1    O21   1.301338 A    
H15   C19   1.114814 S    
O19   V1    1.763236 S    
C9    C13   1.554797 S    
O3    C7    1.329078 A    
N7    O33   1.301031 A    
C10   H6    1.110872 S    
C15   C31   1.563031 S    
C32   C36   1.608771 S    
O15   V3    2.016288 S    
C10   C26   1.567012 S    
C31   C39   1.588504 S    
N8    O35   1.301091 A    
C9    C25   1.567012 S    
C16   F4    1.378741 S    
O7    C3    1.328981 A    
N5    O30   1.300554 A    
C14   F2    1.379866 S    
C24   C28   1.549561 S    
O9    V1    2.022839 S    
C19   C35   1.595725 S    
C39   H27   1.107686 S    
C18   C34   1.600043 S    
H14   C18   1.110561 S    
O4    C8    1.329054 A    
C21   H17   1.107400 S    
O1    V3    2.016344 S    
O13   V1    2.016688 S    
N6    O31   1.302186 A    
C22   H18   1.107328 S    
O2    V4    2.016261 S    
C40   N16   1.475063 S    
O3    V1    2.016695 S    
C18   N2    1.475201 S    
C19   C27   1.568077 S    
C18   C26   1.575431 S    
C40   H28   1.107686 S    
C2    O16   1.335395 A    
N2    O24   1.299738 A    
O2    C6    1.330930 A    
N12   O44   1.302780 A    
C10   C14   1.554862 S    
C34   N6    1.482959 S    
C11   H7    1.110411 S    
C8    C26   1.531872 S    
C23   C39   1.552844 S    
C30   C38   1.591204 S    
O11   C7    1.331734 A    
C11   C15   1.547578 S    
O12   C8    1.331727 A    
C17   N1    1.475209 S    
C5    C27   1.532894 S    
O10   C6    1.329662 A    
O10   V2    2.022830 S    
C20   N4    1.474409 S    
C34   N10   1.491785 S    
C1    O15   1.335390 A    
O5    V1    2.022851 S    
N15   O49   1.301603 A    
C23   C27   1.549755 S    
O7    V3    2.022179 S    
C22   C26   1.547233 S    
O8    V4    2.022276 S    
C12   H4    1.112907 S    
N14   O48   1.301186 A    
C38   H26   1.103326 S    
C39   N15   1.475009 S    
C14   C30   1.571052 S    
C37   H25   1.103378 S    
O18   V4    1.764066 S    
C15   H11   1.105544 S    
C21   H21   1.110623 S    
C9    H1    1.113567 S    
H16   C20   1.114813 S    
C33   N9    1.491796 S    
C1    C32   1.540810 S    
C11   H3    1.112907 S    
N11   O42   1.302791 A    
N2    O23   1.301305 A    
O5    C1    1.328506 A    
C3    C30   1.540721 S    
C22   C38   1.546508 S    
C30   C34   1.613129 S    
N3    O25   1.300794 A    
C13   H9    1.108085 S    
O8    C4    1.328918 A    
C4    C29   1.540774 S    
C24   H24   1.104069 S    
O9    C5    1.329622 A    
N7    O34   1.301629 A    
N4    O28   1.300448 A    
C6    C28   1.532852 S    
N9    O37   1.299038 A    
C21   C37   1.546511 S    
O14   V2    2.016725 S    
C38   N14   1.475133 S    
N3    O26   1.300448 A    
C23   H19   1.108140 S    
N13   O45   1.300726 A    
C35   N7    1.481250 S    
C12   H8    1.110468 S    
C20   C36   1.595762 S    
N11   O41   1.298277 A    
C15   F3    1.378766 S    
N10   O40   1.303127 A    
O16   V4    2.016374 S    
C13   F1    1.379841 S    
C33   N5    1.482933 S    
C3    O13   1.334961 A    
C36   N8    1.481202 S    
O6    V2    2.022862 S    
C10   H2    1.113544 S    
C17   C25   1.575337 S    
N14   O47   1.300690 A    
H13   C17   1.110679 S    
O6    C2    1.328524 A    
N8    O36   1.301642 A    
C2    C31   1.540843 S    
C12   C28   1.562913 S    
O11   V3    2.022252 S    
O12   V4    2.022154 S    
N5    O29   1.302697 A    
C14   H10   1.108160 S    
C9    H5    1.110869 S    
C7    C25   1.531951 S    
O20   V2    1.763237 S    
N12   O43   1.298275 A    
C32   C40   1.588462 S    
C31   C35   1.608780 S    
N15   O50   1.301263 A    
C16   C32   1.563010 S    
C23   H23   1.104226 S    
C19   N3    1.474433 S    
C36   N12   1.490635 S    
N6    O32   1.300303 A    
C12   C16   1.547572 S    
N16   O52   1.301276 A    
C24   H20   1.108167 S    
N4    O27   1.300799 A    
C17   C33   1.600100 S    
C35   N11   1.490682 S    
N9    O38   1.303203 A    
C11   C27   1.562940 S    
C29   C37   1.591079 S    
C21   C25   1.547252 S    
C16   H12   1.105543 S    
C20   C28   1.568029 S    
N1    O22   1.299823 A    
C29   C33   1.613053 S    
C4    O14   1.335043 A    
N13   O46   1.301184 A    
N16   O51   1.301613 A    
C22   H22   1.110650 S    
C13   C29   1.570951 S    
C24   C40   1.552777 S    
O4    V2    2.016656 S    
C37   N13   1.475192 S    
N10   O39   1.298977 A    
