data_mof_unit_40199.cif
_audit_creation_date              2012-12-11T14:18:00-0500
_audit_creation_method            fapswitch 2.2
_symmetry_space_group_name_H-M    P1
_symmetry_Int_Tables_number       1
_space_group_crystal_system       triclinic
_cell_length_a                    11.151084
_cell_length_b                    11.21412
_cell_length_c                    18.86498
_cell_angle_alpha                 90.141779
_cell_angle_beta                  90.051712
_cell_angle_gamma                 120.265392
_cell_volume                      2037.50625414

loop_
_atom_site_label
_atom_site_type_symbol
_atom_type_description
_atom_site_fract_x
_atom_site_fract_y
_atom_site_fract_z
_atom_type_partial_charge
C1    C     C_R   0.519863 0.458782 0.147644 0.532072
C2    C     C_R   0.540747 0.061159 0.147547 0.534200
C3    C     C_R   0.938420 0.479735 0.147529 0.532673
C4    C     C_R   0.454099 0.521482 0.854232 0.551732
C5    C     C_R   0.067302 0.546285 0.854061 0.556126
C6    C     C_R   0.479208 0.932940 0.854121 0.554404
C7    C     C_R   0.441927 0.052874 0.472482 0.024439
C8    C     C_R   0.946415 0.393851 0.470937 -0.013591
C9    C     C_R   0.609179 0.570196 0.470548 0.024106
C10   C     C_R   0.982787 0.418575 0.542570 0.008196
C11   C     C_R   0.438877 0.022708 0.544643 0.026304
C12   C     C_R   0.582012 0.575974 0.542673 0.001743
C13   C     C_R   0.668402 0.879189 0.534353 -0.033856
C14   C     C_R   0.136338 0.792817 0.534846 -0.116118
C15   C     C_R   0.205294 0.337092 0.535297 -0.069696
C16   C     C_R   0.156457 0.743589 0.393110 -0.092337
C17   C     C_R   0.585339 0.846538 0.393805 -0.100498
C18   C     C_R   0.252934 0.404871 0.393203 -0.067330
C19   C     C_R   0.753811 0.875251 0.481321 -0.070942
C20   C     C_R   0.131258 0.879477 0.483378 -0.074417
C21   C     C_R   0.114720 0.246666 0.484111 -0.087844
C22   C     C_R   0.148285 0.858289 0.412320 -0.050568
C23   C     C_R   0.709472 0.854281 0.410909 -0.093967
C24   C     C_R   0.134470 0.284638 0.413049 -0.083097
C25   C     C_R   0.519595 0.459620 0.352741 0.570527
C26   C     C_R   0.539689 0.059806 0.352494 0.578186
C27   C     C_R   0.941727 0.481846 0.351725 0.564451
C28   C     C_R   0.420410 0.544092 0.638771 0.521213
C29   C     C_R   0.122462 0.578326 0.638804 0.524166
C30   C     C_R   0.458193 0.881653 0.638395 0.516719
C31   C     C_R   0.494093 0.974141 0.928801 0.002471
C32   C     C_R   0.025515 0.519715 0.928665 0.002259
C33   C     C_R   0.480357 0.507458 0.929057 0.002330
C34   C     C_R   0.002568 0.497759 0.077037 -0.001873
C35   C     C_R   0.493959 0.996803 0.077093 -0.002023
C36   C     C_R   0.501675 0.505240 0.077426 -0.001580
C37   C     C_R   0.409743 0.019857 0.960616 0.017953
C38   C     C_R   0.980208 0.390130 0.960597 0.017653
C39   C     C_R   0.610486 0.592852 0.961561 0.017298
C40   C     C_R   0.983357 0.382476 0.035543 0.031084
C41   C     C_R   0.398254 0.016761 0.035500 0.030373
C42   C     C_R   0.617775 0.602878 0.036557 0.031341
C43   C     C_R   0.573024 0.948085 0.044449 -0.146049
C44   C     C_R   0.050413 0.625014 0.044265 -0.145914
C45   C     C_R   0.373790 0.425303 0.044186 -0.146738
C46   C     C_R   0.064580 0.636352 0.971645 -0.138220
C47   C     C_R   0.570667 0.934035 0.971809 -0.138132
C48   C     C_R   0.362729 0.428846 0.971554 -0.137920
C49   C     C_R   0.335104 0.066763 0.919925 -0.091950
C50   C     C_R   0.933563 0.268328 0.919995 -0.091687
C51   C     C_R   0.733201 0.669648 0.921554 -0.092983
C52   C     C_R   0.966040 0.259423 0.065775 -0.085777
C53   C     C_R   0.292369 0.035005 0.065586 -0.086126
C54   C     C_R   0.741419 0.709220 0.067520 -0.085638
C55   C     C_R   0.238694 0.093639 0.951685 -0.128584
C56   C     C_R   0.907356 0.145893 0.951899 -0.129041
C57   C     C_R   0.856335 0.766209 0.954197 -0.129740
C58   C     C_R   0.925787 0.142353 0.024439 -0.136935
C59   C     C_R   0.216060 0.075635 0.024161 -0.136485
C60   C     C_R   0.859539 0.787221 0.026845 -0.136880
C61   C     C_R   0.482778 0.931820 0.565619 -0.024307
C62   C     C_R   0.080688 0.553481 0.564241 -0.056747
C63   C     C_R   0.444941 0.527241 0.564331 -0.065809
C64   C     C_R   0.012350 0.500813 0.420111 -0.019888
C65   C     C_R   0.486765 0.990353 0.421108 -0.005287
C66   C     C_R   0.499516 0.515363 0.419762 -0.020562
C67   C     C_R   0.552070 0.891842 0.516066 0.009520
C68   C     C_R   0.123203 0.664410 0.515183 -0.045965
C69   C     C_R   0.334184 0.452520 0.515279 -0.039315
C70   C     C_R   0.109985 0.634669 0.441985 0.007253
C71   C     C_R   0.527537 0.897176 0.443260 0.017837
C72   C     C_R   0.363174 0.469219 0.442055 0.007394
Cr1   Cr    Cr6+3 0.768550 0.541320 0.250660 1.037487
Cr2   Cr    Cr6+3 0.458680 0.227230 0.250660 1.035406
Cr3   Cr    Cr6+3 0.772770 0.231450 0.250660 1.004002
Cr4   Cr    Cr6+3 0.541320 0.768550 0.749340 1.022289
Cr5   Cr    Cr6+3 0.227230 0.458680 0.749340 1.026960
Cr6   Cr    Cr6+3 0.231450 0.772770 0.749340 1.023737
H1    H     H_    0.641416 0.925475 0.075047 0.132310
H2    H     H_    0.072528 0.715907 0.074746 0.133002
H3    H     H_    0.282325 0.355547 0.074285 0.131808
H4    H     H_    0.107732 0.738669 0.949253 0.150747
H5    H     H_    0.629549 0.890390 0.949398 0.150321
H6    H     H_    0.259881 0.369029 0.948746 0.151008
H7    H     H_    0.351477 0.084823 0.863582 0.143401
H8    H     H_    0.915044 0.265702 0.863614 0.148541
H9    H     H_    0.736113 0.654693 0.865107 0.148777
H10   H     H_    0.988267 0.252534 0.120796 0.129709
H11   H     H_    0.262768 0.013322 0.120550 0.129107
H12   H     H_    0.748022 0.737609 0.122687 0.128685
H13   H     H_    0.180046 0.126678 0.919808 0.120920
H14   H     H_    0.874428 0.054024 0.920099 0.120993
H15   H     H_    0.948989 0.826173 0.922890 0.120730
H16   H     H_    0.907609 0.048226 0.049276 0.099896
H17   H     H_    0.139970 0.094418 0.048868 0.098894
H18   H     H_    0.954144 0.863409 0.052305 0.098488
H19   H     H_    0.706970 0.889544 0.587428 0.193000
H20   H     H_    0.133744 0.823278 0.588393 0.192195
H21   H     H_    0.175697 0.304034 0.588890 0.202274
H22   H     H_    0.166494 0.727453 0.337275 0.096544
H23   H     H_    0.554586 0.833075 0.338513 0.098445
H24   H     H_    0.268421 0.430383 0.337339 0.099117
H25   H     H_    0.852942 0.885966 0.494941 0.172490
H26   H     H_    0.121289 0.966909 0.498975 0.176480
H27   H     H_    0.027080 0.149530 0.500387 0.159303
H28   H     H_    0.151906 0.928095 0.371833 0.153390
H29   H     H_    0.772658 0.849056 0.368982 0.150021
H30   H     H_    0.061922 0.219523 0.372688 0.090060
O1    O     O_R   0.910960 0.572410 0.171010 -0.529004
O2    O     O_R   0.427590 0.338550 0.171010 -0.530412
O3    O     O_R   0.661450 0.089040 0.171010 -0.528361
O4    O     O_R   0.572410 0.910960 0.828990 -0.517120
O5    O     O_R   0.338550 0.427590 0.828990 -0.519106
O6    O     O_R   0.089040 0.661450 0.828990 -0.514997
O7    O     O_R   0.639750 0.528530 0.175600 -0.521821
O8    O     O_R   0.471470 0.111220 0.175600 -0.522083
O9    O     O_R   0.888780 0.360250 0.175600 -0.520926
O10   O     O_R   0.528530 0.639750 0.824400 -0.505979
O11   O     O_R   0.111220 0.471470 0.824400 -0.506145
O12   O     O_R   0.360250 0.888780 0.824400 -0.505759
O13   O     O_R   0.909330 0.572400 0.331540 -0.452485
O14   O     O_R   0.427600 0.336930 0.331540 -0.461706
O15   O     O_R   0.663070 0.090670 0.331540 -0.494422
O16   O     O_R   0.572400 0.909330 0.668460 -0.520495
O17   O     O_R   0.336930 0.427600 0.668460 -0.506327
O18   O     O_R   0.090670 0.663070 0.668460 -0.514440
O19   O     O_R   0.638240 0.528520 0.324410 -0.487943
O20   O     O_R   0.471480 0.109720 0.324410 -0.491084
O21   O     O_R   0.890280 0.361760 0.324410 -0.522191
O22   O     O_R   0.528520 0.638240 0.675590 -0.485836
O23   O     O_R   0.109720 0.471480 0.675590 -0.492895
O24   O     O_R   0.361760 0.890280 0.675590 -0.488701
O25   O     O_3   0.666667 0.333333 0.250630 -0.244450
O26   O     O_3   0.333333 0.666667 0.749370 -0.321285
C73   C     C_2   0.420165 0.167858 0.456163 0.640218
O27   O     O_2   0.317602 0.150152 0.424237 -0.528066
O28   O     O_R   0.505196 0.291400 0.490038 -0.615337
H31   H     H_    0.448898 0.310287 0.524823 0.340917
C74   C     C_2   0.812219 0.270984 0.454566 0.649241
O29   O     O_2   0.714931 0.284659 0.437808 -0.397865
O30   O     O_R   0.794346 0.140712 0.458606 -0.669378
H32   H     H_    0.862997 0.132527 0.427640 0.291177
C75   C     C_2   0.747892 0.593126 0.454789 0.646959
O31   O     O_2   0.829686 0.688644 0.418092 -0.531173
O32   O     O_R   0.791932 0.518635 0.493416 -0.618317
H33   H     H_    0.875162 0.583544 0.522087 0.338873
C76   C     C_2   0.892616 0.312952 0.595989 0.649677
O33   O     O_2   0.822783 0.338036 0.636682 -0.398137
O34   O     O_R   0.888983 0.186924 0.600011 -0.716839
H34   H     H_    0.827592 0.126897 0.639869 0.352977
C77   C     C_2   0.408314 0.100967 0.599433 0.610876
O35   O     O_2   0.297535 0.098699 0.599048 -0.577331
O36   O     O_R   0.507690 0.176755 0.651385 -0.584485
H35   H     H_    0.475807 0.225259 0.685413 0.359315
C78   C     C_2   0.691928 0.603255 0.597048 0.628501
O37   O     O_2   0.674623 0.511213 0.637827 -0.414789
O38   O     O_R   0.813931 0.731545 0.600770 -0.762595
H36   H     H_    0.878820 0.735827 0.639635 0.347412

loop_
_geom_bond_atom_site_label_1
_geom_bond_atom_site_label_2
_ccdc_geom_bond_type
C2    C35   S    
C39   C51   A    
O38   H36   S    
C55   C59   A    
C5    O6    A    
C78   O38   S    
C36   C42   A    
C76   O33   D    
Cr3   O9    S    
C58   H16   S    
O32   H33   S    
C53   C59   A    
C73   O27   D    
C54   C60   A    
C7    C11   A    
C17   C23   A    
C5    O11   A    
C8    C74   S    
C34   C40   A    
C40   C52   A    
C76   O34   S    
C54   H12   S    
C18   H24   S    
C4    C33   S    
C43   H1    S    
C75   O31   D    
Cr2   O25   S    
C73   O28   S    
Cr5   O23   S    
C17   H23   S    
C9    C66   A    
C55   H13   S    
C3    O9    A    
C46   H4    S    
C19   H25   S    
Cr2   O20   S    
C63   C69   A    
C65   C71   A    
C77   O35   D    
C51   C57   A    
C32   C38   A    
C35   C43   A    
C25   O14   A    
C28   O22   A    
C10   C76   S    
C5    C32   S    
C32   C46   A    
C6    C31   S    
C23   H29   S    
C38   C40   A    
C31   C47   A    
C29   O18   A    
C33   C48   A    
C37   C41   A    
C4    O10   A    
C10   C62   A    
C59   H17   S    
Cr5   O5    S    
C6    O12   A    
C44   C46   A    
Cr5   O26   S    
C14   H20   S    
C39   C42   A    
C18   C72   A    
C15   C69   A    
C66   C72   A    
C2    O3    A    
C13   C19   A    
Cr4   O16   S    
C49   H7    S    
C4    O5    A    
C44   H2    S    
C16   C70   A    
C18   C24   A    
C27   C64   S    
C51   H9    S    
C9    C75   S    
C12   C63   A    
Cr4   O26   S    
C19   C23   A    
C16   H22   S    
C57   C60   A    
C26   O20   A    
C3    C34   S    
C11   C61   A    
C22   H28   S    
Cr4   O10   S    
C31   C37   A    
C69   C72   A    
Cr6   O12   S    
C7    C73   S    
C14   C20   A    
C1    O2    A    
C7    C65   A    
C37   C49   A    
C61   C67   A    
C52   H10   S    
Cr4   O4    S    
Cr2   O8    S    
C34   C44   A    
C36   C45   A    
C33   C39   A    
Cr6   O26   S    
C41   C53   A    
C52   C58   A    
C8    C64   A    
C24   H30   S    
C60   H18   S    
C11   C77   S    
Cr2   O14   S    
C30   O16   A    
C17   C71   A    
C64   C70   A    
C53   H11   S    
C27   O21   A    
Cr3   O15   S    
C21   C24   A    
C26   O15   A    
C12   C78   S    
Cr6   O18   S    
Cr5   O17   S    
C28   O17   A    
Cr6   O24   S    
C13   C67   A    
C45   C48   A    
C75   O32   S    
C29   C62   S    
Cr6   O6    S    
C16   C22   A    
C26   C65   S    
C6    O4    A    
C45   H3    S    
C25   C66   S    
C20   C22   A    
Cr5   O11   S    
C49   C55   A    
Cr2   O2    S    
C2    O8    A    
C74   O29   D    
Cr3   O25   S    
Cr1   O1    S    
C38   C50   A    
O28   H31   S    
Cr3   O3    S    
Cr1   O7    S    
C62   C68   A    
C25   O19   A    
Cr1   O19   S    
O34   H34   S    
C42   C54   A    
C15   H21   S    
C74   O30   S    
C29   O23   A    
C3    O1    A    
C30   O24   A    
C56   C58   A    
C67   C71   A    
C77   O36   S    
C13   H19   S    
C35   C41   A    
C9    C12   A    
C50   C56   A    
C20   H26   S    
C50   H8    S    
C47   H5    S    
C28   C63   S    
C48   H6    S    
C15   C21   A    
C8    C10   A    
Cr1   O25   S    
C30   C61   S    
C78   O37   D    
C27   O13   A    
C68   C70   A    
C14   C68   A    
C57   H15   S    
C1    O7    A    
O36   H35   S    
O30   H32   S    
C56   H14   S    
C43   C47   A    
C21   H27   S    
Cr4   O22   S    
Cr3   O21   S    
C1    C36   S    
Cr1   O13   S    
