data_mof_unit_32087.cif
_audit_creation_date              2012-10-26T19:46:26-0400
_audit_creation_method            fapswitch 2.2
_symmetry_space_group_name_H-M    P1
_symmetry_Int_Tables_number       1
_space_group_crystal_system       triclinic
_cell_length_a                    10.781182
_cell_length_b                    9.525263
_cell_length_c                    15.129522
_cell_angle_alpha                 90.048573
_cell_angle_beta                  90.166174
_cell_angle_gamma                 90.02886
_cell_volume                      1553.69769775

loop_
_atom_site_label
_atom_site_type_symbol
_atom_type_description
_atom_site_fract_x
_atom_site_fract_y
_atom_site_fract_z
_atom_type_partial_charge
C1    C     C_R   0.262607 0.499977 0.500007 0.501223
C2    C     C_R   0.934444 0.540007 0.422401 0.005204
C3    C     C_R   0.934981 0.460097 0.577605 0.002149
C4    C     C_R   0.064757 0.546904 0.423995 0.003156
C5    C     C_R   0.540550 0.619558 0.095492 -0.093570
C6    C     C_R   0.541025 0.380494 0.904668 -0.092429
C7    C     C_R   0.463753 0.619709 0.904910 -0.102493
C8    C     C_R   0.463842 0.380022 0.094929 -0.101050
C9    C     C_R   0.539087 0.619874 0.187346 -0.105056
C10   C     C_R   0.539725 0.380246 0.812797 -0.101422
C11   C     C_R   0.463920 0.620035 0.813051 -0.115155
C12   C     C_R   0.737328 0.500027 0.499994 0.509356
C13   C     C_R   0.463843 0.379771 0.186799 -0.111793
C14   C     C_R   0.501014 0.499873 0.233469 0.018896
C15   C     C_R   0.501380 0.500110 0.766528 0.018383
C16   C     C_R   0.502475 0.499812 0.048564 0.038338
C17   C     C_R   0.502560 0.500041 0.951437 0.038211
C18   C     C_R   0.871309 0.500065 0.500000 -0.070016
C19   C     C_R   0.128474 0.499969 0.500012 -0.074774
C20   C     C_2   0.137122 0.397178 0.652717 0.314758
C21   C     C_2   0.862901 0.566866 0.339452 0.293100
C22   C     C_2   0.863995 0.433111 0.660502 0.284592
C23   C     C_R   0.500278 0.499948 0.329937 0.527373
C24   C     C_2   0.136080 0.603312 0.347459 0.300889
C25   C     C_R   0.500524 0.500048 0.670061 0.527681
C26   C     C_R   0.423738 0.074269 0.444432 0.029219
C27   C     C_R   0.576255 0.925734 0.555569 0.023982
C28   C     C_R   0.576249 0.074526 0.555578 0.027085
C29   C     C_R   0.423722 0.925475 0.444439 0.025193
C30   C     C_R   0.065279 0.453210 0.576055 0.003022
Cu1   Cu    Cu3+1 0.500000 0.640660 0.500000 0.946758
Cu2   Cu    Cu3+1 0.500000 0.359340 0.500000 0.952805
H1    H     H_    0.362634 0.130211 0.399901 0.118833
H2    H     H_    0.570227 0.287043 0.778017 0.125769
H3    H     H_    0.433061 0.713304 0.778489 0.135845
H4    H     H_    0.433139 0.286405 0.221246 0.127295
H5    H     H_    0.226837 0.441463 0.669596 0.105753
H6    H     H_    0.772357 0.616115 0.341902 0.116606
H7    H     H_    0.773577 0.383408 0.657999 0.105535
H8    H     H_    0.225635 0.559113 0.330514 0.100077
H9    H     H_    0.637367 0.869796 0.600093 0.125187
H10   H     H_    0.637353 0.130675 0.600112 0.109618
H11   H     H_    0.362575 0.869326 0.399934 0.133295
H12   H     H_    0.572753 0.712384 0.061225 0.118491
H13   H     H_    0.573387 0.287784 0.939077 0.118098
H14   H     H_    0.431703 0.712361 0.939495 0.117473
H15   H     H_    0.432076 0.287216 0.060204 0.116841
H16   H     H_    0.569299 0.713243 0.222230 0.132226
N1    N     N_R   0.500000 0.852070 0.500000 -0.230328
N2    N     N_R   0.500000 0.147930 0.500000 -0.224236
O1    O     O_R   0.319640 0.618740 0.499990 -0.497528
O2    O     O_2   0.902123 0.528494 0.267762 -0.456578
O3    O     O_2   0.903528 0.471872 0.732193 -0.458444
O4    O     O_2   0.097913 0.703466 0.305051 -0.464038
O5    O     O_R   0.680360 0.381260 0.500010 -0.503116
O6    O     O_R   0.680360 0.618740 0.500010 -0.506116
O7    O     O_R   0.319640 0.381260 0.499990 -0.498285
O8    O     O_R   0.499990 0.618780 0.371460 -0.518204
O9    O     O_R   0.500010 0.381220 0.628540 -0.513993
O10   O     O_R   0.500010 0.618780 0.628540 -0.502421
O11   O     O_R   0.499990 0.381220 0.371460 -0.501555
O12   O     O_2   0.099158 0.297298 0.695349 -0.455715

loop_
_geom_bond_atom_site_label_1
_geom_bond_atom_site_label_2
_ccdc_geom_bond_type
C14   C23   S    
C6    C10   A    
C23   O8    A    
C2    C4    A    
C9    C14   A    
C5    C9    A    
C8    C13   A    
C6    H13   S    
C1    O7    A    
Cu1   O6    S    
C2    C18   A    
C25   O9    A    
C27   H9    S    
C26   H1    S    
Cu1   Cu2   S    
Cu2   O9    S    
C21   O2    D    
C2    C21   S    
C11   H3    S    
C8    H15   S    
C19   C30   A    
C10   H2    S    
C29   N1    A    
C13   C14   A    
C29   H11   S    
C7    C11   A    
C20   H5    S    
C1    O1    A    
Cu2   N2    S    
C12   O6    A    
C28   N2    A    
Cu2   O7    S    
Cu1   N1    S    
C22   H7    S    
C3    C30   A    
C28   H10   S    
C3    C18   A    
C24   H8    S    
C5    H12   S    
Cu2   O11   S    
C22   O3    D    
C10   C15   A    
C26   N2    A    
C20   O12   D    
C4    C24   S    
C15   C25   S    
C12   O5    A    
C1    C19   S    
C24   O4    D    
C7    H14   S    
C9    H16   S    
C23   O11   A    
Cu1   O8    S    
C26   C29   A    
C8    C16   A    
C12   C18   S    
C27   C28   A    
C6    C17   A    
C5    C16   A    
C20   C30   S    
Cu2   O5    S    
Cu1   O10   S    
C7    C17   A    
C4    C19   A    
C11   C15   A    
C25   O10   A    
C21   H6    S    
C27   N1    A    
C13   H4    S    
Cu1   O1    S    
C16   C17   S    
C3    C22   S    
