data_mof_unit_18978.cif
_audit_creation_date              2012-12-10T16:51:31-0500
_audit_creation_method            fapswitch 2.2
_symmetry_space_group_name_H-M    P1
_symmetry_Int_Tables_number       1
_space_group_crystal_system       triclinic
_cell_length_a                    7.816941
_cell_length_b                    8.561972
_cell_length_c                    12.546185
_cell_angle_alpha                 91.618676
_cell_angle_beta                  103.597359
_cell_angle_gamma                 93.700757
_cell_volume                      813.642880728

loop_
_atom_site_label
_atom_site_type_symbol
_atom_type_description
_atom_site_fract_x
_atom_site_fract_y
_atom_site_fract_z
_atom_type_partial_charge
Br1   Br    Br    0.462517 0.243289 0.680385 -0.528436
C1    C     C_R   0.044268 0.794489 0.497322 0.971990
C2    C     C_R   0.161695 0.399368 0.810006 -0.121431
C3    C     C_2   0.067230 0.958018 0.495476 -0.355947
C4    C     C_R   0.103181 0.470198 0.702533 0.890578
C5    C     C_2   0.932785 0.041981 0.504649 -0.361857
C6    C     C_R   0.955620 0.205455 0.502506 0.955322
C7    C     C_R   0.889632 0.495529 0.291868 0.860093
C8    C     C_R   0.855708 0.576610 0.998131 -0.161274
C9    C     C_R   0.824028 0.500048 0.175466 -0.046957
C10   C     C_R   0.041351 0.337580 0.866991 -0.204054
C11   C     C_R   0.099675 0.302299 0.976967 -0.109475
C12   C     C_R   0.400529 0.390548 0.972334 0.044420
C13   C     C_R   0.275798 0.339008 0.031825 -0.176520
C14   C     C_R   0.343696 0.392462 0.857868 0.044096
C15   C     C_R   0.578342 0.444199 0.019929 0.077464
C16   C     C_R   0.687076 0.505915 0.952114 0.114637
C17   C     C_R   0.632771 0.479823 0.839307 -0.330085
C18   C     C_R   0.472996 0.397469 0.796454 0.286322
C19   C     C_R   0.651278 0.440248 0.131490 -0.244802
C20   C     C_R   0.925350 0.572014 0.110164 -0.212603
H1    H     H_    0.057867 0.622786 0.145551 0.158704
H2    H     H_    0.005950 0.256294 0.021535 0.158135
H3    H     H_    0.193913 0.008714 0.486310 0.203303
H4    H     H_    0.806063 0.991295 0.513781 0.190506
H5    H     H_    0.469762 0.377863 0.417658 0.192786
H6    H     H_    0.530254 0.622008 0.582428 0.200648
H7    H     H_    0.721079 0.506449 0.786751 0.191647
H8    H     H_    0.936710 0.627576 0.946950 0.156434
H9    H     H_    0.577817 0.387528 0.185663 0.142633
H10   H     H_    0.903962 0.315249 0.826476 0.178467
H11   H     H_    0.309593 0.325092 0.119221 0.129251
N1    N     N_2   0.434800 0.456690 0.470850 -0.144079
N2    N     N_2   0.565200 0.543310 0.529150 -0.156874
O1    O     O_R   0.893060 0.738880 0.507150 -0.609226
O2    O     O_R   0.172250 0.711130 0.488470 -0.623975
O3    O     O_R   0.944700 0.520730 0.667600 -0.626431
O4    O     O_R   0.223890 0.492980 0.648920 -0.595500
O5    O     O_R   0.827750 0.288870 0.511530 -0.618564
O6    O     O_R   0.106940 0.261120 0.492850 -0.589180
O7    O     O_R   0.776110 0.507020 0.351080 -0.630900
O8    O     O_R   0.055300 0.479270 0.332400 -0.627624
Zn1   Zn    Zn3+2 0.813580 0.518530 0.512470 0.957058
Zn2   Zn    Zn3+2 0.186420 0.481470 0.487530 0.971298

loop_
_geom_bond_atom_site_label_1
_geom_bond_atom_site_label_2
_ccdc_geom_bond_type
C1    O1    A    
O3    Zn1   S    
C1    C3    S    
C10   C11   A    
O4    Zn2   S    
C5    C6    S    
C4    O3    A    
O1    Zn1   S    
H5    N1    S    
O2    Zn2   S    
C8    H8    S    
C6    O6    A    
N1    N2    D    
C11   C13   A    
C10   H10   S    
C9    C20   A    
C19   H9    S    
C12   C13   A    
C14   C18   A    
O7    Zn1   S    
C11   H2    S    
C8    C20   A    
O8    Zn2   S    
C8    C16   A    
C15   C19   A    
C4    O4    A    
C7    O8    A    
C16   C17   A    
C12   C14   A    
H6    N2    S    
C3    H3    S    
Br1   C18   S    
C5    H4    S    
C2    C10   A    
O6    Zn2   S    
C17   H7    S    
C7    O7    A    
C3    C5    D    
C17   C18   A    
C12   C15   A    
C1    O2    A    
C6    O5    A    
C2    C14   A    
O5    Zn1   S    
C20   H1    S    
N1    Zn2   S    
C13   H11   S    
C7    C9    S    
N2    Zn1   S    
C9    C19   A    
C15   C16   A    
C2    C4    S    
