data_mof_unit_5565.cif
_audit_creation_date              2013-03-05T15:49:14-0500
_audit_creation_method            fapswitch 2.2
_symmetry_space_group_name_H-M    P1
_symmetry_Int_Tables_number       1
_space_group_crystal_system       triclinic
_cell_length_a                    18.538874
_cell_length_b                    18.476607
_cell_length_c                    19.346471
_cell_angle_alpha                 109.545853
_cell_angle_beta                  110.460486
_cell_angle_gamma                 107.854994
_cell_volume                      5133.78404101

loop_
_atom_site_label
_atom_site_type_symbol
_atom_site_description
_atom_site_fract_x
_atom_site_fract_y
_atom_site_fract_z
_atom_type_partial_charge
O1    O     O_R   0.592010 0.539900 0.448660 -0.605757
O2    O     O_R   0.591210 0.643320 0.551330 -0.545559
C1    C     C_R   0.618313 0.621815 0.499091 0.979149
O3    O     O_R   0.408080 0.448290 0.356360 -0.556981
O4    O     O_R   0.407280 0.551710 0.459030 -0.636680
C2    C     C_R   0.380025 0.501965 0.380539 0.993399
Zn1   Zn    Zn3+2 0.500540 0.430950 0.431450 1.046611
Zn2   Zn    Zn3+2 0.499460 0.569050 0.568550 1.140238
O5    O     O_R   0.408790 0.356680 0.448670 -0.629405
O6    O     O_R   0.407990 0.460100 0.551340 -0.563854
O7    O     O_R   0.592720 0.448290 0.540970 -0.632485
O8    O     O_R   0.591920 0.551710 0.643640 -0.564472
C3    C     C_R   0.381264 0.379431 0.501297 0.960792
C4    C     C_R   0.624289 0.502894 0.619839 0.994606
C5    C     C_3   0.309677 0.587282 0.315430 -0.389257
C6    C     C_3   0.210811 0.539455 0.283429 0.296441
H1    H     H_    0.347229 0.657956 0.361013 0.190270
C7    C     C_3   0.189986 0.500598 0.191243 -0.294391
C8    C     C_3   0.288054 0.545362 0.221795 0.415073
C9    C     C_3   0.290711 0.463779 0.222463 0.233124
C10   C     C_3   0.192984 0.419578 0.193438 0.406984
C11   C     C_3   0.213930 0.458586 0.286827 -0.268335
C12   C     C_3   0.312680 0.504299 0.315779 -0.239434
H2    H     H_    0.179549 0.429814 0.315205 0.225063
C13   C     C_R   0.643223 0.811503 0.552149 0.485402
C14   C     C_R   0.657901 0.896689 0.571493 -0.306774
C15   C     C_R   0.723328 0.952456 0.567830 0.323215
C16   C     C_R   0.780508 0.925672 0.552393 -0.269811
C17   C     C_R   0.766092 0.838209 0.527222 -0.036560
C18   C     C_R   0.697997 0.778598 0.528672 -0.066304
C19   C     C_R   0.819098 0.811105 0.499478 0.012713
C20   C     C_R   0.814896 0.728399 0.481701 -0.132157
C21   C     C_R   0.750237 0.668893 0.485913 -0.099812
C22   C     C_R   0.689512 0.691581 0.505590 -0.097617
C23   C     C_R   0.872565 0.701368 0.459210 0.075943
C24   C     C_R   0.847538 0.611600 0.418268 0.399320
C25   C     C_R   0.781180 0.553162 0.420411 0.320502
C26   C     C_R   0.753082 0.589554 0.475477 0.351404
H3    H     H_    0.616378 0.919336 0.589430 0.191257
H4    H     H_    0.835616 0.974867 0.558690 0.186133
C27   C     C_R   0.778609 0.664601 0.757439 0.489830
C28   C     C_R   0.817312 0.739027 0.835881 -0.422519
C29   C     C_R   0.872680 0.743353 0.909073 0.457401
C30   C     C_R   0.883737 0.669645 0.903209 0.483939
C31   C     C_R   0.822631 0.585148 0.826882 -0.136888
C32   C     C_R   0.764624 0.583549 0.755118 -0.123098
C33   C     C_R   0.814464 0.502503 0.819063 -0.054633
C34   C     C_R   0.736225 0.422227 0.752553 -0.119046
C35   C     C_R   0.671177 0.425188 0.690876 -0.068384
C36   C     C_R   0.691172 0.502612 0.686059 -0.077916
C37   C     C_R   0.716323 0.339107 0.748190 0.452127
C38   C     C_R   0.628686 0.275896 0.710225 0.392516
C39   C     C_R   0.561561 0.283518 0.656007 0.137671
C40   C     C_R   0.584777 0.353071 0.639890 -0.338284
H5    H     H_    0.811986 0.796338 0.838038 0.187975
H6    H     H_    0.532133 0.355342 0.595025 0.221179
C41   C     C_R   0.380908 0.411107 0.660803 0.420747
C42   C     C_R   0.355152 0.446132 0.718842 0.053924
C43   C     C_R   0.289187 0.386923 0.721662 0.106421
C44   C     C_R   0.244226 0.297788 0.659439 0.393763
C45   C     C_R   0.248689 0.272076 0.582870 -0.104602
C46   C     C_R   0.316370 0.332317 0.582098 -0.106859
C47   C     C_R   0.190050 0.188871 0.508453 0.022949
C48   C     C_R   0.196391 0.166417 0.434603 0.016499
C49   C     C_R   0.250576 0.231715 0.427486 -0.054996
C50   C     C_R   0.315695 0.313221 0.503439 -0.017352
C51   C     C_R   0.146520 0.079585 0.366323 -0.291532
C52   C     C_R   0.142782 0.058382 0.288502 0.439758
C53   C     C_R   0.188087 0.125121 0.277245 0.391792
C54   C     C_R   0.235022 0.212900 0.343881 0.152178
H7    H     H_    0.111089 0.026946 0.373484 0.138352
O9    O     O_R   0.951440 0.539900 0.094740 -0.585169
O10   O     O_R   0.054870 0.643310 0.094700 -0.621185
C55   C     C_R   0.002813 0.621335 0.122263 0.977114
O11   O     O_R   0.044440 0.448270 0.096110 -0.639961
O12   O     O_R   0.147870 0.551680 0.096080 -0.527348
C56   C     C_R   0.124189 0.499932 0.123901 0.995264
Zn3   Zn    Zn3+2 0.934770 0.430930 0.003810 1.120947
Zn4   Zn    Zn3+2 0.072900 0.569020 0.003770 1.155629
O13   O     O_R   0.952810 0.356650 0.912880 -0.613060
O14   O     O_R   0.056240 0.460060 0.912840 -0.565186
O15   O     O_R   0.859800 0.448280 0.911500 -0.540118
O16   O     O_R   0.963240 0.551690 0.911470 -0.592962
C57   C     C_R   0.003598 0.380779 0.882916 0.834233
C58   C     C_R   0.882319 0.500590 0.883616 1.013495
O17   O     O_R   0.052860 0.908430 0.461230 -0.514747
O18   O     O_R   0.948620 0.908400 0.356980 -0.657049
C59   C     C_R   0.007585 0.885119 0.383346 0.799217
O19   O     O_R   0.960510 0.908410 0.552140 -0.589637
O20   O     O_R   0.856270 0.908390 0.447890 -0.607831
C60   C     C_R   0.881701 0.872943 0.492924 0.838506
Zn5   Zn    Zn3+2 0.069600 0.000030 0.569620 1.124399
Zn6   Zn    Zn3+2 0.930400 0.000000 0.430410 1.082458
O21   O     O_R   0.051380 0.091620 0.643040 -0.627014
O22   O     O_R   0.947140 0.091600 0.538800 -0.582700
O23   O     O_R   0.143730 0.091640 0.552130 -0.575114
O24   O     O_R   0.039490 0.091610 0.447890 -0.602269
C61   C     C_R   0.999061 0.122019 0.617529 0.913400
C62   C     C_R   0.120253 0.124306 0.505572 0.974683
C63   C     C_R   0.162789 0.797438 0.240882 0.263470
C64   C     C_R   0.221398 0.885634 0.279385 -0.336610
C65   C     C_R   0.232191 0.942779 0.354688 0.475274
C66   C     C_R   0.170935 0.913807 0.379221 0.158631
C67   C     C_R   0.088944 0.834780 0.317864 -0.104970
C68   C     C_R   0.085294 0.772535 0.248276 -0.015411
C69   C     C_R   0.011600 0.816842 0.323372 -0.006413
C70   C     C_R   0.933747 0.736434 0.266100 0.031518
C71   C     C_R   0.926301 0.676453 0.193090 -0.102233
C72   C     C_R   0.004529 0.691187 0.187989 -0.080619
C73   C     C_R   0.862531 0.715702 0.281225 -0.245825
C74   C     C_R   0.783019 0.639202 0.223436 0.205735
C75   C     C_R   0.769916 0.586207 0.144313 0.400203
C76   C     C_R   0.839766 0.605370 0.127674 0.204327
H8    H     H_    0.272598 0.905542 0.264304 0.186161
H9    H     H_    0.868889 0.758001 0.339751 0.187853
C77   C     C_R   0.002931 0.405871 0.738629 0.156006
C78   C     C_R   0.955044 0.396800 0.659126 0.280690
C79   C     C_R   0.924190 0.319773 0.585966 0.322376
C80   C     C_R   0.958036 0.263152 0.594525 0.227735
C81   C     C_R   0.985314 0.259053 0.672005 -0.084626
C82   C     C_R   0.000273 0.329271 0.744078 -0.114909
C83   C     C_R   0.992952 0.186816 0.679819 -0.017604
C84   C     C_R   0.997472 0.176822 0.750592 0.091899
C85   C     C_R   0.011933 0.246007 0.821555 -0.004751
C86   C     C_R   0.007869 0.319013 0.816368 -0.059902
C87   C     C_R   0.985848 0.097601 0.751456 -0.215523
C88   C     C_R   0.002851 0.092504 0.825000 -0.280165
C89   C     C_R   0.029632 0.166037 0.900455 0.624640
C90   C     C_R   0.032613 0.241482 0.897435 -0.182690
H10   H     H_    0.963504 0.038085 0.695403 0.166972
H11   H     H_    0.996977 0.031371 0.822115 0.142315
H12   H     H_    0.053548 0.297471 0.956161 0.182221
N1    N     N_R   0.163736 0.577298 0.316492 0.254889
O25   O     O_R   0.206947 0.651012 0.387429 -0.320757
O26   O     O_R   0.078994 0.532556 0.280682 -0.382608
N2    N     N_R   0.728779 0.034404 0.575566 0.209517
O27   O     O_R   0.658992 0.043878 0.557446 -0.478975
O28   O     O_R   0.797639 0.093394 0.585520 -0.458184
N3    N     N_R   0.963478 0.761096 0.496528 0.218008
O29   O     O_R   0.012387 0.800569 0.578764 -0.384111
O30   O     O_R   0.001676 0.751576 0.451641 -0.317468
O31   O     O_3   0.892549 0.582665 0.381547 -0.534719
C91   C     C_3   0.952247 0.567699 0.436677 -0.080985
H13   H     H_    0.917828 0.505881 0.435250 0.166605
H14   H     H_    0.991990 0.623098 0.503235 0.142861
H15   H     H_    0.998579 0.560710 0.414369 0.221060
O32   O     O_3   0.737279 0.554096 0.525115 -0.575976
C92   C     C_3   0.810537 0.547135 0.571741 -0.197859
H16   H     H_    0.873703 0.607311 0.601413 0.128101
H17   H     H_    0.811420 0.488698 0.531426 0.200441
H18   H     H_    0.805223 0.538118 0.623782 0.205474
N4    N     N_R   0.470449 0.222005 0.617520 0.215095
O33   O     O_R   0.411202 0.214349 0.550588 -0.386228
O34   O     O_R   0.445071 0.177540 0.652058 -0.318225
O35   O     O_3   0.757442 0.670681 0.684002 -0.575667
C93   C     C_3   0.826089 0.746182 0.699245 -0.273235
H19   H     H_    0.834553 0.731399 0.643707 0.202211
H20   H     H_    0.892204 0.768505 0.751850 0.129873
H21   H     H_    0.809537 0.800373 0.711066 0.174395
O36   O     O_3   0.917389 0.818320 0.987936 -0.581409
C94   C     C_3   0.961402 0.893876 0.985153 -0.381396
H22   H     H_    0.916917 0.921142 0.966555 0.178227
H23   H     H_    0.989081 0.881656 0.942348 0.142988
H24   H     H_    0.017452 0.944382 0.049698 0.244371
O37   O     O_3   0.948761 0.680343 0.974986 -0.575812
C95   C     C_3   0.032627 0.743702 0.998696 -0.121502
H25   H     H_    0.055949 0.805157 0.056243 0.195148
H26   H     H_    0.034954 0.758148 0.947685 0.097952
H27   H     H_    0.080493 0.719665 0.015269 0.197673
O38   O     O_3   0.779785 0.314223 0.771657 -0.578638
C96   C     C_3   0.792557 0.282262 0.702180 -0.339245
H28   H     H_    0.828251 0.337141 0.695180 0.147779
H29   H     H_    0.729944 0.233184 0.641267 0.180870
H30   H     H_    0.831487 0.248370 0.713851 0.230937
O39   O     O_3   0.609465 0.211497 0.732391 -0.551350
C97   C     C_3   0.602761 0.135654 0.674364 -0.094971
H31   H     H_    0.573589 0.123671 0.607998 0.126042
H32   H     H_    0.559513 0.078268 0.673729 0.187435
H33   H     H_    0.668308 0.139372 0.696226 0.209365
O40   O     O_3   0.175642 0.105713 0.197191 -0.580246
C98   C     C_3   0.238571 0.081691 0.188737 -0.177538
H34   H     H_    0.230056 0.067869 0.125205 0.184117
H35   H     H_    0.229461 0.021089 0.192720 0.166315
H36   H     H_    0.306557 0.135785 0.237140 0.166094
O41   O     O_3   0.468224 0.450171 0.682224 -0.570394
C99   C     C_3   0.520858 0.451634 0.756782 -0.206330
H37   H     H_    0.501497 0.384197 0.746923 0.163861
H38   H     H_    0.518836 0.491579 0.812851 0.179507
H39   H     H_    0.590223 0.482896 0.773243 0.201629
N5    N     N_R   0.396106 0.539752 0.773169 0.244431
O42   O     O_R   0.356034 0.573320 0.806176 -0.285802
O43   O     O_R   0.462451 0.592493 0.774308 -0.337000
N6    N     N_R   0.274812 0.413625 0.792348 0.276747
O44   O     O_R   0.341359 0.463352 0.869508 -0.329759
O45   O     O_R   0.196540 0.376591 0.781064 -0.299039
O46   O     O_3   0.197568 0.237609 0.675318 -0.577441
C100  C     C_3   0.257539 0.223024 0.730839 -0.128981
H40   H     H_    0.302551 0.282164 0.794756 0.167032
H41   H     H_    0.296247 0.201104 0.704187 0.178487
H42   H     H_    0.220395 0.170348 0.739488 0.195630
O47   O     O_3   0.097566 0.972263 0.223562 -0.626906
C101  C     C_3   0.007030 0.937816 0.195308 -0.246172
H43   H     H_    0.979899 0.974569 0.168863 0.183235
H44   H     H_    0.992112 0.936476 0.245698 0.154677
H45   H     H_    0.972849 0.868762 0.144422 0.249943
O48   O     O_3   0.321816 0.584907 0.181068 -0.535286
C102  C     C_3   0.408289 0.653347 0.239917 -0.088199
H46   H     H_    0.450225 0.632076 0.276040 0.147364
H47   H     H_    0.408428 0.710374 0.284123 0.151030
H48   H     H_    0.437681 0.675060 0.204711 0.205898
N7    N     N_R   0.248130 0.281129 0.322396 0.218254
O49   O     O_R   0.262848 0.275618 0.260282 -0.299825
O50   O     O_R   0.232674 0.343319 0.357788 -0.482185
O51   O     O_3   0.687748 0.516148 0.081341 -0.530382
C103  C     C_3   0.636202 0.547068 0.039659 -0.106373
H49   H     H_    0.623966 0.592099 0.083327 0.172173
H50   H     H_    0.571591 0.490292 0.987384 0.196995
H51   H     H_    0.666678 0.579954 0.010780 0.157815
N8    N     N_R   0.199138 0.740192 0.222661 0.225394
O52   O     O_R   0.199370 0.690602 0.256714 -0.386877
O53   O     O_R   0.247026 0.750120 0.187370 -0.392827
O54   O     O_3   0.306260 0.024214 0.407653 -0.559901
C104  C     C_3   0.379955 0.013892 0.445892 -0.102321
H52   H     H_    0.391435 0.972687 0.398464 0.119310
H53   H     H_    0.373773 0.986553 0.488017 0.190826
H54   H     H_    0.439147 0.078983 0.485318 0.194195
N9    N     N_R   0.201778 0.951484 0.468543 0.212974
O55   O     O_R   0.200455 0.900758 0.501837 -0.301651
O56   O     O_R   0.251593 0.035531 0.518664 -0.312101
N10   N     N_R   0.713927 0.618809 0.243177 0.210954
O57   O     O_R   0.657741 0.537839 0.212487 -0.317857
O58   O     O_R   0.707489 0.681130 0.293065 -0.422889
N11   N     N_R   0.816699 0.563257 0.040495 0.203673
O59   O     O_R   0.769073 0.478514 0.994088 -0.322734
O60   O     O_R   0.819716 0.609752 0.003010 -0.431083
O61   O     O_3   0.057904 0.170807 0.979514 -0.548880
C105  C     C_3   0.026660 0.088487 0.974863 -0.279799
H55   H     H_    0.063162 0.054819 0.957519 0.171377
H56   H     H_    0.954582 0.047082 0.930535 0.123173
H57   H     H_    0.039188 0.099051 0.038778 0.223263
N12   N     N_R   0.334826 0.422194 0.187957 0.257005
O62   O     O_R   0.291009 0.340731 0.128229 -0.266009
O63   O     O_R   0.417988 0.466862 0.215711 -0.369189
N13   N     N_R   0.071572 0.492680 0.804871 0.256353
O64   O     O_R   0.151971 0.507261 0.843548 -0.273578
O65   O     O_R   0.056145 0.558822 0.821038 -0.361820
O66   O     O_3   0.943590 0.465807 0.653699 -0.595982
C106  C     C_3   0.002067 0.508133 0.631606 -0.150616
H58   H     H_    0.978388 0.469900 0.562914 0.184756
H59   H     H_    0.070153 0.521248 0.670164 0.194853
H60   H     H_    0.004814 0.572312 0.644051 0.158544
O67   O     O_3   0.881234 0.311447 0.506978 -0.550951
C107  C     C_3   0.792477 0.285091 0.483361 -0.204198
H61   H     H_    0.785178 0.335522 0.527378 0.159002
H62   H     H_    0.760711 0.221161 0.479971 0.172740
H63   H     H_    0.757201 0.276436 0.419173 0.196133
N14   N     N_R   0.981978 0.228756 0.533282 0.252187
O68   O     O_R   0.923332 0.182901 0.452734 -0.317429
O69   O     O_R   0.064434 0.263140 0.555723 -0.408658
O70   O     O_3   0.132347 0.333181 0.126184 -0.528262
C108  C     C_3   0.063131 0.297288 0.139926 -0.121595
H64   H     H_    0.037650 0.343117 0.159487 0.152925
H65   H     H_    0.084592 0.276840 0.188002 0.194383
H66   H     H_    0.007507 0.238313 0.079876 0.187413
O71   O     O_3   0.759884 0.465475 0.384207 -0.610383
C109  C     C_3   0.668065 0.411889 0.340529 -0.151912
H67   H     H_    0.632371 0.433503 0.299175 0.200747
H68   H     H_    0.644434 0.409111 0.385501 0.177314
H69   H     H_    0.652027 0.344278 0.298765 0.172967
O72   O     O_3   0.577542 0.766591 0.562648 -0.578322
C110  C     C_3   0.496478 0.736728 0.492457 -0.248476
H70   H     H_    0.488178 0.686703 0.434404 0.118878
H71   H     H_    0.488448 0.790239 0.482284 0.144798
H72   H     H_    0.443941 0.707077 0.504745 0.230114

loop_
_geom_bond_atom_site_label_1
_geom_bond_atom_site_label_2
_geom_bond_distance
_ccdc_geom_bond_type
C89   O61   1.393871 S    
C91   H15   1.109318 S    
C96   H28   1.107900 S    
C77   N13   1.437760 S    
C5    C8    1.550893 S    
O37   C95   1.422736 S    
C64   H8    1.082933 S    
C110  H72   1.107750 S    
C7    C10   1.528963 S    
O10   C55   1.282567 A    
Zn5   O21   2.018173 S    
C8    C9    1.527380 S    
O12   Zn4   2.035755 S    
O13   C57   1.310887 A    
C89   C90   1.399688 A    
C94   H24   1.108329 S    
C55   C72   1.460143 S    
C67   C69   1.419924 A    
C94   H22   1.109950 S    
O20   C60   1.301645 A    
O22   C61   1.277799 A    
C41   C46   1.429806 A    
C8    O48   1.412804 S    
C19   C20   1.419908 A    
C39   C40   1.398836 A    
C71   C72   1.436327 A    
C76   N11   1.430573 S    
N6    O44   1.301624 A    
C96   H29   1.114264 S    
C65   O54   1.384619 S    
C63   C68   1.441692 A    
C87   C88   1.388143 A    
C101  H44   1.108105 S    
C85   C90   1.420320 A    
O4    C2    1.284877 A    
C15   N2    1.438444 S    
C33   C58   1.449776 S    
C16   C17   1.427475 A    
C92   H17   1.109349 S    
C108  H65   1.111170 S    
N14   O68   1.302096 A    
O1    C1    1.306585 A    
C103  H50   1.109366 S    
C53   O40   1.381417 S    
C107  H61   1.112949 S    
O7    C4    1.293107 A    
Zn3   O13   2.041428 S    
C14   H3    1.084076 S    
O46   C100  1.415971 S    
C69   C70   1.408413 A    
C87   H10   1.079587 S    
C66   N9    1.434548 S    
C5    C6    1.539807 S    
O23   C62   1.271135 A    
C98   H34   1.109276 S    
Zn5   O23   2.037175 S    
O5    C3    1.296981 A    
O61   C105  1.410239 S    
C110  H71   1.112835 S    
N12   O62   1.300317 A    
C27   C28   1.395059 A    
C100  H41   1.114452 S    
C24   O31   1.385910 S    
C73   C74   1.390491 A    
C67   C68   1.411504 A    
O9    Zn3   2.027893 S    
C83   C84   1.419260 A    
C23   N3    1.433642 S    
C79   C80   1.400492 A    
C34   C37   1.430328 A    
O32   C92   1.415262 S    
C63   N8    1.432080 S    
C106  H59   1.114298 S    
C52   C53   1.394960 A    
N6    O45   1.300448 A    
C101  H45   1.107349 S    
C42   N5    1.446891 S    
C102  H48   1.109057 S    
C47   C62   1.434940 S    
C27   C32   1.421516 A    
C92   H18   1.105728 S    
C39   N4    1.440996 S    
C97   H31   1.113973 S    
C75   O51   1.385082 S    
O19   C60   1.271558 A    
C17   C18   1.414352 A    
N11   O59   1.301793 A    
C57   C86   1.452514 S    
C41   O41   1.388322 S    
C13   O72   1.370626 S    
O16   C58   1.287699 A    
C106  H60   1.109069 S    
C90   H12   1.081988 S    
C97   H32   1.109191 S    
C110  H70   1.112093 S    
C99   H37   1.112040 S    
O19   Zn5   2.027201 S    
C43   C44   1.409387 A    
Zn6   O22   2.050900 S    
C105  H55   1.111166 S    
C95   H26   1.116241 S    
C54   N7    1.433323 S    
C95   H25   1.110086 S    
C45   C46   1.407571 A    
C37   C38   1.404030 A    
O3    Zn1   2.014572 S    
C6    N1    1.457686 S    
C74   N10   1.439045 S    
O11   Zn3   2.025974 S    
C11   C12   1.548221 S    
C75   C76   1.411512 A    
O24   C62   1.295448 A    
C81   C83   1.435361 A    
O35   C93   1.423475 S    
C3    C50   1.460518 S    
C31   C33   1.437077 A    
N13   O64   1.301232 A    
C9    N12   1.459006 S    
C96   H30   1.105364 S    
C40   H6    1.079299 S    
C104  H54   1.106385 S    
C30   C31   1.450725 A    
O31   C91   1.413744 S    
C101  H43   1.112601 S    
C46   C50   1.437065 A    
O17   C59   1.272906 A    
C102  H46   1.112914 S    
C64   C65   1.383708 A    
C84   C85   1.396051 A    
O12   C56   1.284033 A    
C104  H52   1.111449 S    
O9    C55   1.298135 A    
C29   O36   1.389684 S    
C77   C82   1.441289 A    
C103  H51   1.112611 S    
N8    O52   1.295329 A    
Zn4   O14   2.027856 S    
C18   C22   1.457571 A    
O48   C102  1.408118 S    
C7    C8    1.529158 S    
C84   C87   1.419415 A    
C94   H23   1.114949 S    
C1    C22   1.466924 S    
C13   C14   1.401242 A    
C31   C32   1.412155 A    
O6    C3    1.284750 A    
C43   N6    1.438252 S    
C51   C52   1.393105 A    
C6    C11   1.535025 S    
C44   C45   1.437282 A    
N12   O63   1.300329 A    
C23   C24   1.409163 A    
C93   H19   1.096110 S    
C71   C76   1.441047 A    
C100  H42   1.108144 S    
Zn1   O7    2.047203 S    
C29   C30   1.411966 A    
C48   C51   1.411456 A    
N7    O49   1.301262 A    
C82   C86   1.437976 A    
C25   C26   1.407778 A    
C27   O35   1.388958 S    
C28   H5    1.081771 S    
N8    O53   1.302182 A    
C59   C69   1.442842 S    
Zn3   O15   2.035878 S    
N9    O55   1.301849 A    
C9    C12   1.542790 S    
O18   Zn6   2.018389 S    
Zn2   O8    2.014573 S    
C45   C47   1.420548 A    
C21   C22   1.438804 A    
O10   Zn4   2.041381 S    
C6    C7    1.528787 S    
C25   O71   1.387990 S    
C38   C39   1.400864 A    
C92   H16   1.114264 S    
C80   C81   1.441485 A    
N10   O58   1.301103 A    
C37   O38   1.378275 S    
O11   C56   1.273387 A    
C38   O39   1.383807 S    
C109  H68   1.110904 S    
C80   N14   1.428838 S    
C61   C83   1.453132 S    
O3    C2    1.284075 A    
C34   C35   1.399701 A    
N9    O56   1.300602 A    
O8    C4    1.277816 A    
C49   C50   1.431350 A    
C19   C60   1.433596 S    
C105  H56   1.113225 S    
C14   C15   1.371304 A    
N1    O25   1.300695 A    
C70   C73   1.417895 A    
C11   H2    1.105632 S    
O4    Zn2   2.047201 S    
N5    O42   1.301361 A    
C28   C29   1.386671 A    
C70   C71   1.401719 A    
C99   H38   1.110161 S    
C88   C89   1.405687 A    
Zn6   O24   2.027113 S    
C15   C16   1.379110 A    
O14   C57   1.262647 A    
C106  H58   1.109787 S    
C44   O46   1.379673 S    
O20   Zn6   2.037043 S    
C107  H62   1.113978 S    
O71   C109  1.411732 S    
C98   H36   1.113796 S    
C13   C18   1.457166 A    
C91   H14   1.113990 S    
C68   C72   1.444777 A    
C100  H40   1.111195 S    
N5    O43   1.301763 A    
C74   C75   1.397239 A    
N7    O50   1.297653 A    
C52   O47   1.386053 S    
O1    Zn1   2.025396 S    
C93   H21   1.110511 S    
O2    Zn2   2.039121 S    
C20   C23   1.445345 A    
C95   H27   1.107034 S    
N4    O34   1.301119 A    
N2    O27   1.300087 A    
C33   C34   1.434715 A    
C109  H69   1.109381 S    
C108  H66   1.107603 S    
C73   H9    1.079265 S    
N3    O29   1.301847 A    
C104  H53   1.112530 S    
C10   O70   1.411419 S    
C5    H1    1.100143 S    
O15   C58   1.287765 A    
C108  H64   1.113210 S    
C32   C36   1.420591 A    
C78   O66   1.386281 S    
O41   C99   1.416763 S    
C21   C26   1.431536 A    
O47   C101  1.411278 S    
C20   C21   1.404439 A    
C97   H33   1.109176 S    
C107  H63   1.109310 S    
C93   H20   1.115903 S    
C91   H13   1.110035 S    
C42   C43   1.400528 A    
N10   O57   1.301285 A    
C17   C19   1.412496 A    
O39   C97   1.407994 S    
O17   Zn5   2.050902 S    
C78   C79   1.393885 A    
O70   C108  1.411277 S    
Zn4   O16   2.025933 S    
N3    O30   1.300247 A    
C41   C42   1.409135 A    
C4    C36   1.441050 S    
C24   C25   1.389961 A    
C99   H39   1.106266 S    
C7    C56   1.433338 S    
C2    C12   1.451165 S    
O51   C103  1.412133 S    
C48   C49   1.395828 A    
C5    C12   1.553377 S    
C63   C64   1.388194 A    
N13   O65   1.301623 A    
C77   C78   1.401297 A    
O2    C1    1.280812 A    
C51   H7    1.076372 S    
C30   O37   1.385809 S    
C103  H49   1.112122 S    
C53   C54   1.414516 A    
O36   C94   1.414226 S    
C88   H11   1.081177 S    
C26   O32   1.391838 S    
C65   C66   1.405527 A    
C109  H67   1.114971 S    
N2    O28   1.299674 A    
C47   C48   1.406394 A    
Zn1   O5    2.039120 S    
C98   H35   1.113147 S    
C9    C10   1.529472 S    
O18   C59   1.298278 A    
Zn2   O6    2.025395 S    
C35   C36   1.407383 A    
O38   C96   1.410180 S    
C105  H57   1.109492 S    
N11   O60   1.297231 A    
C66   C67   1.438534 A    
C102  H47   1.111526 S    
N1    O26   1.300362 A    
C16   H4    1.074360 S    
C81   C82   1.415244 A    
O67   C107  1.409817 S    
C79   O67   1.381981 S    
N4    O33   1.300384 A    
N14   O69   1.297983 A    
C49   C54   1.434010 A    
C10   C11   1.549569 S    
O54   C104  1.413434 S    
O72   C110  1.403705 S    
O40   C98   1.409657 S    
C35   C40   1.421713 A    
O66   C106  1.413245 S    
C85   C86   1.408162 A    
O21   C61   1.297972 A    
