data_mof_unit_61201.cif
_audit_creation_date              2013-03-05T16:19:22-0500
_audit_creation_method            fapswitch 2.2
_symmetry_space_group_name_H-M    P1
_symmetry_Int_Tables_number       1
_space_group_crystal_system       triclinic
_cell_length_a                    18.829405
_cell_length_b                    18.768196
_cell_length_c                    18.995999
_cell_angle_alpha                 109.744794
_cell_angle_beta                  109.78917
_cell_angle_gamma                 109.235175
_cell_volume                      5144.81768647

loop_
_atom_site_label
_atom_site_type_symbol
_atom_site_description
_atom_site_fract_x
_atom_site_fract_y
_atom_site_fract_z
_atom_type_partial_charge
O1    O     O_R   0.090180 0.947810 0.537990 -0.572956
O2    O     O_R   0.090150 0.052180 0.642350 -0.570252
C1    C     C_R   0.115242 0.996788 0.618698 0.869207
O3    O     O_R   0.090190 0.037990 0.447830 -0.561612
O4    O     O_R   0.090170 0.142360 0.552190 -0.572250
C2    C     C_R   0.121336 0.119287 0.502911 0.828378
Cu1   Cu    Cu3+1 0.000020 0.938200 0.438210 1.216629
Cu2   Cu    Cu3+1 0.999980 0.061800 0.561790 1.183839
O5    O     O_R   0.909850 0.947820 0.357650 -0.533288
O6    O     O_R   0.909820 0.052190 0.462010 -0.568320
O7    O     O_R   0.909830 0.857640 0.447810 -0.556900
O8    O     O_R   0.909810 0.962010 0.552170 -0.517241
C3    C     C_R   0.879242 0.998282 0.381432 0.900673
C4    C     C_R   0.882008 0.881022 0.500530 0.903799
H1    H     H_    0.126111 0.260333 0.497516 0.180789
C5    C     C_R   0.291934 0.126701 0.540933 0.242189
C6    C     C_R   0.347243 0.101581 0.517686 0.246561
C7    C     C_R   0.388710 0.142217 0.482796 -0.241975
H2    H     H_    0.428005 0.119900 0.461773 0.246163
C8    C     C_R   0.377653 0.208209 0.471061 0.310476
C9    C     C_R   0.321024 0.233227 0.492706 -0.038966
C10   C     C_R   0.268076 0.181747 0.514309 -0.078817
C11   C     C_R   0.193348 0.187570 0.509044 -0.000381
C12   C     C_R   0.182362 0.254749 0.500286 -0.105796
H3    H     H_    0.236073 0.369585 0.493089 0.208798
C13   C     C_R   0.243433 0.315247 0.494944 -0.127955
C14   C     C_R   0.313280 0.306104 0.491919 -0.030254
C15   C     C_R   0.177983 0.919555 0.680064 -0.085215
C16   C     C_R   0.178417 0.996005 0.687664 -0.112425
C17   C     C_R   0.241566 0.075113 0.765426 -0.081605
H4    H     H_    0.240542 0.134688 0.773647 0.222525
C18   C     C_R   0.312259 0.080647 0.828511 0.324944
C19   C     C_R   0.314697 0.002562 0.816548 -0.183929
C20   C     C_R   0.244942 0.922749 0.743258 -0.081669
C21   C     C_3   0.242354 0.849064 0.675896 0.761239
C22   C     C_3   0.166867 0.845158 0.607255 0.436514
H5    H     H_    0.178769 0.861765 0.559954 0.136201
C23   C     C_R   0.754834 0.733347 0.428350 -0.083617
C24   C     C_R   0.816726 0.814783 0.502044 -0.243429
C25   C     C_R   0.812067 0.831268 0.578455 0.584762
C26   C     C_R   0.747256 0.766334 0.578263 0.555885
C27   C     C_R   0.685340 0.685126 0.501468 -0.209586
C28   C     C_R   0.691398 0.671897 0.427964 -0.110633
C29   C     C_3   0.653326 0.604675 0.335820 0.044427
C30   C     C_3   0.726261 0.674624 0.335794 0.461369
H6    H     H_    0.659063 0.545851 0.328689 0.175466
C31   C     C_R   0.820854 0.004432 0.248277 -0.080010
C32   C     C_R   0.811120 0.998441 0.316078 -0.228660
C33   C     C_R   0.741773 0.005751 0.325820 0.227954
C34   C     C_R   0.679097 0.007989 0.261159 0.623585
C35   C     C_R   0.686355 0.005202 0.189123 -0.218163
C36   C     C_R   0.760870 0.009900 0.187194 -0.046431
C37   C     C_3   0.769750 0.957182 0.114626 0.013358
C38   C     C_3   0.835878 0.949846 0.182217 0.461063
H7    H     H_    0.708001 0.894931 0.062805 0.123412
O9    O     O_R   0.447770 0.590190 0.538000 -0.542711
O10   O     O_R   0.552150 0.590170 0.642370 -0.579010
C39   C     C_R   0.499523 0.618463 0.618463 0.793940
O11   O     O_R   0.357600 0.409850 0.447820 -0.546031
O12   O     O_R   0.461980 0.409830 0.552180 -0.585163
C40   C     C_R   0.380865 0.378272 0.497060 0.813022
Cu3   Cu    Cu3+1 0.438170 0.500030 0.438220 1.216996
Cu4   Cu    Cu3+1 0.561770 0.500000 0.561810 1.167984
O13   O     O_R   0.447790 0.409860 0.357660 -0.535537
O14   O     O_R   0.552170 0.409840 0.462020 -0.530613
O15   O     O_R   0.537960 0.590200 0.447840 -0.559361
O16   O     O_R   0.642340 0.590180 0.552210 -0.534233
C41   C     C_R   0.504125 0.385381 0.381524 0.916376
C42   C     C_R   0.618662 0.617982 0.499725 0.877840
O17   O     O_R   0.552220 0.142430 0.090190 -0.545020
O18   O     O_R   0.447830 0.038100 0.090230 -0.547841
C43   C     C_R   0.502048 0.119003 0.120403 0.900662
O19   O     O_R   0.462030 0.052220 0.909860 -0.523774
O20   O     O_R   0.357640 0.947890 0.909900 -0.543938
C44   C     C_R   0.381302 0.001350 0.882411 0.888061
Cu5   Cu    Cu3+1 0.561810 0.061820 0.000030 1.216948
Cu6   Cu    Cu3+1 0.438190 0.938280 0.000080 1.236081
O21   O     O_R   0.552170 0.962000 0.909870 -0.570375
O22   O     O_R   0.447780 0.857670 0.909910 -0.538668
O23   O     O_R   0.642360 0.052210 0.090200 -0.548779
O24   O     O_R   0.537970 0.947880 0.090240 -0.541230
C45   C     C_R   0.501054 0.880865 0.882511 0.825440
C46   C     C_R   0.618923 0.000539 0.119011 0.856531
C47   C     C_R   0.422475 0.674325 0.683091 -0.043214
C48   C     C_R   0.499899 0.686422 0.683780 -0.110899
C49   C     C_R   0.576885 0.766884 0.745426 -0.097486
H8    H     H_    0.636870 0.779220 0.744486 0.214470
C50   C     C_R   0.576963 0.831208 0.809981 -0.118972
H9    H     H_    0.637305 0.892429 0.858049 0.204094
C51   C     C_R   0.500688 0.814361 0.814884 -0.081975
C52   C     C_R   0.423124 0.736805 0.748652 -0.009294
C53   C     C_3   0.358977 0.668499 0.753165 1.080146
C54   C     C_3   0.357536 0.600128 0.680535 0.321090
H10   H     H_    0.383030 0.559441 0.698517 0.073160
C55   C     C_R   0.429162 0.248576 0.243543 -0.113558
C56   C     C_R   0.507504 0.320871 0.315568 -0.140092
C57   C     C_R   0.586955 0.321945 0.329760 0.237989
C58   C     C_R   0.586348 0.254277 0.266582 0.256414
C59   C     C_R   0.506246 0.185451 0.191172 -0.177163
C60   C     C_R   0.428668 0.181422 0.183297 -0.129395
C61   C     C_3   0.355352 0.169515 0.108560 0.988647
C62   C     C_3   0.356179 0.244216 0.174339 0.703932
F1    F     F_    0.219006 0.775488 0.684094 -0.497700
F2    F     F_    0.087979 0.770358 0.569526 -0.516095
F3    F     F_    0.870985 0.908752 0.653524 -0.557653
F4    F     F_    0.744389 0.783135 0.652312 -0.595901
N1    N     N_R   0.564590 0.583516 0.280410 0.173153
O25   O     O_R   0.505969 0.502815 0.220525 -0.195639
O26   O     O_R   0.542121 0.643332 0.292922 -0.228759
N2    N     N_R   0.791523 0.651353 0.327922 0.123681
O27   O     O_R   0.818410 0.662461 0.275710 -0.214073
O28   O     O_R   0.826592 0.623513 0.376337 -0.250581
N3    N     N_R   0.694520 0.705251 0.276682 0.180103
O29   O     O_R   0.714435 0.786681 0.306169 -0.287312
O30   O     O_R   0.650823 0.651871 0.193262 -0.188536
N4    N     N_R   0.731055 0.005724 0.397297 0.177454
O31   O     O_R   0.740515 0.951041 0.421917 -0.292492
O32   O     O_R   0.703627 0.054651 0.432729 -0.197910
N5    N     N_R   0.277063 0.114054 0.606625 0.104890
O33   O     O_R   0.269713 0.172361 0.660167 -0.370145
O34   O     O_R   0.295311 0.061305 0.629048 -0.331790
F5    F     F_    0.609267 0.009029 0.266575 -0.561448
N6    N     N_R   0.807869 0.008260 0.080221 0.171351
O35   O     O_R   0.830561 0.090601 0.111764 -0.237654
O36   O     O_R   0.812710 0.968974 0.012459 -0.260916
N7    N     N_R   0.805495 0.860067 0.166414 0.121554
O37   O     O_R   0.857148 0.827596 0.171168 -0.218405
O38   O     O_R   0.727187 0.812619 0.149752 -0.282776
N8    N     N_R   0.925607 0.993222 0.199517 0.173318
O39   O     O_R   0.987911 0.061180 0.274865 -0.327262
O40   O     O_R   0.944627 0.960415 0.141058 -0.191253
F6    F     F_    0.393674 0.669436 0.830657 -0.644858
F7    F     F_    0.280766 0.668104 0.730081 -0.494780
N9    N     N_R   0.358681 0.031933 0.524840 0.198318
O41   O     O_R   0.290561 0.956110 0.489951 -0.246627
O42   O     O_R   0.435173 0.038528 0.550636 -0.237094
F8    F     F_    0.278830 0.552500 0.603304 -0.559781
N10   N     N_R   0.668155 0.392132 0.406529 0.170316
O43   O     O_R   0.690052 0.473106 0.428882 -0.346292
O44   O     O_R   0.721346 0.375230 0.453406 -0.202075
N11   N     N_R   0.666890 0.257600 0.277488 0.164060
O45   O     O_R   0.676034 0.189976 0.269033 -0.314677
O46   O     O_R   0.731508 0.328353 0.296236 -0.211703
F9    F     F_    0.380387 0.189509 0.054287 -0.603545
F10   F     F_    0.281430 0.088233 0.064872 -0.581170
F11   F     F_    0.382203 0.318668 0.167490 -0.551063
N12   N     N_R   0.276759 0.219475 0.180044 0.154650
O47   O     O_R   0.240665 0.148935 0.182798 -0.211486
O48   O     O_R   0.241436 0.268630 0.182518 -0.204628
N13   N     N_R   0.410639 0.235900 0.421799 0.113707
O49   O     O_R   0.358449 0.236574 0.356845 -0.349378
O50   O     O_R   0.481044 0.236075 0.425596 -0.326077
N14   N     N_R   0.381346 0.166232 0.900282 0.174469
O51   O     O_R   0.461738 0.190630 0.919606 -0.253591
O52   O     O_R   0.362528 0.226860 0.929029 -0.200001
N15   N     N_R   0.321125 0.874764 0.669035 0.088025
O53   O     O_R   0.315599 0.858676 0.594578 -0.245621
O54   O     O_R   0.394745 0.898793 0.733365 -0.343655

loop_
_geom_bond_atom_site_label_1
_geom_bond_atom_site_label_2
_geom_bond_distance
_ccdc_geom_bond_type
Cu4   O14   1.971931 S    
C54   H10   1.112185 S    
O19   C44   1.290243 A    
C26   C27   1.409110 A    
C37   H7    1.113005 S    
C55   C56   1.396166 A    
C34   F5    1.359023 S    
C8    N13   1.428658 S    
O22   C45   1.298272 A    
C57   C58   1.415864 A    
C51   C52   1.397283 A    
N6    O35   1.302210 A    
C48   C49   1.402312 A    
C36   C37   1.500236 S    
Cu1   O7    1.976726 S    
C38   N7    1.470862 S    
C61   F10   1.384443 S    
C13   C14   1.398442 A    
C41   C56   1.455845 S    
O12   Cu4   1.972544 S    
O13   C41   1.295371 A    
C22   H5    1.110970 S    
C53   F6    1.384841 S    
C12   C13   1.385070 A    
C7    H2    1.083349 S    
C21   F1    1.384206 S    
O3    Cu1   1.971606 S    
O4    C2    1.293718 A    
O7    C4    1.296037 A    
C49   C50   1.399479 A    
N6    O36   1.300510 A    
O15   C42   1.291890 A    
N4    O31   1.300803 A    
C6    C7    1.389298 A    
C20   C21   1.506655 S    
C1    C16   1.449434 S    
O5    C3    1.296175 A    
N2    O27   1.301392 A    
C53   C54   1.518661 S    
C23   C30   1.501636 S    
Cu3   O13   1.969391 S    
C14   C40   1.467772 S    
N12   O47   1.302086 A    
C4    C24   1.448630 S    
C47   C48   1.394274 A    
C19   C44   1.454051 S    
C21   C22   1.528946 S    
N4    O32   1.301231 A    
C5    C6    1.412859 A    
O20   Cu6   1.974137 S    
N7    O38   1.302196 A    
C11   C12   1.396574 A    
C47   C52   1.385547 A    
N14   O52   1.302074 A    
C7    C8    1.397161 A    
C55   C62   1.501110 S    
C50   H9    1.083218 S    
C53   F7    1.383650 S    
N5    O34   1.299813 A    
C9    C14   1.426906 A    
C15   C20   1.382382 A    
C9    C10   1.416386 A    
N1    O26   1.302526 A    
O23   C46   1.294187 A    
O24   C46   1.295096 A    
C29   H6    1.111911 S    
O10   Cu4   1.969392 S    
Cu6   O22   1.973305 S    
Cu4   O16   1.975716 S    
O11   C40   1.298544 A    
C26   F4    1.357899 S    
Cu3   O15   1.972640 S    
C35   C36   1.390410 A    
C61   C62   1.521832 S    
Cu1   Cu2   2.686080 S    
C19   C20   1.401298 A    
C21   N15   1.466809 S    
C55   C60   1.381601 A    
O3    C2    1.297312 A    
O20   C44   1.301874 A    
C5    N5    1.443920 S    
C52   C53   1.494589 S    
C30   N2    1.468699 S    
N9    O42   1.301380 A    
H3    C13   1.083800 S    
C37   C38   1.538756 S    
C27   C42   1.437568 S    
N3    O30   1.301202 A    
O12   C40   1.296910 A    
O1    C1    1.300091 A    
N15   O53   1.301384 A    
C28   C29   1.493908 S    
C16   C17   1.402098 A    
C62   N12   1.466232 S    
O4    Cu2   1.976726 S    
O21   C45   1.294663 A    
C31   C32   1.396107 A    
Cu6   O24   1.971103 S    
C17   H4    1.083141 S    
Cu2   O8    1.971606 S    
O14   C41   1.297204 A    
C56   C57   1.419323 A    
Cu3   Cu4   2.688905 S    
C34   C35   1.406009 A    
H1    C12   1.083852 S    
Cu5   Cu6   2.690926 S    
C31   C36   1.379152 A    
N10   O44   1.301146 A    
C31   C38   1.505659 S    
C25   C26   1.410157 A    
C50   C51   1.408062 A    
C58   C59   1.413712 A    
C58   N11   1.436304 S    
O17   Cu5   1.973181 S    
O19   Cu5   1.971202 S    
N13   O50   1.301864 A    
C27   C28   1.384405 A    
N1    O25   1.300220 A    
C39   C48   1.444024 S    
C35   C46   1.447966 S    
C57   N10   1.436951 S    
O18   Cu6   1.968022 S    
C29   C30   1.556434 S    
C49   H8    1.083417 S    
N3    O29   1.300703 A    
C29   N1    1.465217 S    
Cu1   O5    1.971421 S    
C38   N8    1.470484 S    
C15   C16   1.389653 A    
O11   Cu3   1.975717 S    
C5    C10   1.424743 A    
N12   O48   1.300720 A    
O1    Cu1   1.973737 S    
C10   C11   1.419575 A    
O2    Cu2   1.971424 S    
Cu5   O23   1.974014 S    
Cu5   O21   1.968125 S    
O6    C3    1.292725 A    
C3    C32   1.453720 S    
N5    O33   1.301635 A    
N9    O41   1.301547 A    
C45   C51   1.453696 S    
C59   C60   1.390497 A    
C22   F2    1.384305 S    
C18   C19   1.424036 A    
N11   O46   1.301185 A    
O2    C1    1.287502 A    
N8    O39   1.302054 A    
O18   C43   1.292548 A    
N11   O45   1.300463 A    
C62   F11   1.387245 S    
C17   C18   1.401216 A    
O10   C39   1.294255 A    
C23   C24   1.389217 A    
N7    O37   1.301427 A    
C32   C33   1.422173 A    
C2    C11   1.463465 S    
N15   O54   1.298856 A    
C60   C61   1.492168 S    
C61   F9    1.378353 S    
O9    C39   1.292351 A    
O9    Cu3   1.971809 S    
C47   C54   1.492935 S    
N2    O28   1.302185 A    
C54   F8    1.384390 S    
N10   O43   1.300951 A    
C18   N14   1.440058 S    
C24   C25   1.418085 A    
C30   N3    1.468515 S    
O8    C4    1.291231 A    
C23   C28   1.355571 A    
C33   N4    1.438831 S    
C37   N6    1.465900 S    
C8    C9    1.422247 A    
C15   C22   1.487593 S    
Cu2   O6    1.973737 S    
C33   C34   1.410401 A    
C6    N9    1.434991 S    
N13   O49   1.298465 A    
O17   C43   1.295820 A    
O16   C42   1.291840 A    
N14   O51   1.299724 A    
C25   F3    1.357820 S    
N8    O40   1.301210 A    
C43   C59   1.448813 S    
