data_mof_unit_6609.cif
_audit_creation_date              2012-10-26T18:32:18-0400
_audit_creation_method            fapswitch 2.2
_symmetry_space_group_name_H-M    P1
_symmetry_Int_Tables_number       1
_space_group_crystal_system       triclinic
_cell_length_a                    12.347046
_cell_length_b                    13.264465
_cell_length_c                    15.866872
_cell_angle_alpha                 77.530693
_cell_angle_beta                  101.147671
_cell_angle_gamma                 117.094747
_cell_volume                      2245.34109626

loop_
_atom_site_label
_atom_site_type_symbol
_atom_type_description
_atom_site_fract_x
_atom_site_fract_y
_atom_site_fract_z
_atom_type_partial_charge
C1    C     C_R   0.854865 0.286573 0.509983 0.618971
C2    C     C_R   0.228673 0.830948 0.501014 0.009806
C3    C     C_R   0.808403 0.112496 0.451583 -0.122640
C4    C     C_R   0.999567 0.499655 0.659524 0.582938
C5    C     C_R   0.723918 0.009782 0.423704 -0.119080
C6    C     C_R   0.603345 0.961466 0.442607 -0.106287
C7    C     C_R   0.566475 0.011992 0.494949 -0.010342
C8    C     C_R   0.657083 0.110026 0.531054 0.040336
C9    C     C_R   0.443270 0.968844 0.513074 0.020628
C10   C     C_R   0.415204 0.020372 0.570318 -0.005669
C11   C     C_R   0.509062 0.104801 0.614683 -0.091165
C12   C     C_3   0.056919 0.420328 0.071306 0.299757
C13   C     C_R   0.629072 0.148116 0.596586 0.353044
C14   C     C_R   0.347252 0.874152 0.478426 -0.105392
C15   C     C_R   0.200804 0.888123 0.551779 -0.121300
C16   C     C_R   0.145319 0.712846 0.490570 0.523778
C17   C     C_R   0.774682 0.165592 0.502428 0.037008
C18   C     C_R   0.352137 0.339759 0.644664 -0.114826
C19   C     C_R   0.759520 0.642979 0.381522 0.061222
C20   C     C_R   0.663644 0.674704 0.355196 -0.157601
C21   C     C_R   0.560509 0.621991 0.400072 -0.129104
C22   C     C_R   0.552747 0.537114 0.472632 0.017474
C23   C     C_3   0.998885 0.498001 0.082976 0.083552
C24   C     C_R   0.654125 0.508677 0.497614 0.171227
C25   C     C_R   0.448938 0.479272 0.521445 -0.021165
C26   C     C_R   0.451909 0.398980 0.595993 -0.032255
C27   C     C_R   0.554070 0.377263 0.621271 -0.163836
C28   C     C_R   0.000246 0.500089 0.340480 0.533931
C29   C     C_R   0.650417 0.427434 0.571081 -0.076644
C30   C     C_R   0.341765 0.497227 0.500225 -0.008169
C31   C     C_R   0.249199 0.360219 0.619815 0.535842
C32   C     C_3   0.055030 0.419579 0.973406 -0.159968
C33   C     C_3   0.865896 0.453939 0.939226 -0.165360
C34   C     C_3   0.074653 0.620943 0.038283 -0.344247
C35   C     C_3   0.866010 0.454980 0.036824 0.302446
C36   C     C_1   0.000209 0.499410 0.250843 0.007528
C37   C     C_3   0.998413 0.498444 0.917129 -0.033018
C38   C     C_3   0.074336 0.621150 0.940527 -0.268086
C39   C     C_1   0.999739 0.498763 0.175266 0.022679
C40   C     C_1   0.998398 0.498870 0.824827 -0.051392
C41   C     C_1   0.998769 0.499261 0.749202 0.018126
C42   C     C_R   0.293950 0.982351 0.586643 -0.123876
Cu1   Cu    Cu3+1 0.098280 0.475420 0.519630 1.042268
Cu2   Cu    Cu3+1 0.901720 0.524580 0.480370 0.958097
F1    F     F_    0.994965 0.309517 0.112272 -0.571948
F2    F     F_    0.719167 0.219858 0.648489 -0.662115
F3    F     F_    0.152226 0.302924 0.666701 -0.598784
F4    F     F_    0.792658 0.346225 0.075709 -0.570144
H1    H     H_    0.150090 0.449174 0.958156 0.093667
H2    H     H_    0.750561 0.969948 0.383756 0.133491
H3    H     H_    0.001390 0.330737 0.957889 0.192505
H4    H     H_    0.559060 0.319568 0.680028 0.139482
H5    H     H_    0.353675 0.277651 0.701339 0.119379
H6    H     H_    0.332143 0.557751 0.445432 0.121580
H7    H     H_    0.839044 0.684216 0.346153 0.135009
H8    H     H_    0.489066 0.649895 0.377172 0.095121
H9    H     H_    0.669258 0.740258 0.299804 0.111747
H10   H     H_    0.720664 0.400050 0.591821 0.240640
H11   H     H_    0.822715 0.508673 0.899024 0.085456
H12   H     H_    0.153451 0.453627 0.101790 0.105922
H13   H     H_    0.809858 0.365548 0.923242 0.188042
H14   H     H_    0.826079 0.513036 0.042698 0.106744
H15   H     H_    0.170119 0.654946 0.925263 0.143635
H16   H     H_    0.035206 0.679439 0.900925 0.143486
H17   H     H_    0.170607 0.654761 0.069863 0.124133
H18   H     H_    0.035797 0.679244 0.045546 0.127261
H19   H     H_    0.109421 0.854216 0.570549 0.130607
H20   H     H_    0.489301 0.134614 0.665526 0.121151
H21   H     H_    0.272163 0.022194 0.629713 0.119287
H22   H     H_    0.362387 0.827569 0.437627 0.099678
H23   H     H_    0.898686 0.153457 0.429736 0.143231
H24   H     H_    0.542144 0.884189 0.415931 0.104262
N1    N     N_R   0.246300 0.438200 0.549400 -0.233333
N2    N     N_R   0.754300 0.561180 0.451130 -0.243742
O1    O     O_R   0.972520 0.318130 0.524690 -0.446061
O2    O     O_R   0.806530 0.359650 0.491530 -0.500553
O3    O     O_R   0.083030 0.479240 0.637150 -0.428594
O4    O     O_R   0.917040 0.520750 0.603990 -0.528337
O5    O     O_R   0.193470 0.640350 0.508470 -0.517020
O6    O     O_R   0.027480 0.681870 0.475310 -0.514168
O7    O     O_R   0.082960 0.479250 0.396010 -0.515046
O8    O     O_R   0.916970 0.520760 0.362850 -0.504904

loop_
_geom_bond_atom_site_label_1
_geom_bond_atom_site_label_2
_ccdc_geom_bond_type
Cu1   N1    S    
C8    C13   A    
C10   C42   A    
C19   C20   A    
C18   C26   A    
Cu1   Cu2   S    
C34   H18   S    
C7    C8    A    
C27   H4    S    
C6    H24   S    
C30   H6    S    
C12   C23   S    
C26   C27   A    
C37   C40   S    
Cu2   O8    S    
C5    C6    A    
C31   N1    A    
C27   C29   A    
C4    C41   S    
Cu1   O5    S    
Cu2   O2    S    
C24   C29   A    
C18   H5    S    
C22   C25   A    
C2    C16   S    
C9    C10   A    
C33   H11   S    
C31   F3    S    
C21   C22   A    
C12   C32   S    
C14   H22   S    
C35   F4    S    
C34   H17   S    
C38   H16   S    
C36   C39   T    
Cu1   O1    S    
C28   O8    A    
C1    O1    A    
Cu2   O6    S    
C30   N1    A    
C25   C26   A    
C42   H21   S    
C33   C37   S    
C16   O6    A    
C3    H23   S    
C9    C14   A    
C32   H3    S    
C4    O4    A    
C37   C38   S    
C23   C34   S    
C15   H19   S    
C32   C37   S    
C29   H10   S    
Cu2   N2    S    
C2    C15   A    
C40   C41   T    
C23   C35   S    
Cu1   O7    S    
C22   C24   A    
C5    H2    S    
C11   H20   S    
C38   H15   S    
C19   H7    S    
C25   C30   A    
C7    C9    A    
C28   O7    A    
C34   C38   S    
C1    O2    A    
C19   N2    A    
C15   C42   A    
C12   F1    S    
C3    C5    A    
C21   H8    S    
C6    C7    A    
Cu1   O3    S    
C1    C17   S    
C8    C17   A    
C16   O5    A    
Cu2   O4    S    
C4    O3    A    
C11   C13   A    
C24   N2    A    
C13   F2    S    
C23   C39   S    
C33   C35   S    
C3    C17   A    
C35   H14   S    
C2    C14   A    
C32   H1    S    
C10   C11   A    
C12   H12   S    
C20   C21   A    
C28   C36   S    
C33   H13   S    
C18   C31   A    
C20   H9    S    
