data_mof_unit_43775.cif
_audit_creation_date              2012-10-26T20:51:11-0400
_audit_creation_method            fapswitch 2.2
_symmetry_space_group_name_H-M    P1
_symmetry_Int_Tables_number       1
_space_group_crystal_system       triclinic
_cell_length_a                    13.020752
_cell_length_b                    10.890393
_cell_length_c                    9.543353
_cell_angle_alpha                 90.897447
_cell_angle_beta                  96.419962
_cell_angle_gamma                 90.363685
_cell_volume                      1344.56213634

loop_
_atom_site_label
_atom_site_type_symbol
_atom_type_description
_atom_site_fract_x
_atom_site_fract_y
_atom_site_fract_z
_atom_type_partial_charge
C1    C     C_R   0.498035 0.262631 0.498819 0.558011
C2    C     C_R   0.501568 0.934964 0.372439 -0.149107
C3    C     C_R   0.490793 0.871593 0.497719 0.018979
C4    C     C_R   0.300525 0.500020 0.473461 0.543992
C5    C     C_R   0.463958 0.939724 0.613129 -0.005396
C6    C     C_3   0.500909 0.937800 0.766742 -0.272543
C7    C     C_3   0.495492 0.077317 0.767288 -0.047206
C8    C     C_R   0.582060 0.548553 0.087195 0.189959
C9    C     C_R   0.424463 0.441391 0.061860 0.002314
C10   C     C_R   0.424421 0.441441 0.913037 0.020938
C11   C     C_R   0.582196 0.547057 0.939149 0.147740
C12   C     C_R   0.029813 0.488261 0.572751 0.049531
C13   C     C_3   0.618012 0.675834 0.937220 -0.266027
C14   C     C_3   0.616077 0.680412 0.095346 -0.155736
C15   C     C_R   0.498960 0.737999 0.500453 0.550257
C16   C     C_R   0.699568 0.492857 0.527217 0.548368
C17   C     C_R   0.813112 0.482351 0.546230 -0.000125
C18   C     C_R   0.187735 0.499438 0.458941 -0.000287
C19   C     C_R   0.022623 0.505965 0.316553 -0.132232
C20   C     C_R   0.129953 0.507593 0.326670 -0.134779
C21   C     C_R   0.137577 0.489875 0.580580 -0.128296
C22   C     C_2   0.598595 0.138495 0.811104 0.592082
C23   C     C_R   0.972389 0.495835 0.438516 0.031916
C24   C     C_3   0.722576 0.703603 0.176240 -0.407343
C25   C     C_3   0.817787 0.409593 0.800582 -0.365529
C26   C     C_3   0.039243 0.483209 0.840956 -0.413009
C27   C     C_R   0.865423 0.495091 0.427185 -0.152222
C28   C     C_R   0.870014 0.460983 0.679787 0.012862
C29   C     C_R   0.978600 0.476335 0.695289 0.022525
C30   C     C_R   0.463053 0.066102 0.611894 -0.000904
C31   C     C_R   0.488607 0.130142 0.494912 0.026698
C32   C     C_R   0.500593 0.063150 0.370903 -0.148239
Cu1   Cu    Cu3+1 0.499990 0.499980 0.640670 0.953678
Cu2   Cu    Cu3+1 0.500010 0.500020 0.359330 0.946540
H1    H     H_    0.822679 0.502680 0.323917 0.123825
H2    H     H_    0.167503 0.515173 0.231419 0.123242
H3    H     H_    0.183588 0.480830 0.681300 0.122828
H4    H     H_    0.514650 0.109114 0.274933 0.151585
H5    H     H_    0.515610 0.886698 0.277169 0.124351
H6    H     H_    0.443596 0.894901 0.829316 0.110492
H7    H     H_    0.681240 0.251014 0.952048 0.321789
H8    H     H_    0.718196 0.695705 0.291070 0.171324
H9    H     H_    0.780297 0.638130 0.142038 0.119747
H10   H     H_    0.748501 0.798378 0.156071 0.141931
H11   H     H_    0.870663 0.351061 0.869561 0.121708
H12   H     H_    0.581334 0.903283 0.784911 0.156731
H13   H     H_    0.788920 0.485236 0.864355 0.127150
H14   H     H_    0.753916 0.346437 0.760168 0.196606
H15   H     H_    0.989660 0.496395 0.927011 0.125423
H16   H     H_    0.085259 0.398470 0.860461 0.122463
H17   H     H_    0.091598 0.564513 0.849005 0.124771
H18   H     H_    0.432390 0.113140 0.825702 0.105122
H19   H     H_    0.362394 0.395664 0.107328 0.108714
H20   H     H_    0.362335 0.395560 0.847219 0.105590
H21   H     H_    0.695573 0.684499 0.899826 0.134106
H22   H     H_    0.556736 0.731507 0.882256 0.139873
H23   H     H_    0.555512 0.742334 0.127559 0.146761
H24   H     H_    0.978856 0.512440 0.213437 0.097123
N1    N     N_R   0.500660 0.500930 0.148010 -0.236696
N2    N     N_R   0.500660 0.500890 0.852110 -0.227208
O1    O     O_R   0.500000 0.319640 0.618810 -0.486878
O2    O     O_R   0.608105 0.219170 0.927224 -0.708381
O3    O     O_R   0.500010 0.319680 0.381230 -0.505055
O4    O     O_R   0.348990 0.499960 0.599490 -0.521170
O5    O     O_R   0.349000 0.500000 0.361910 -0.513249
O6    O     O_R   0.499990 0.680320 0.618770 -0.504207
O7    O     O_R   0.500000 0.680360 0.381190 -0.513450
O8    O     O_R   0.651000 0.500000 0.638090 -0.502199
O9    O     O_R   0.651010 0.500040 0.400510 -0.506165
O10   O     O_2   0.673335 0.116235 0.748038 -0.536009

loop_
_geom_bond_atom_site_label_1
_geom_bond_atom_site_label_2
_ccdc_geom_bond_type
Cu2   O7    S    
C7    H18   S    
C10   N2    A    
C6    C7    S    
C16   O8    A    
C23   C27   A    
C12   C29   A    
C22   O2    S    
C7    C22   S    
C24   H8    S    
C9    C10   A    
C4    O4    A    
C20   H2    S    
C19   C23   A    
C31   C32   A    
C12   C23   A    
C8    C11   A    
C3    C5    A    
C13   H22   S    
C15   O7    A    
C2    C3    A    
C4    C18   S    
C8    N1    A    
C7    C30   S    
C13   C14   S    
C15   O6    A    
C25   C28   S    
C11   C13   S    
Cu2   O9    S    
C5    C6    S    
C12   C21   A    
H7    O2    S    
Cu1   O4    S    
C24   H10   S    
C1    O3    A    
Cu2   O5    S    
Cu1   O1    S    
C28   C29   A    
C25   H14   S    
Cu1   O6    S    
Cu1   Cu2   S    
Cu1   N2    S    
C18   C20   A    
C32   H4    S    
C26   H16   S    
C19   H24   S    
C30   C31   A    
C10   H20   S    
C6    H6    S    
Cu2   N1    S    
C9    H19   S    
C11   N2    A    
C17   C27   A    
C25   H11   S    
C1    C31   S    
C21   H3    S    
C26   C29   S    
C2    C32   A    
C5    C30   A    
C26   H15   S    
C14   C24   S    
C14   H23   S    
C24   H9    S    
C18   C21   A    
C4    O5    A    
Cu2   O3    S    
C3    C15   S    
C8    C14   S    
C25   H13   S    
C6    H12   S    
C27   H1    S    
C26   H17   S    
C17   C28   A    
C9    N1    A    
C2    H5    S    
C22   O10   D    
C16   O9    A    
C19   C20   A    
Cu1   O8    S    
C16   C17   S    
C13   H21   S    
C1    O1    A    
