data_mof_unit_8114.cif
_audit_creation_date              2012-12-10T17:16:35-0500
_audit_creation_method            fapswitch 2.2
_symmetry_space_group_name_H-M    P1
_symmetry_Int_Tables_number       1
_space_group_crystal_system       triclinic
_cell_length_a                    10.102531
_cell_length_b                    10.625927
_cell_length_c                    10.865473
_cell_angle_alpha                 88.70743
_cell_angle_beta                  95.867304
_cell_angle_gamma                 79.074985
_cell_volume                      1138.20538225

loop_
_atom_site_label
_atom_site_type_symbol
_atom_type_description
_atom_site_fract_x
_atom_site_fract_y
_atom_site_fract_z
_atom_type_partial_charge
C1    C     C_R   0.442671 0.502321 0.267725 0.952077
C2    C     C_R   0.557329 0.497679 0.732275 0.952077
C3    C     C_2   0.407047 0.512378 0.135594 -0.400255
C4    C     C_2   0.592953 0.487625 0.864406 -0.400257
C5    C     C_2   0.501954 0.468161 0.061108 0.017381
C6    C     C_2   0.498046 0.531843 0.938892 0.017381
C7    C     C_2   0.073934 0.489925 0.490566 -0.125944
C8    C     C_2   0.926066 0.510075 0.509434 -0.125944
C9    C     C_R   0.507752 0.258003 0.515905 0.893992
C10   C     C_R   0.492248 0.741997 0.484095 0.893993
C11   C     C_R   0.749456 0.066379 0.456009 -0.143057
C12   C     C_R   0.250544 0.933621 0.543989 -0.143056
C13   C     C_R   0.828204 0.002592 0.369905 0.038682
C14   C     C_R   0.171794 0.997409 0.630091 0.038681
C15   C     C_R   0.781933 0.906922 0.302633 -0.211422
C16   C     C_R   0.218063 0.093080 0.697362 -0.211422
C17   C     C_R   0.661588 0.869340 0.326983 0.027558
C18   C     C_R   0.338409 0.130662 0.673014 0.027557
C19   C     C_R   0.586297 0.927769 0.421336 0.027704
C20   C     C_R   0.413703 0.072231 0.578664 0.027703
C21   C     C_R   0.620699 0.038135 0.473001 0.061517
C22   C     C_R   0.379301 0.961865 0.526999 0.061517
C23   C     C_R   0.477107 0.880931 0.464598 -0.216456
C24   C     C_R   0.522894 0.119069 0.535402 -0.216456
H1    H     H_    0.162077 0.136262 0.770815 0.151141
H2    H     H_    0.837916 0.863741 0.229178 0.151141
H3    H     H_    0.791195 0.136495 0.510365 0.167689
H4    H     H_    0.208805 0.863505 0.489632 0.167689
H5    H     H_    0.685482 0.420688 0.897872 0.154551
H6    H     H_    0.314518 0.579315 0.102129 0.154552
H7    H     H_    0.882645 0.384140 0.386558 0.177921
H8    H     H_    0.117355 0.615861 0.613442 0.177922
N1    N     N_2   0.157300 0.551390 0.551120 -0.197870
N2    N     N_2   0.842700 0.448610 0.448880 -0.197871
O1    O     O_R   0.568940 0.489660 0.307530 -0.590139
O2    O     O_R   0.431060 0.510340 0.692470 -0.590138
O3    O     O_R   0.348880 0.522640 0.340350 -0.617029
O4    O     O_R   0.651120 0.477360 0.659650 -0.617029
O5    O     O_R   0.610030 0.300280 0.483580 -0.626120
O6    O     O_R   0.389970 0.699720 0.516420 -0.626121
O7    O     O_R   0.389970 0.333270 0.516400 -0.604526
O8    O     O_R   0.610030 0.666730 0.483600 -0.604526
Zn1   Zn    Zn3+2 0.646940 0.477980 0.478080 0.957092
Zn2   Zn    Zn3+2 0.353060 0.522020 0.521920 0.957093
C25   C     C_1   0.950247 0.043723 0.342399 0.142019
N3    N     N_1   0.047654 0.077518 0.319503 -0.210296
C26   C     C_1   0.049751 0.956275 0.657597 0.142018
N4    N     N_1   0.952344 0.922479 0.680493 -0.210296
C27   C     C_1   0.605188 0.790755 0.237630 0.177481
N5    N     N_1   0.560285 0.730329 0.163095 -0.209761
C28   C     C_1   0.394801 0.209252 0.762367 0.177482
N6    N     N_1   0.439697 0.269685 0.836903 -0.209756
C29   C     C_1   0.391146 0.642405 0.898920 0.234130
N7    N     N_1   0.306631 0.730102 0.867181 -0.206302
C30   C     C_1   0.608852 0.357596 0.101078 0.234125
N8    N     N_1   0.693364 0.269895 0.132816 -0.206302
H9    H     H_    0.887484 0.578389 0.576091 0.178245
H10   H     H_    0.112516 0.421610 0.423909 0.178245

loop_
_geom_bond_atom_site_label_1
_geom_bond_atom_site_label_2
_ccdc_geom_bond_type
C1    C3    S    
C3    H6    S    
C19   C23   A    
C30   N8    T    
C9    C24   S    
C14   C26   S    
C11   H3    S    
C10   C23   S    
C10   O8    A    
O1    Zn1   S    
C11   C21   A    
C2    O4    A    
C7    H10   S    
C2    C4    S    
C4    H5    S    
C1    O3    A    
H8    N1    S    
O3    Zn2   S    
H7    N2    S    
O4    Zn1   S    
C16   C18   A    
C8    N2    D    
C29   N7    T    
C13   C25   S    
C11   C13   A    
C12   H4    S    
C10   O6    A    
C19   C21   A    
C20   C22   A    
C18   C28   S    
C18   C20   A    
C13   C15   A    
C5    C6    S    
C8    H9    S    
O7    Zn2   S    
C14   C16   A    
O2    Zn2   S    
C7    C8    S    
O8    Zn1   S    
C7    N1    D    
C6    C29   S    
C17   C27   S    
C28   N6    T    
C12   C22   A    
O6    Zn2   S    
C1    O1    A    
C4    C6    D    
C27   N5    T    
C21   C24   A    
C2    O2    A    
C16   H1    S    
C15   C17   A    
C20   C24   A    
C22   C23   A    
C15   H2    S    
O5    Zn1   S    
C17   C19   A    
C25   N3    T    
N1    Zn2   S    
C9    O7    A    
C5    C30   S    
C9    O5    A    
N2    Zn1   S    
C26   N4    T    
C12   C14   A    
C3    C5    D    
