data_mof_unit_63980.cif
_audit_creation_date              2012-12-11T15:58:31-0500
_audit_creation_method            fapswitch 2.2
_symmetry_space_group_name_H-M    P1
_symmetry_Int_Tables_number       1
_space_group_crystal_system       triclinic
_cell_length_a                    6.99905
_cell_length_b                    17.293895
_cell_length_c                    18.700082
_cell_angle_alpha                 106.517635
_cell_angle_beta                  90.175181
_cell_angle_gamma                 90.601267
_cell_volume                      2169.90257444

loop_
_atom_site_label
_atom_site_type_symbol
_atom_type_description
_atom_site_fract_x
_atom_site_fract_y
_atom_site_fract_z
_atom_type_partial_charge
O1    O     O_R   0.505770 0.442340 0.559500 -0.515591
O2    O     O_R   0.168070 0.405470 0.411510 -0.479970
O3    O     O_R   0.005580 0.557660 0.440500 -0.518012
C1    C     C_R   0.337021 0.380911 0.384247 0.690328
O4    O     O_R   0.175550 0.432860 0.557160 -0.526157
O5    O     O_R   0.013110 0.585240 0.587190 -0.542786
C2    C     C_R   0.344328 0.415969 0.580501 0.727619
O6    O     O_R   0.498240 0.414760 0.412810 -0.546049
O7    O     O_3   0.341770 0.549960 0.509680 -0.368586
V1    V     V_3+5 0.063870 0.490730 0.498200 1.512835
O8    O     O_R   0.683850 0.594530 0.588490 -0.527531
C3    C     C_R   0.854059 0.617951 0.616554 0.694125
O9    O     O_R   0.676380 0.567140 0.442840 -0.529106
C4    C     C_R   0.845289 0.584027 0.419505 0.707022
V2    V     V_3+5 0.564820 0.509270 0.501800 1.462497
O10   O     O_3   0.836790 0.450040 0.490320 -0.337242
C5    C     C_1   0.856495 0.635872 0.367271 -0.200615
C6    C     C_1   0.867814 0.678332 0.323572 0.034413
C7    C     C_1   0.882278 0.728474 0.271597 0.029468
C8    C     C_1   0.894676 0.770760 0.227770 0.026738
C9    C     C_1   0.909095 0.821034 0.175908 0.032144
C10   C     C_1   0.920352 0.863716 0.132400 -0.172503
C11   C     C_3   0.748950 0.828305 0.758935 -0.322192
H1    H     H_    0.608739 0.835214 0.787827 0.174647
H2    H     H_    0.777274 0.885709 0.745064 0.187260
C12   C     C_3   0.732198 0.757750 0.686005 -0.303692
H3    H     H_    0.766080 0.780414 0.637394 0.155861
H4    H     H_    0.581981 0.735209 0.678602 0.182557
H5    H     H_    0.710402 0.743968 0.860327 0.164351
C13   C     C_3   0.849924 0.733612 0.831075 -0.048398
C14   C     C_3   0.099099 0.797854 0.767043 0.021200
C15   C     C_3   0.908124 0.812707 0.811673 -0.017416
H6    H     H_    0.214008 0.783924 0.802487 0.161615
C16   C     C_3   0.870387 0.688633 0.687751 -0.008856
C17   C     C_3   0.829815 0.661102 0.758972 0.000721
C18   C     C_3   0.076994 0.725279 0.696085 -0.356236
H7    H     H_    0.113145 0.743869 0.645469 0.177797
H8    H     H_    0.182019 0.678542 0.699362 0.171714
H9    H     H_    0.935686 0.614224 0.760801 0.156210
C19   C     C_3   0.565787 0.283484 0.302650 -0.335764
H10   H     H_    0.660384 0.334975 0.301944 0.232293
H11   H     H_    0.608280 0.264423 0.352330 0.161985
C20   C     C_3   0.599288 0.212267 0.231291 -0.008860
H12   H     H_    0.643362 0.157903 0.247460 0.127294
H13   H     H_    0.431138 0.389232 0.244985 0.094392
H14   H     H_    0.489566 0.297057 0.145023 0.138582
C21   C     C_3   0.315319 0.343114 0.240609 -0.172630
C22   C     C_3   0.242723 0.231326 0.310866 -0.096617
C23   C     C_3   0.352318 0.311904 0.311333 -0.079280
H15   H     H_    0.321891 0.205898 0.350679 0.071430
C24   C     C_3   0.415056 0.193283 0.183122 -0.041203
C25   C     C_3   0.358271 0.275154 0.165568 -0.174697
C26   C     C_3   0.261938 0.168940 0.233472 -0.359423
H16   H     H_    0.301055 0.109945 0.242222 0.125885
H17   H     H_    0.123562 0.157403 0.204117 0.206661
C27   C     C_1   0.354525 0.363987 0.632673 -0.175431
C28   C     C_1   0.366181 0.321491 0.676334 0.031646
C29   C     C_1   0.381693 0.271361 0.728298 0.026959
C30   C     C_1   0.395136 0.229122 0.772128 0.027421
C31   C     C_1   0.410698 0.178915 0.824020 0.035003
C32   C     C_1   0.422431 0.136288 0.867557 -0.156125
O11   O     O_R   0.278700 0.085270 0.087180 -0.516647
O12   O     O_R   0.601470 0.067150 0.942830 -0.528694
O13   O     O_R   0.763830 0.914750 0.912810 -0.545395
C33   C     C_R   0.432685 0.084109 0.919539 0.751753
O14   O     O_R   0.608870 0.094540 0.088490 -0.526630
O15   O     O_R   0.771290 0.942340 0.059510 -0.527906
C34   C     C_R   0.438531 0.120782 0.113810 0.721376
O16   O     O_R   0.271240 0.057690 0.940480 -0.500891
O17   O     O_3   0.435150 0.950050 0.990310 -0.367113
V3    V     V_3+5 0.713080 0.009270 0.001800 1.507899
O18   O     O_R   0.100490 0.932820 0.057180 -0.524617
C35   C     C_R   0.931560 0.915882 0.080446 0.724577
O19   O     O_R   0.093090 0.905430 0.911530 -0.523694
C36   C     C_R   0.923323 0.883300 0.882682 0.725351
V4    V     V_3+5 0.212120 0.990690 0.998230 1.534676
O20   O     O_3   0.940180 0.049940 0.009690 -0.328994
I1    I     I_    0.040811 0.703832 0.910239 -0.361174
I2    I     I_    0.828754 0.242642 0.169602 -0.390057
C37   C     C_2   0.041713 0.229667 0.339639 0.780929
O21   O     O_2   0.950355 0.290631 0.364298 -0.530254
O22   O     O_R   0.963290 0.155309 0.340912 -0.677709
H18   H     H_    0.831577 0.160294 0.364036 0.276133
C38   C     C_2   0.141035 0.395117 0.240863 0.831950
O23   O     O_2   0.141522 0.441618 0.202320 -0.523075
O24   O     O_R   0.987290 0.396057 0.288100 -0.627845
H19   H     H_    0.885949 0.436134 0.284093 0.280638
C39   C     C_2   0.236286 0.272927 0.097336 0.788771
O25   O     O_2   0.157949 0.211118 0.060442 -0.537198
O26   O     O_R   0.229898 0.341476 0.071876 -0.618580
H20   H     H_    0.149662 0.332899 0.024961 0.319441
I3    I     I_    0.555038 0.602139 0.757562 -0.415425
I4    I     I_    0.204172 0.902934 0.737714 -0.501299

loop_
_geom_bond_atom_site_label_1
_geom_bond_atom_site_label_2
_ccdc_geom_bond_type
O14   C34   A    
O12   C33   A    
O2    C1    A    
C7    C8    T    
C1    O6    A    
C15   C36   S    
O26   H20   S    
C21   C23   S    
C26   H16   S    
C12   H3    S    
O19   V4    S    
C13   C17   S    
C18   H7    S    
C38   O24   S    
C6    C7    S    
C39   O25   D    
O5    C3    A    
C11   C12   S    
C20   I2    S    
V2    O10   S    
H14   C25   S    
C27   C28   T    
O16   V4    S    
C16   C17   S    
H13   C21   S    
O8    V2    S    
C12   C16   S    
C19   C20   S    
C14   C15   S    
C11   H1    S    
C14   H6    S    
O17   V3    S    
O15   C35   A    
O7    V1    S    
C16   C18   S    
O18   V4    S    
C17   I3    S    
C19   H11   S    
C30   C31   S    
O13   V3    S    
O9    C4    A    
C4    C5    S    
O11   V4    S    
C2    C27   S    
C26   H17   S    
C22   C26   S    
O19   C36   A    
C24   C25   S    
C25   C39   S    
C38   O23   D    
C37   O22   S    
O4    C2    A    
O24   H19   S    
C37   O21   D    
C29   C30   T    
C14   I4    S    
C31   C32   T    
C24   C26   S    
C17   H9    S    
C20   H12   S    
H5    C13   S    
O14   V3    S    
C5    C6    T    
C21   C38   S    
V4    O20   S    
O3    C4    A    
O1    V2    S    
C22   C23   S    
O12   V3    S    
O6    V2    S    
O9    V2    S    
O17   V4    S    
C3    C16   S    
O2    V1    S    
V3    O20   S    
C19   H10   S    
O1    C2    A    
C39   O26   S    
O18   C35   A    
O5    V1    S    
O8    C3    A    
C21   C25   S    
C12   H4    S    
O11   C34   A    
C1    C23   S    
C11   C15   S    
C22   C37   S    
C18   H8    S    
O7    V2    S    
O4    V1    S    
O3    V1    S    
V1    O10   S    
C13   C15   S    
C20   C24   S    
C28   C29   S    
C33   O16   A    
C22   H15   S    
O13   C36   A    
O15   V3    S    
C24   C34   S    
C11   H2    S    
C13   I1    S    
C32   C33   S    
C8    C9    S    
O22   H18   S    
C14   C18   S    
C10   C35   S    
C9    C10   T    
C19   C23   S    
