data_mof_unit_67828.cif
_audit_creation_date              2012-12-10T16:55:42-0500
_audit_creation_method            fapswitch 2.2
_symmetry_space_group_name_H-M    P1
_symmetry_Int_Tables_number       1
_space_group_crystal_system       triclinic
_cell_length_a                    7.85693
_cell_length_b                    8.702017
_cell_length_c                    10.534804
_cell_angle_alpha                 93.681366
_cell_angle_beta                  83.69224
_cell_angle_gamma                 92.82359
_cell_volume                      713.791710991

loop_
_atom_site_label
_atom_site_type_symbol
_atom_type_description
_atom_site_fract_x
_atom_site_fract_y
_atom_site_fract_z
_atom_type_partial_charge
C1    C     C_R   0.544242 0.793867 0.499652 0.894474
C2    C     C_3   0.499756 0.504428 0.877833 -0.252060
C3    C     C_3   0.351846 0.425782 0.049196 -0.447853
C4    C     C_3   0.653002 0.565017 0.951748 -0.496689
C5    C     C_2   0.568705 0.955709 0.495123 0.180645
C6    C     C_2   0.433003 0.046686 0.525665 0.225556
C7    C     C_3   0.583666 0.895728 0.043044 -0.253668
C8    C     C_3   0.604958 0.149668 0.820113 -0.419780
C9    C     C_3   0.145955 0.729491 0.062920 -0.303139
C10   C     C_3   0.914134 0.342437 0.971059 -0.407593
C11   C     C_3   0.956745 0.304284 0.289593 -0.045619
C12   C     C_R   0.455760 0.206471 0.505595 0.864821
C13   C     C_3   0.039800 0.682988 0.716375 -0.082496
C14   C     C_3   0.850113 0.013828 0.528218 -0.141252
C15   C     C_3   0.222795 0.041038 0.696300 -0.308954
C16   C     C_R   0.500143 0.506463 0.742701 0.909200
C17   C     C_R   0.499767 0.489493 0.257771 0.979863
C18   C     C_3   0.369946 0.577934 0.980759 0.475952
C19   C     C_3   0.634101 0.413043 0.021864 0.507569
C20   C     C_3   0.519699 0.636682 0.054133 0.464900
C21   C     C_3   0.485586 0.353768 0.946952 0.503033
C22   C     C_3   0.502806 0.486201 0.122784 -0.243039
H1    H     H_    0.234158 0.367248 0.093439 0.170514
H2    H     H_    0.117546 0.645124 0.138274 0.180403
H3    H     H_    0.021416 0.768461 0.039433 0.174951
H4    H     H_    0.978551 0.453963 0.997227 0.218395
H5    H     H_    0.891064 0.338655 0.868648 0.172041
H6    H     H_    0.001725 0.249121 0.981721 0.194631
H7    H     H_    0.959903 0.408585 0.233696 0.155565
H8    H     H_    0.825013 0.254441 0.307836 0.232342
H9    H     H_    0.032825 0.215961 0.231260 0.132729
H10   H     H_    0.172887 0.729580 0.700062 0.224208
H11   H     H_    0.033348 0.575265 0.768324 0.161223
H12   H     H_    0.772111 0.623451 0.909997 0.174005
H13   H     H_    0.965347 0.769959 0.777505 0.097629
H14   H     H_    0.972869 0.976426 0.476275 0.255429
H15   H     H_    0.817322 0.938254 0.609652 0.121992
H16   H     H_    0.871047 0.133520 0.567942 0.181550
H17   H     H_    0.083140 0.019682 0.719410 0.154625
H18   H     H_    0.247246 0.166576 0.715864 0.214014
H19   H     H_    0.287871 0.974537 0.761768 0.191952
H20   H     H_    0.497391 0.896556 0.966151 0.190254
H21   H     H_    0.719041 0.884617 0.001382 0.143369
H22   H     H_    0.574756 0.008204 0.098747 0.229778
H23   H     H_    0.699679 0.120196 0.883659 0.208958
H24   H     H_    0.662861 0.230766 0.749552 0.193857
H25   H     H_    0.572566 0.040887 0.766313 0.151974
H26   H     H_    0.217801 0.832244 0.100648 0.219670
N1    N     N_2   0.950320 0.457950 0.465730 0.170294
N2    N     N_2   0.049680 0.542050 0.534270 0.185040
O1    O     O_R   0.389250 0.738570 0.508410 -0.595214
O2    O     O_3   0.455039 0.204441 0.890869 -0.632639
O3    O     O_3   0.235263 0.665264 0.950017 -0.659591
O4    O     O_3   0.762682 0.319324 0.053834 -0.637914
O5    O     O_3   0.031032 0.338045 0.403249 -0.553983
O6    O     O_3   0.967644 0.658192 0.601057 -0.544643
O7    O     O_3   0.727004 0.010466 0.439545 -0.622721
O8    O     O_3   0.269292 0.989219 0.567712 -0.613511
O9    O     O_R   0.610750 0.261430 0.491590 -0.637645
O10   O     O_R   0.678390 0.711620 0.486450 -0.566705
O11   O     O_R   0.321610 0.288380 0.513550 -0.575101
O12   O     O_R   0.355460 0.513510 0.697030 -0.648646
O13   O     O_R   0.644540 0.486490 0.302970 -0.633578
O14   O     O_R   0.644600 0.486560 0.675070 -0.628155
O15   O     O_R   0.355400 0.513440 0.324930 -0.601480
O16   O     O_3   0.534125 0.778091 0.126199 -0.611742
Zn1   Zn    Zn3+2 0.306940 0.517990 0.514670 1.037904
Zn2   Zn    Zn3+2 0.693060 0.482010 0.485330 1.020102

loop_
_geom_bond_atom_site_label_1
_geom_bond_atom_site_label_2
_ccdc_geom_bond_type
C10   H5    S    
C2    C4    S    
C7    H20   S    
C9    H2    S    
C13   H11   S    
N1    Zn2   S    
C7    H21   S    
O9    Zn2   S    
C2    C18   S    
C2    C16   S    
N2    Zn1   S    
C8    O2    S    
C13   H10   S    
C3    H1    S    
C17   C22   S    
C5    O7    S    
C13   O6    S    
C10   H4    S    
C2    C21   S    
C8    H25   S    
C11   H9    S    
O1    Zn1   S    
C7    H22   S    
C17   O13   A    
C7    O16   S    
C6    C12   S    
C12   O11   A    
C1    O1    A    
C15   H17   S    
C16   O12   A    
O12   Zn1   S    
C9    H26   S    
C1    C5    S    
O14   Zn2   S    
C19   O4    S    
C20   O16   S    
C19   C21   S    
C20   C22   S    
C13   H13   S    
C18   C20   S    
C6    O8    S    
C12   O9    A    
C14   H14   S    
C5    C6    D    
C10   O4    S    
C15   O8    S    
C4    H12   S    
C15   H18   S    
C3    C21   S    
C9    O3    S    
O10   Zn2   S    
C15   H19   S    
C9    H3    S    
C14   H16   S    
C4    C20   S    
C19   C22   S    
C11   O5    S    
C11   H7    S    
C3    C18   S    
N2    O6    S    
N1    N2    D    
C1    O10   A    
C10   H6    S    
C14   O7    S    
O11   Zn1   S    
C8    H23   S    
C3    C22   S    
C16   O14   A    
C18   O3    S    
O15   Zn1   S    
O13   Zn2   S    
N1    O5    S    
C4    C19   S    
C17   O15   A    
C21   O2    S    
C8    H24   S    
C11   H8    S    
C14   H15   S    
