data_mof_unit_39785.cif
_audit_creation_date              2012-12-10T18:57:05-0500
_audit_creation_method            fapswitch 2.2
_symmetry_space_group_name_H-M    P1
_symmetry_Int_Tables_number       1
_space_group_crystal_system       triclinic
_cell_length_a                    10.701278
_cell_length_b                    9.936821
_cell_length_c                    10.765928
_cell_angle_alpha                 89.543428
_cell_angle_beta                  93.593116
_cell_angle_gamma                 94.076924
_cell_volume                      1139.66433115

loop_
_atom_site_label
_atom_site_type_symbol
_atom_type_description
_atom_site_fract_x
_atom_site_fract_y
_atom_site_fract_z
_atom_type_partial_charge
C1    C     C_R   0.260047 0.495971 0.504207 0.962038
C2    C     C_R   0.740036 0.505414 0.493812 0.920510
C3    C     C_R   0.588903 0.074570 0.573181 0.252446
C4    C     C_R   0.406867 0.062085 0.433436 0.319009
C5    C     C_R   0.583632 0.931016 0.574228 0.518351
C6    C     C_R   0.410944 0.919327 0.431905 0.643784
C7    C     C_R   0.498922 0.500279 0.260092 0.938897
C8    C     C_R   0.502263 0.499224 0.739621 1.064957
C9    C     C_R   0.500161 0.621339 0.061404 0.007577
C10   C     C_R   0.512857 0.616888 0.935873 -0.115301
C11   C     C_R   0.489628 0.499538 0.127333 -0.359375
C12   C     C_R   0.498497 0.496165 0.871241 -0.277532
C13   C     C_R   0.469238 0.376117 0.062437 0.573281
C14   C     C_R   0.469695 0.375207 0.934536 0.605381
C15   C     C_3   0.616046 0.726207 0.937963 0.195901
C16   C     C_3   0.597045 0.738823 0.076300 0.115280
C17   C     C_R   0.052477 0.406082 0.427561 -0.126722
C18   C     C_R   0.924621 0.412938 0.420634 -0.144624
C19   C     C_R   0.873082 0.517579 0.480853 -0.215162
C20   C     C_R   0.126646 0.490508 0.509533 -0.173740
C21   C     C_R   0.951413 0.619736 0.542315 0.331948
C22   C     C_R   0.073168 0.589525 0.577374 0.315558
H1    H     H_    0.591208 0.812647 0.877847 0.214999
H2    H     H_    0.678691 0.716266 0.140244 0.132635
H3    H     H_    0.091802 0.335724 0.368689 0.224842
H4    H     H_    0.866110 0.339045 0.365738 0.201262
N1    N     N_R   0.500000 0.857200 0.500000 -0.221791
N2    N     N_R   0.500000 0.142810 0.500000 -0.241091
O1    O     O_R   0.316770 0.614620 0.499990 -0.547069
O2    O     O_R   0.683230 0.614620 0.500010 -0.529736
O3    O     O_R   0.316800 0.385290 0.500000 -0.556010
O4    O     O_R   0.683200 0.385290 0.500000 -0.583901
O5    O     O_R   0.500000 0.614690 0.316780 -0.580998
O6    O     O_R   0.500000 0.614690 0.683220 -0.576700
O7    O     O_R   0.500020 0.385360 0.316780 -0.531346
O8    O     O_R   0.499980 0.385360 0.683220 -0.528528
Zn1   Zn    Zn3+2 0.500000 0.653120 0.500000 1.170263
Zn2   Zn    Zn3+2 0.500000 0.346880 0.500000 1.149878
F1    F     F_    0.456771 0.255040 0.121252 -0.534685
F2    F     F_    0.448392 0.255083 0.874692 -0.538281
S1    S     S_3+6 0.767419 0.668490 0.912493 0.090590
O9    O     O_2   0.792428 0.547228 0.992291 -0.324608
O10   O     O_2   0.773619 0.631234 0.778347 -0.227517
O11   O     O_3   0.876928 0.794132 0.948636 -0.393514
H5    H     H_    0.877054 0.803884 0.040124 0.358634
S2    S     S_3+6 0.531939 0.894623 0.112927 0.120867
O12   O     O_2   0.553978 0.998901 0.013159 -0.189914
O13   O     O_2   0.393099 0.871912 0.126105 -0.131216
O14   O     O_3   0.602184 0.953750 0.247306 -0.581281
H6    H     H_    0.684593 0.995313 0.224727 0.367297
S3    S     S_3+6 0.926277 0.794025 0.524693 0.168903
O15   O     O_2   0.897783 0.851676 0.647154 -0.074963
O16   O     O_2   0.045212 0.865933 0.483956 -0.192066
O17   O     O_3   0.810983 0.822150 0.416396 -0.542658
H7    H     H_    0.808258 0.921532 0.413564 0.382812
S4    S     S_3+6 0.153317 0.666734 0.710972 0.121110
O18   O     O_2   0.241293 0.782894 0.674408 -0.220715
O19   O     O_2   0.060961 0.717168 0.795719 -0.153059
O20   O     O_3   0.234737 0.550475 0.787924 -0.606655
H8    H     H_    0.237701 0.577161 0.876571 0.387578
S5    S     S_3+6 0.723585 0.151715 0.660829 0.168671
O21   O     O_2   0.762758 0.060371 0.766026 -0.137642
O22   O     O_2   0.828940 0.166821 0.574743 -0.281989
O23   O     O_3   0.708105 0.301179 0.726452 -0.494100
H9    H     H_    0.794160 0.333971 0.756699 0.391719
S6    S     S_3+6 0.264417 0.122882 0.369024 0.161128
O24   O     O_2   0.193701 0.020213 0.284342 -0.167870
O25   O     O_2   0.184747 0.145502 0.475926 -0.243905
O26   O     O_3   0.285051 0.265199 0.285978 -0.527252
H10   H     H_    0.223742 0.255821 0.213173 0.379305
F3    F     F_    0.661444 0.862193 0.650246 -0.546740
F4    F     F_    0.322363 0.839872 0.366804 -0.537156

loop_
_geom_bond_atom_site_label_1
_geom_bond_atom_site_label_2
_ccdc_geom_bond_type
S5    O23   S    
S6    O25   D    
S4    O20   S    
O4    Zn2   S    
O6    Zn1   S    
C11   C13   A    
C9    C10   A    
O17   H7    S    
C5    N1    A    
C7    C11   S    
C6    N1    A    
C18   H4    S    
O3    Zn2   S    
N2    Zn2   S    
C8    C12   S    
S3    O17   S    
C17   H3    S    
O23   H9    S    
O7    Zn2   S    
C15   H1    S    
C17   C18   A    
C12   C14   A    
C14   F2    S    
O20   H8    S    
C16   H2    S    
C8    O6    A    
C21   C22   A    
S4    O18   D    
C6    F4    S    
S1    O10   D    
S2    O14   S    
C15   S1    S    
C1    O1    A    
O26   H10   S    
C10   C12   A    
N1    Zn1   S    
C2    O4    A    
O8    Zn2   S    
C3    N2    A    
C4    N2    A    
C9    C16   S    
C20   C22   A    
C18   C19   A    
C10   C15   S    
C9    C11   A    
C1    O3    A    
C8    O8    A    
S5    O21   D    
S1    O11   S    
S2    O13   D    
C13   F1    S    
S6    O26   S    
C2    O2    A    
C7    O5    A    
C3    S5    S    
C16   S2    S    
C15   C16   S    
C3    C5    A    
C21   S3    S    
C17   C20   A    
S6    O24   D    
O11   H5    S    
C4    S6    S    
C5    F3    S    
O14   H6    S    
S1    O9    D    
O1    Zn1   S    
S5    O22   D    
S2    O12   D    
C1    C20   S    
C22   S4    S    
C19   C21   A    
C2    C19   S    
C13   C14   A    
C4    C6    A    
O5    Zn1   S    
S3    O15   D    
O2    Zn1   S    
S4    O19   D    
S3    O16   D    
C7    O7    A    
