data_mof_unit_42205.cif
_audit_creation_date              2012-12-11T15:36:48-0500
_audit_creation_method            fapswitch 2.2
_symmetry_space_group_name_H-M    P1
_symmetry_Int_Tables_number       1
_space_group_crystal_system       triclinic
_cell_length_a                    15.117463
_cell_length_b                    15.302993
_cell_length_c                    34.569683
_cell_angle_alpha                 91.548361
_cell_angle_beta                  91.984375
_cell_angle_gamma                 59.581418
_cell_volume                      6892.03011591

loop_
_atom_site_label
_atom_site_type_symbol
_atom_type_description
_atom_site_fract_x
_atom_site_fract_y
_atom_site_fract_z
_atom_type_partial_charge
C1    C     C_R   0.610589 0.303801 0.443513 0.557046
C2    C     C_R   0.737616 0.725631 0.187434 0.003325
C3    C     C_R   0.627369 0.131062 0.829232 -0.061029
C4    C     C_R   0.701491 0.146881 0.849128 0.293720
C5    C     C_R   0.710979 0.138578 0.889783 -0.022753
C6    C     C_R   0.595192 0.237765 0.772924 -0.077615
C7    C     C_R   0.609643 0.248189 0.733881 0.299776
C8    C     C_R   0.622537 0.171603 0.707462 0.074393
C9    C     C_R   0.627817 0.083363 0.720544 -0.123213
C10   C     C_R   0.626747 0.067302 0.760284 0.014547
C11   C     C_R   0.612469 0.145461 0.786882 -0.021304
C12   C     C_R   0.556020 0.192127 0.640698 -0.168092
C13   C     C_R   0.830984 0.663973 0.168063 -0.032981
C14   C     C_R   0.555901 0.212222 0.601663 0.002391
C15   C     C_R   0.718377 0.209334 0.612467 -0.035151
C16   C     C_R   0.721477 0.180931 0.651470 0.062189
C17   C     C_R   0.634474 0.181776 0.665973 0.049852
C18   C     C_R   0.630579 0.233705 0.588226 0.000829
C19   C     C_R   0.050349 0.735691 0.047155 0.588346
C20   C     C_R   0.746691 0.746479 0.064348 0.586937
C21   C     C_R   0.746580 0.046572 0.048653 0.548814
C22   C     C_R   0.018659 0.721565 0.939993 0.566076
C23   C     C_R   0.715071 0.729385 0.955630 0.571785
C24   C     C_R   0.830213 0.655777 0.127219 -0.099257
C25   C     C_R   0.719342 0.027802 0.943072 0.539735
C26   C     C_R   0.762034 0.624105 0.246070 0.280726
C27   C     C_R   0.761910 0.612851 0.286070 0.230029
C28   C     C_R   0.730563 0.697083 0.310751 0.016950
C29   C     C_R   0.713373 0.789927 0.296263 0.253416
C30   C     C_R   0.708252 0.803040 0.255667 0.003831
C31   C     C_R   0.733876 0.719134 0.230428 -0.009431
C32   C     C_R   0.593386 0.726949 0.355716 -0.020469
C33   C     C_R   0.594064 0.610773 0.449891 0.581646
C34   C     C_R   0.563315 0.702103 0.389269 -0.126175
C35   C     C_R   0.740271 0.605698 0.412881 -0.028975
C36   C     C_R   0.772555 0.633246 0.379456 0.005166
C37   C     C_R   0.698805 0.690167 0.350033 0.040167
C38   C     C_R   0.634910 0.639065 0.417157 -0.000340
C39   C     C_R   0.123524 0.712577 0.080869 0.009000
C40   C     C_R   0.152391 0.624676 0.102868 -0.030183
C41   C     C_R   0.161905 0.629634 0.143142 0.191768
C42   C     C_R   0.167319 0.711462 0.160122 -0.059899
C43   C     C_R   0.174513 0.781267 0.136166 -0.021350
C44   C     C_R   0.303002 0.591497 0.442436 0.565226
C45   C     C_R   0.147096 0.784918 0.096194 0.242839
C46   C     C_R   0.267395 0.677859 0.221781 -0.117411
C47   C     C_R   0.276549 0.661541 0.261889 0.308201
C48   C     C_R   0.187586 0.691917 0.283282 0.102325
C49   C     C_R   0.090445 0.733506 0.264223 -0.021514
C50   C     C_R   0.084992 0.742925 0.223940 -0.093761
C51   C     C_R   0.172304 0.716951 0.202777 -0.010642
C52   C     C_R   0.196230 0.595869 0.340980 -0.081267
C53   C     C_R   0.215640 0.573342 0.380443 0.029250
C54   C     C_R   0.243807 0.715796 0.389277 -0.176675
C55   C     C_R   0.607909 0.297106 0.552944 0.572416
C56   C     C_R   0.218841 0.741656 0.350314 0.038610
C57   C     C_R   0.199755 0.677689 0.325582 0.112829
C58   C     C_R   0.248135 0.629217 0.404514 0.022909
C59   C     C_R   0.706492 0.123547 0.080749 -0.091534
C60   C     C_R   0.771477 0.153210 0.099920 -0.024415
C61   C     C_R   0.761826 0.173352 0.139999 0.258269
C62   C     C_R   0.677133 0.180329 0.159136 0.033521
C63   C     C_R   0.598674 0.175592 0.137267 0.202653
C64   C     C_R   0.611598 0.151108 0.097596 -0.015736
C65   C     C_R   0.589836 0.264376 0.220892 0.267489
C66   C     C_R   0.589861 0.607210 0.558599 0.572675
C67   C     C_R   0.584026 0.265695 0.261541 -0.030238
C68   C     C_R   0.663855 0.186004 0.283560 -0.027831
C69   C     C_R   0.747719 0.104203 0.264344 0.075338
C70   C     C_R   0.753185 0.104417 0.223774 0.205663
C71   C     C_R   0.674194 0.184374 0.202079 0.018623
C72   C     C_R   0.738802 0.201446 0.347566 0.289227
C73   C     C_R   0.723657 0.229901 0.386899 -0.169660
C74   C     C_R   0.561385 0.232741 0.385039 0.223258
C75   C     C_R   0.577254 0.202556 0.346043 -0.157928
C76   C     C_R   0.661881 0.193021 0.326643 0.041026
C77   C     C_R   0.296474 0.589994 0.551347 0.573674
C78   C     C_R   0.633462 0.250405 0.405439 -0.015972
C79   C     C_R   0.682484 0.691090 0.920934 -0.032475
C80   C     C_R   0.738574 0.588972 0.908483 0.192316
C81   C     C_R   0.724239 0.564345 0.869369 -0.004926
C82   C     C_R   0.671863 0.644330 0.842390 -0.045409
C83   C     C_R   0.613544 0.745167 0.856235 -0.022319
C84   C     C_R   0.603173 0.762055 0.896433 0.000775
C85   C     C_R   0.596525 0.629168 0.778638 0.219663
C86   C     C_R   0.595274 0.629434 0.737717 -0.024091
C87   C     C_R   0.673483 0.635916 0.718194 -0.029322
C88   C     C_R   0.740014 0.720577 0.105336 -0.001964
C89   C     C_R   0.756989 0.632387 0.739636 0.026297
C90   C     C_R   0.763259 0.619292 0.780356 0.010627
C91   C     C_R   0.679338 0.626156 0.799711 0.031489
C92   C     C_R   0.743561 0.555933 0.653143 0.287477
C93   C     C_R   0.724465 0.550774 0.613018 0.279581
C94   C     C_R   0.569593 0.716026 0.616882 -0.171433
C95   C     C_R   0.590398 0.722962 0.656074 -0.136539
C96   C     C_R   0.671348 0.639698 0.675035 0.020654
C97   C     C_R   0.630763 0.626730 0.595745 -0.014115
C98   C     C_R   0.077976 0.693459 0.903720 -0.002799
C99   C     C_R   0.646176 0.778108 0.124714 0.238841
C100  C     C_R   0.121455 0.751560 0.891119 -0.004932
C101  C     C_R   0.150144 0.743813 0.852548 -0.121267
C102  C     C_R   0.149670 0.670402 0.828090 0.066382
C103  C     C_R   0.123988 0.602015 0.842090 -0.036575
C104  C     C_R   0.083467 0.615180 0.878785 -0.012026
C105  C     C_R   0.252566 0.600696 0.767975 -0.069241
C106  C     C_R   0.254888 0.596848 0.727093 -0.067766
C107  C     C_R   0.164154 0.661613 0.705363 0.032739
C108  C     C_R   0.071727 0.726788 0.723750 0.315052
C109  C     C_R   0.071284 0.735904 0.764200 0.286700
C110  C     C_R   0.644986 0.779603 0.165667 0.205786
C111  C     C_R   0.160749 0.672118 0.786209 -0.006954
C112  C     C_R   0.173484 0.737416 0.643186 0.048362
C113  C     C_R   0.206317 0.720271 0.604479 0.229226
C114  C     C_R   0.207747 0.560639 0.603949 -0.118372
C115  C     C_R   0.173026 0.577435 0.641777 0.023884
C116  C     C_R   0.165495 0.661230 0.662640 0.040796
C117  C     C_R   0.232609 0.626749 0.586253 0.015996
C118  C     C_R   0.667388 0.088584 0.908208 -0.082425
C119  C     C_R   0.585824 0.083210 0.889309 0.247131
C120  C     C_R   0.565091 0.106815 0.850053 -0.126448
Cr1   Cr    Cr6+3 0.426010 0.422500 0.497000 1.104655
Cr2   Cr    Cr6+3 0.651300 0.426310 0.501970 1.055180
Cr3   Cr    Cr6+3 0.422670 0.651170 0.501050 1.010841
Cr4   Cr    Cr6+3 0.905130 0.911420 0.992650 1.020634
Cr5   Cr    Cr6+3 0.911860 0.682710 0.002320 1.076598
Cr6   Cr    Cr6+3 0.682710 0.906840 0.004710 1.040813
H1    H     H_    0.482688 0.727739 0.392670 0.171263
H2    H     H_    0.334635 0.651238 0.204464 0.081426
H3    H     H_    0.012999 0.767089 0.208700 0.142013
H4    H     H_    0.177171 0.549906 0.321950 0.118793
H5    H     H_    0.264392 0.761844 0.407504 0.118470
H6    H     H_    0.518330 0.195695 0.329867 0.136721
H7    H     H_    0.778457 0.244676 0.402140 0.131129
H8    H     H_    0.537076 0.789215 0.672515 0.145029
H9    H     H_    0.500938 0.777674 0.604026 0.129945
H10   H     H_    0.172688 0.794995 0.841403 0.098375
H11   H     H_    0.124133 0.545456 0.822403 0.187421
H12   H     H_    0.221204 0.491971 0.589027 0.187093
H13   H     H_    0.579813 0.298865 0.793208 0.152548
H14   H     H_    0.503428 0.101682 0.835360 0.189952
H15   H     H_    0.639149 0.024644 0.699665 0.151848
H16   H     H_    0.494093 0.184181 0.651687 0.111901
O1    O     O_R   0.324990 0.503440 0.453910 -0.445174
O2    O     O_R   0.639980 0.519500 0.542640 -0.435889
O3    O     O_R   0.500750 0.673190 0.545480 -0.544438
O4    O     O_R   0.336260 0.640450 0.538210 -0.472077
O5    O     O_3   0.499990 0.499990 0.500010 -0.273949
O6    O     O_R   0.834210 0.019400 0.034570 -0.560675
O7    O     O_R   0.002210 0.824620 0.031030 -0.484755
O8    O     O_R   0.024400 0.669340 0.039790 -0.477168
O9    O     O_R   0.830490 0.694950 0.045870 -0.460686
O10   O     O_R   0.675430 0.831160 0.051290 -0.508713
O11   O     O_R   0.698870 0.998880 0.039560 -0.469857
O12   O     O_R   0.522030 0.339050 0.458320 -0.439167
O13   O     O_R   0.811290 0.006780 0.950620 -0.545617
O14   O     O_R   0.980960 0.812920 0.953200 -0.460509
O15   O     O_R   0.001480 0.656720 0.955830 -0.531223
O16   O     O_R   0.809240 0.683250 0.968050 -0.477080
O17   O     O_R   0.652500 0.818540 0.967340 -0.534351
O18   O     O_R   0.677620 0.987170 0.961730 -0.438935
O19   O     O_3   0.833240 0.833660 0.999890 -0.275427
O20   O     O_R   0.676180 0.324490 0.458320 -0.547117
O21   O     O_R   0.643570 0.521510 0.464260 -0.478625
O22   O     O_R   0.504630 0.675350 0.460920 -0.529249
O23   O     O_R   0.339850 0.642450 0.459830 -0.521282
O24   O     O_R   0.321120 0.501280 0.538470 -0.518681
O25   O     O_R   0.518440 0.337050 0.536710 -0.453041
O26   O     O_R   0.672300 0.322330 0.542880 -0.504842
O27   O     O_3   0.555164 0.817996 0.103019 -0.527739
C121  C     C_3   0.501407 0.924939 0.104305 0.033003
H17   H     H_    0.553422 0.955910 0.101386 0.120747
H18   H     H_    0.458580 0.953019 0.131468 0.178531
C122  C     C_3   0.423087 0.964893 0.070947 -0.342490
H19   H     H_    0.369220 0.936001 0.073040 0.202102
H20   H     H_    0.378552 0.048987 0.072060 0.081646
H21   H     H_    0.462490 0.940101 0.042853 0.166825
C123  C     C_2   0.929694 0.604556 0.190384 0.286022
H22   H     H_    0.989123 0.531555 0.179781 0.135026
O28   O     O_2   0.945920 0.636565 0.220878 -0.545584
C124  C     C_2   0.815534 0.546669 0.443949 0.217039
H23   H     H_    0.887730 0.479297 0.437087 0.078142
O29   O     O_2   0.798094 0.574700 0.477583 -0.532886
C125  C     C_2   0.176432 0.526307 0.084391 0.268831
H24   H     H_    0.170404 0.469642 0.100374 0.121343
O30   O     O_2   0.208394 0.505460 0.051482 -0.458527
O31   O     O_3   0.162744 0.843470 0.070549 -0.501001
C126  C     C_3   0.082965 0.945568 0.072077 0.050971
H25   H     H_    0.097111 0.986566 0.096189 0.202105
H26   H     H_    0.006345 0.953746 0.075982 0.148121
C127  C     C_3   0.081803 0.995049 0.034229 -0.309586
H27   H     H_    0.061566 0.959760 0.009638 0.192022
H28   H     H_    0.025249 0.077252 0.034889 0.122196
H29   H     H_    0.158747 0.984977 0.029471 0.162409
C128  C     C_2   0.215632 0.834956 0.337117 0.239155
H30   H     H_    0.233829 0.879005 0.357563 0.133302
O32   O     O_2   0.191674 0.865015 0.303942 -0.538413
O33   O     O_3   0.371147 0.599689 0.279722 -0.552608
C129  C     C_3   0.438696 0.636129 0.274630 -0.035035
H31   H     H_    0.404101 0.715701 0.285146 0.198337
H32   H     H_    0.459882 0.631733 0.243938 0.082338
C130  C     C_3   0.536763 0.569661 0.297714 -0.351678
H33   H     H_    0.573851 0.490365 0.286730 0.148616
H34   H     H_    0.590543 0.597480 0.294367 0.135325
H35   H     H_    0.519907 0.571646 0.328849 0.170094
O34   O     O_3   0.148285 0.564350 0.165898 -0.592553
C131  C     C_3   0.243950 0.481988 0.177690 0.011690
H36   H     H_    0.292854 0.507469 0.192787 0.183291
H37   H     H_    0.285835 0.433127 0.152614 0.149439
C132  C     C_3   0.225437 0.418787 0.205869 -0.320690
H38   H     H_    0.180752 0.387380 0.191291 0.122836
H39   H     H_    0.299894 0.355416 0.216428 0.179887
H40   H     H_    0.182386 0.466299 0.231033 0.188448
C133  C     C_2   0.993548 0.764820 0.284556 0.280893
H41   H     H_    0.923771 0.785289 0.267865 0.154094
O35   O     O_2   0.988747 0.771302 0.319758 -0.414434
C134  C     C_2   0.924200 0.577676 0.107950 0.238235
H42   H     H_    0.997738 0.568373 0.116522 0.106340
O36   O     O_2   0.920128 0.520397 0.083609 -0.482488
C135  C     C_2   0.199224 0.492251 0.394589 0.278149
H43   H     H_    0.211995 0.429659 0.375475 0.093626
O37   O     O_2   0.164585 0.497922 0.426536 -0.491050
C136  C     C_2   0.208665 0.849631 0.153156 0.211940
H44   H     H_    0.193661 0.873946 0.183169 0.113864
O38   O     O_2   0.257607 0.876224 0.134305 -0.503856
C137  C     C_2   0.845746 0.167478 0.077739 0.233110
H45   H     H_    0.837213 0.174721 0.046519 0.124645
O39   O     O_2   0.914783 0.175113 0.093749 -0.516891
C138  C     C_2   0.523983 0.157134 0.074387 0.272237
H46   H     H_    0.462864 0.153610 0.088440 0.121381
O40   O     O_2   0.516481 0.171145 0.039520 -0.513343
C139  C     C_2   0.495587 0.352233 0.281017 0.247258
H47   H     H_    0.506002 0.379339 0.309148 0.120855
O41   O     O_2   0.409579 0.392755 0.266324 -0.487316
O42   O     O_3   0.510230 0.338637 0.198837 -0.489173
C140  C     C_3   0.520646 0.424968 0.196623 -0.017018
H48   H     H_    0.598278 0.411488 0.204969 0.074446
H49   H     H_    0.465544 0.483768 0.216420 0.191515
C141  C     C_3   0.494382 0.465389 0.155509 -0.371522
H50   H     H_    0.419221 0.475808 0.145592 0.165035
H51   H     H_    0.490030 0.539926 0.154432 0.101382
H52   H     H_    0.554107 0.411191 0.135541 0.159285
C142  C     C_2   0.881883 0.606583 0.376306 0.227978
H53   H     H_    0.941995 0.548139 0.394084 0.105555
O43   O     O_2   0.906385 0.651483 0.354380 -0.437181
O44   O     O_3   0.845861 0.163993 0.160990 -0.470927
C143  C     C_3   0.828549 0.260081 0.172344 0.031881
H54   H     H_    0.766705 0.295108 0.193696 0.094365
H55   H     H_    0.808624 0.310015 0.146844 0.159161
C144  C     C_3   0.926515 0.247671 0.191393 -0.342956
H56   H     H_    0.991209 0.208209 0.171226 0.193145
H57   H     H_    0.916942 0.322830 0.198967 0.112189
H58   H     H_    0.945132 0.202520 0.218191 0.158121
C145  C     C_2   0.829805 0.015146 0.285471 0.320533
H59   H     H_    0.903797 0.968459 0.272411 0.120657
O45   O     O_2   0.815353 0.990918 0.316943 -0.452603
O46   O     O_3   0.841061 0.030715 0.205678 -0.539397
C146  C     C_3   0.824133 0.956118 0.187846 -0.001151
H60   H     H_    0.744664 0.986375 0.176226 0.094066
H61   H     H_    0.841558 0.896566 0.209271 0.120191
C147  C     C_3   0.895621 0.908033 0.153925 -0.356396
H62   H     H_    0.972964 0.894963 0.161865 0.170951
H63   H     H_    0.901166 0.834792 0.145638 0.086988
H64   H     H_    0.866255 0.958342 0.128519 0.145247
O47   O     O_3   0.820010 0.195438 0.327500 -0.576070
C148  C     C_3   0.914704 0.138142 0.347794 -0.028962
H65   H     H_    0.920798 0.070601 0.361963 0.173614
H66   H     H_    0.924929 0.186471 0.369951 0.114418
C149  C     C_3   0.001968 0.100993 0.319532 -0.344646
H67   H     H_    0.995090 0.165195 0.302872 0.144639
H68   H     H_    0.076593 0.064462 0.335693 0.129361
H69   H     H_    0.000364 0.045081 0.298891 0.190096
O48   O     O_3   0.507766 0.196903 0.154120 -0.532847
C150  C     C_3   0.520878 0.109404 0.172282 -0.006818
H70   H     H_    0.560260 0.099613 0.200778 0.180381
H71   H     H_    0.565745 0.039598 0.154572 0.081913
C151  C     C_3   0.416370 0.121980 0.179370 -0.362597
H72   H     H_    0.372315 0.135573 0.151625 0.133782
H73   H     H_    0.426155 0.052549 0.192872 0.146869
H74   H     H_    0.372773 0.186714 0.199342 0.160649
O49   O     O_3   0.467673 0.261409 0.400869 -0.537221
C152  C     C_3   0.466670 0.173893 0.411773 -0.007645
H75   H     H_    0.533384 0.125906 0.431350 0.141917
H76   H     H_    0.467287 0.129195 0.385733 0.116258
C153  C     C_3   0.369096 0.205500 0.433568 -0.322867
H77   H     H_    0.300802 0.252043 0.414678 0.154156
H78   H     H_    0.367619 0.137150 0.442571 0.101064
H79   H     H_    0.366141 0.250527 0.459758 0.197149
O50   O     O_3   0.792301 0.516183 0.936753 -0.553866
C154  C     C_3   0.893130 0.443248 0.925848 -0.015544
H80   H     H_    0.918358 0.462334 0.899148 0.161525
H81   H     H_    0.897491 0.369210 0.920909 0.163784
C155  C     C_3   0.968294 0.429106 0.958889 -0.312672
H82   H     H_    0.969135 0.500260 0.964572 0.196465
H83   H     H_    0.046788 0.368560 0.951156 0.128456
H84   H     H_    0.945982 0.407094 0.985606 0.177174
C156  C     C_2   0.503157 0.840373 0.913034 0.312617
H85   H     H_    0.492970 0.849000 0.944015 0.119911
O51   O     O_2   0.427287 0.890314 0.892477 -0.483429
O52   O     O_3   0.783973 0.520962 0.301258 -0.575336
C157  C     C_3   0.890896 0.452360 0.300721 0.019712
H86   H     H_    0.937317 0.489743 0.306043 0.165716
H87   H     H_    0.911999 0.411750 0.272407 0.173670
C158  C     C_3   0.918975 0.374503 0.332135 -0.397268
H88   H     H_    0.872691 0.337345 0.327717 0.207520
H89   H     H_    0.001817 0.316641 0.331001 0.091532
H90   H     H_    0.902620 0.411588 0.361099 0.133245
C159  C     C_2   0.513195 0.619067 0.716481 0.257962
H91   H     H_    0.446681 0.630179 0.731414 0.144236
O53   O     O_2   0.519951 0.593910 0.682439 -0.462305
O54   O     O_3   0.526407 0.614632 0.798283 -0.578284
C160  C     C_3   0.435171 0.707910 0.805191 -0.025673
H92   H     H_    0.372799 0.714376 0.785432 0.134320
H93   H     H_    0.441392 0.776174 0.800691 0.137038
C161  C     C_3   0.402093 0.709824 0.846463 -0.317200
H94   H     H_    0.466099 0.692136 0.867317 0.184520
H95   H     H_    0.336452 0.785954 0.853475 0.130262
H96   H     H_    0.378655 0.652560 0.849747 0.191010
C162  C     C_2   0.758446 0.457818 0.857869 0.280286
H97   H     H_    0.763846 0.405437 0.879441 0.182801
O55   O     O_2   0.779583 0.427470 0.824569 -0.498426
C163  C     C_2   0.830244 0.652490 0.719080 0.258435
H98   H     H_    0.807030 0.692880 0.691902 0.111182
O56   O     O_2   0.917087 0.623758 0.731371 -0.499939
C164  C     C_2   0.856143 0.597325 0.803785 0.279764
H99   H     H_    0.849213 0.639425 0.830345 0.051993
O57   O     O_2   0.940181 0.526426 0.795320 -0.451093
O58   O     O_3   0.818285 0.471277 0.672710 -0.568790
C165  C     C_3   0.918348 0.446211 0.662988 0.016309
H100  H     H_    0.925184 0.514306 0.658298 0.129376
H101  H     H_    0.942786 0.396831 0.636845 0.204387
C166  C     C_3   0.991690 0.384709 0.695812 -0.334506
H102  H     H_    0.989474 0.314019 0.699690 0.156769
H103  H     H_    0.071191 0.364175 0.689113 0.156327
H104  H     H_    0.969443 0.428991 0.723260 0.228201
O59   O     O_3   0.790540 0.464458 0.592496 -0.495995
C167  C     C_3   0.847950 0.488171 0.567843 -0.001695
H105  H     H_    0.897717 0.510072 0.584859 0.098665
H106  H     H_    0.797255 0.551735 0.548339 0.182266
C168  C     C_3   0.915836 0.395565 0.543149 -0.308753
H107  H     H_    0.867637 0.373950 0.525023 0.172403
H108  H     H_    0.962349 0.412736 0.523946 0.124091
H109  H     H_    0.968279 0.331044 0.561981 0.157352
C169  C     C_2   0.568351 0.832284 0.829067 0.247391
H110  H     H_    0.569991 0.820268 0.798021 0.114186
O60   O     O_2   0.531798 0.919229 0.840935 -0.454670
C170  C     C_2   0.139559 0.820514 0.916751 0.241154
H111  H     H_    0.139732 0.885083 0.904569 0.090681
O61   O     O_2   0.160937 0.802547 0.951097 -0.469349
O62   O     O_3   0.799048 0.539481 0.222255 -0.566550
C171  C     C_3   0.721927 0.515891 0.212890 -0.017951
H112  H     H_    0.646598 0.565920 0.226401 0.095748
H113  H     H_    0.748266 0.438938 0.223737 0.149458
C172  C     C_3   0.707962 0.516624 0.169015 -0.386464
H114  H     H_    0.669359 0.474226 0.160193 0.082753
H115  H     H_    0.660365 0.595086 0.158529 0.150356
H116  H     H_    0.783556 0.480852 0.154922 0.189682
C173  C     C_2   0.037441 0.552952 0.887417 0.234372
H117  H     H_    0.963110 0.587051 0.900605 0.107355
O63   O     O_2   0.080832 0.463274 0.878327 -0.487922
C174  C     C_2   0.151733 0.503399 0.660130 0.219872
H118  H     H_    0.121440 0.517133 0.689061 0.146982
O64   O     O_2   0.167231 0.426202 0.643031 -0.552236
C175  C     C_2   0.349515 0.518004 0.707502 0.225472
H119  H     H_    0.399270 0.445929 0.721349 0.131243
O65   O     O_2   0.373615 0.532336 0.675995 -0.447265
C176  C     C_2   0.347730 0.532787 0.791041 0.203084
H120  H     H_    0.422561 0.508234 0.779403 0.128160
O66   O     O_2   0.344444 0.502036 0.822854 -0.492289
O67   O     O_3   0.980958 0.760234 0.702590 -0.562844
C177  C     C_3   0.925378 0.866378 0.698699 0.031181
H121  H     H_    0.974139 0.901663 0.700293 0.178576
H122  H     H_    0.867401 0.900950 0.721593 0.189921
C178  C     C_3   0.868944 0.889914 0.659645 -0.375707
H123  H     H_    0.822679 0.852114 0.657033 0.163796
H124  H     H_    0.816381 0.972280 0.656566 0.122095
H125  H     H_    0.924984 0.862308 0.635958 0.145182
O68   O     O_3   0.986344 0.813393 0.782322 -0.598953
C179  C     C_3   0.918239 0.780725 0.792554 0.004780
H126  H     H_    0.957128 0.698349 0.798322 0.167252
H127  H     H_    0.860513 0.798209 0.768897 0.209699
C180  C     C_3   0.862691 0.837584 0.828909 -0.401123
H128  H     H_    0.819925 0.920209 0.823594 0.147773
H129  H     H_    0.807910 0.813775 0.837331 0.097392
H130  H     H_    0.918377 0.822048 0.853129 0.152025
C181  C     C_2   0.149073 0.834540 0.662612 0.200144
H131  H     H_    0.109733 0.904492 0.646409 0.123821
O69   O     O_2   0.175746 0.837360 0.696142 -0.533862
O70   O     O_3   0.202108 0.797569 0.582946 -0.578822
C182  C     C_3   0.285525 0.811836 0.592797 0.012304
H132  H     H_    0.359333 0.738685 0.594680 0.187438
H133  H     H_    0.274312 0.852272 0.620888 0.133197
C183  C     C_3   0.292042 0.877556 0.562002 -0.336750
H134  H     H_    0.218766 0.951081 0.560214 0.145739
H135  H     H_    0.354892 0.892958 0.569334 0.093900
H136  H     H_    0.306403 0.838869 0.533336 0.184053
O71   O     O_3   0.554651 0.842695 0.184565 -0.599995
C184  C     C_3   0.501709 0.790864 0.190934 -0.013300
H137  H     H_    0.547716 0.725135 0.209924 0.102565
H138  H     H_    0.482050 0.765345 0.163163 0.198225
C185  C     C_3   0.403044 0.861761 0.211703 -0.353439
H139  H     H_    0.352782 0.928060 0.193293 0.182379
H140  H     H_    0.361965 0.821067 0.218132 0.107059
H141  H     H_    0.420774 0.888972 0.239360 0.167685
O72   O     O_3   0.529972 0.049136 0.908118 -0.490923
C186  C     C_3   0.454286 0.130648 0.929931 0.032580
H142  H     H_    0.396209 0.190044 0.910313 0.152391
H143  H     H_    0.488432 0.165167 0.949686 0.157515
C187  C     C_3   0.400225 0.092360 0.954833 -0.325783
H144  H     H_    0.456930 0.031106 0.974022 0.161132
H145  H     H_    0.343125 0.155363 0.973047 0.115146
H146  H     H_    0.359717 0.062850 0.936191 0.187916
C188  C     C_2   0.760537 0.185996 0.913376 0.256604
H147  H     H_    0.760740 0.184737 0.944734 0.124107
O73   O     O_2   0.796736 0.231899 0.898500 -0.517348
C189  C     C_2   0.817688 0.144125 0.675669 0.204463
H148  H     H_    0.884322 0.143417 0.664889 0.154856
O74   O     O_2   0.826145 0.109729 0.707812 -0.586637
O75   O     O_3   0.612591 0.331552 0.720763 -0.556554
C190  C     C_3   0.673543 0.355956 0.745801 -0.007207
H149  H     H_    0.727465 0.293615 0.765453 0.192707
H150  H     H_    0.622120 0.423092 0.763681 0.182327
C191  C     C_3   0.739466 0.380775 0.721837 -0.276726
H151  H     H_    0.692631 0.429729 0.697535 0.251957
H152  H     H_    0.771024 0.419763 0.740173 0.168186
H153  H     H_    0.804578 0.310655 0.709848 0.177062
C192  C     C_2   0.645413 0.967601 0.773061 0.197934
H154  H     H_    0.655108 0.949308 0.803369 0.142660
O76   O     O_2   0.651148 0.903757 0.749668 -0.564752
O77   O     O_3   0.729581 0.854712 0.320535 -0.441198
C193  C     C_3   0.641586 0.922173 0.341545 0.054066
H155  H     H_    0.575236 0.911103 0.336899 0.115725
H156  H     H_    0.615188 0.000578 0.332291 0.191413
C194  C     C_3   0.669761 0.915742 0.384535 -0.343214
H157  H     H_    0.718287 0.950249 0.390376 0.182288
H158  H     H_    0.599241 0.956484 0.401697 0.072478
H159  H     H_    0.712706 0.835928 0.394056 0.190848
C195  C     C_2   0.476637 0.208547 0.576312 0.248162
H160  H     H_    0.403667 0.226470 0.588170 0.117255
O78   O     O_2   0.494243 0.179423 0.542718 -0.515805
O79   O     O_3   0.762762 0.171640 0.828463 -0.528595
C196  C     C_3   0.867219 0.093218 0.831131 0.005515
H161  H     H_    0.882333 0.027176 0.849040 0.113799
H162  H     H_    0.913195 0.124937 0.844250 0.198410
C197  C     C_3   0.906979 0.054596 0.790893 -0.335836
H163  H     H_    0.902793 0.117087 0.773867 0.196639
H164  H     H_    0.988226 0.992388 0.792857 0.145520
H165  H     H_    0.860260 0.025552 0.776294 0.207241
C198  C     C_2   0.807631 0.211036 0.596660 0.228114
H166  H     H_    0.839752 0.172325 0.569509 0.109165
O80   O     O_2   0.842315 0.259665 0.612749 -0.474803
C199  C     C_2   0.673801 0.904363 0.239553 0.248172
H167  H     H_    0.673919 0.913430 0.208758 0.087379
O81   O     O_2   0.640498 0.979924 0.260076 -0.535972
C200  C     C_2   0.512953 0.787911 0.326048 0.162182
H168  H     H_    0.532761 0.788814 0.296297 0.082818
O82   O     O_2   0.423044 0.839750 0.334724 -0.539960

loop_
_geom_bond_atom_site_label_1
_geom_bond_atom_site_label_2
_ccdc_geom_bond_type
C128  O32   D    
C173  H117  S    
C175  O65   D    
C114  C115  A    
C158  H89   S    
C195  H160  S    
C152  C153  S    
Cr1   O24   S    
C104  C173  S    
C66   C97   S    
C153  H77   S    
C21   C59   S    
C184  H138  S    
O77   C193  S    
C106  C107  A    
C23   O16   A    
C49   C133  S    
C150  C151  S    
C108  C109  A    
O54   C160  S    
C2    C110  A    
Cr3   O3    S    
C34   H1    S    
C142  O43   D    
Cr1   O5    S    
C19   O7    A    
C10   C192  S    
C61   C62   A    
C67   C139  S    
C59   C60   A    
O44   C143  S    
C102  C111  S    
C55   O26   A    
C138  H46   S    
C172  H115  S    
C124  O29   D    
C143  H55   S    
C133  O35   D    
C141  H51   S    
Cr1   O12   S    
C187  H146  S    
C27   O52   S    
C65   O42   S    
C190  C191  S    
C183  H135  S    
C178  H125  S    
C70   O46   S    
C6    C11   A    
C131  H36   S    
C167  H105  S    
C196  C197  S    
C94   C97   A    
C161  H94   S    
C99   C110  A    
C82   C91   S    
C32   C34   A    
C83   C169  S    
C75   C76   A    
C113  O70   S    
C158  H88   S    
C194  H159  S    
C170  H111  S    
O72   C186  S    
C85   O54   S    
C165  H101  S    
C156  H85   S    
C187  H145  S    
C1    O20   A    
C87   C89   A    
C180  H128  S    
C73   H7    S    
C157  H86   S    
Cr4   O19   S    
C32   C200  S    
C153  H79   S    
C33   C38   S    
C72   C73   A    
C53   C58   A    
C6    C7    A    
C22   O15   A    
C8    C17   S    
C20   O9    A    
C198  H166  S    
C103  H11   S    
C77   O24   A    
C186  H142  S    
C16   C189  S    
C16   C17   A    
C155  H83   S    
Cr5   O15   S    
C69   C70   A    
C193  H156  S    
C88   C99   A    
C3    C11   S    
O59   C167  S    
O58   C165  S    
C163  H98   S    
C21   O11   A    
C129  H32   S    
C146  H61   S    
C179  H126  S    
C132  H40   S    
C181  O69   D    
C15   C18   A    
Cr4   O7    S    
C127  H27   S    
C22   C98   S    
C190  H149  S    
C19   O8    A    
C177  H121  S    
C7    C8    A    
C85   C86   A    
C56   C57   A    
C74   O49   S    
C144  H56   S    
C188  H147  S    
C33   O21   A    
C134  O36   D    
C109  C111  A    
C145  H59   S    
C121  H17   S    
C115  C116  A    
C92   C96   A    
C14   C195  S    
C146  H60   S    
C46   C47   A    
C6    H13   S    
C162  O55   D    
Cr5   O9    S    
Cr6   O10   S    
C189  H148  S    
O47   C148  S    
C123  O28   D    
C23   O17   A    
C182  C183  S    
C107  C108  A    
C189  O74   D    
C200  H168  S    
C120  H14   S    
C5    C188  S    
C9    C10   A    
C157  C158  S    
C39   C45   A    
C40   C125  S    
C110  O71   S    
C122  H19   S    
O46   C146  S    
C130  H34   S    
C1    O12   A    
C167  C168  S    
C174  H118  S    
C94   H9    S    
C122  H20   S    
C80   O50   S    
C21   O6    A    
C35   C38   A    
O49   C152  S    
C52   C57   A    
C186  C187  S    
C29   O77   S    
C39   C40   A    
O48   C150  S    
C65   C67   A    
C46   C51   A    
C197  H163  S    
C15   C198  S    
C29   C30   A    
C50   H3    S    
C43   C45   A    
C170  O61   D    
C83   C84   A    
C175  H119  S    
C132  H38   S    
C32   C37   A    
C187  H144  S    
C136  O38   D    
C148  H66   S    
C18   C55   S    
C56   C128  S    
C82   C83   A    
C160  H93   S    
C191  H151  S    
C140  C141  S    
C113  C117  A    
C3    C4    A    
C180  H130  S    
C93   C97   A    
C112  C116  A    
C75   H6    S    
C180  H129  S    
C143  H54   S    
C132  H39   S    
C144  H58   S    
C151  H73   S    
C165  H100  S    
C68   C76   S    
Cr2   O20   S    
C5    C118  A    
C146  C147  S    
C36   C142  S    
C26   O62   S    
C153  H78   S    
O31   C126  S    
C184  H137  S    
C147  H62   S    
C24   C134  S    
C28   C37   S    
C44   O1    A    
C100  C101  A    
C150  H71   S    
C62   C71   S    
C44   O23   A    
C114  H12   S    
O33   C129  S    
C166  H104  S    
C107  C116  S    
C114  C117  A    
C10   C11   A    
C63   C64   A    
C93   O59   S    
C4    C5    A    
C168  H109  S    
C151  H72   S    
C191  H153  S    
C164  O57   D    
C49   C50   A    
Cr4   O13   S    
C47   O33   S    
C119  O72   S    
C77   O4    A    
C143  C144  S    
C53   C135  S    
C101  C102  A    
C41   C42   A    
C164  H99   S    
C35   C36   A    
C55   O25   A    
C169  H110  S    
C25   C118  S    
C138  O40   D    
C172  H114  S    
C133  H41   S    
C4    O79   S    
Cr4   O6    S    
C141  H52   S    
C26   C27   A    
O62   C171  S    
C197  H165  S    
C27   C28   A    
C28   C29   A    
C190  H150  S    
O75   C190  S    
C147  H64   S    
C30   C31   A    
C131  H37   S    
C81   C162  S    
C196  H162  S    
C66   O2    A    
C192  H154  S    
C161  H95   S    
C35   C124  S    
C154  C155  S    
O79   C196  S    
C130  H33   S    
C14   C18   A    
C176  H120  S    
C126  C127  S    
C127  H29   S    
C95   C96   A    
C44   C58   S    
C68   C69   A    
C194  H158  S    
C12   C17   A    
C140  H48   S    
C70   C71   A    
Cr6   O19   S    
C72   C76   A    
C161  H96   S    
C156  O51   D    
C128  H30   S    
C105  C111  A    
C173  O63   D    
C1    C78   S    
C109  O68   S    
C185  H141  S    
C157  H87   S    
C158  H90   S    
C171  H112  S    
C195  O78   D    
Cr1   O25   S    
C72   O47   S    
Cr2   O26   S    
C159  H91   S    
C48   C57   S    
O71   C184  S    
C167  H106  S    
C184  C185  S    
C135  H43   S    
C86   C87   A    
C185  H139  S    
C171  C172  S    
Cr6   O17   S    
C95   H8    S    
C67   C68   A    
C60   C61   A    
C198  O80   D    
C105  C176  S    
C62   C63   A    
C92   O58   S    
C168  H107  S    
C151  H74   S    
C43   C136  S    
C25   O18   A    
C50   C51   A    
C139  O41   D    
Cr2   O5    S    
C171  H113  S    
C24   C88   A    
C193  C194  S    
C86   C159  S    
C98   C100  A    
C152  H76   S    
C42   C43   A    
C179  H127  S    
C172  H116  S    
C124  H23   S    
C181  H131  S    
C141  H50   S    
C36   C37   A    
C127  H28   S    
Cr5   O16   S    
C147  H63   S    
Cr5   O19   S    
C183  H134  S    
C165  C166  S    
C177  H122  S    
C119  C120  A    
C84   C156  S    
Cr6   O18   S    
C112  C181  S    
C105  C106  A    
C179  C180  S    
C188  O73   D    
Cr3   O5    S    
C52   H4    S    
C126  H25   S    
Cr3   O22   S    
C90   C91   A    
C79   C84   A    
C121  H18   S    
C169  O60   D    
C13   C123  S    
C20   C88   S    
C92   C93   A    
C12   H16   S    
C94   C95   A    
C177  C178  S    
Cr5   O8    S    
Cr6   O11   S    
C20   O10   A    
C149  H67   S    
C123  H22   S    
C74   C78   A    
C103  C104  A    
C182  H133  S    
C200  O82   D    
C89   C90   A    
C52   C53   A    
C199  O81   D    
C121  C122  S    
C108  O67   S    
C160  H92   S    
C25   O13   A    
O27   C121  S    
Cr1   O1    S    
C30   C199  S    
Cr2   O2    S    
C166  H102  S    
C174  O64   D    
C81   C82   A    
C85   C91   A    
C69   C145  S    
C22   O14   A    
O34   C131  S    
C54   H5    S    
C59   C64   A    
C46   H2    S    
C155  H82   S    
C77   C117  S    
C125  O30   D    
C45   O31   S    
C186  H143  S    
C61   O44   S    
C15   C16   A    
C197  H164  S    
C60   C137  S    
C2    C13   A    
C193  H155  S    
C66   O3    A    
C137  O39   D    
C118  C119  A    
C8    C9    A    
C163  O56   D    
C73   C78   A    
Cr3   O4    S    
C129  H31   S    
C148  H65   S    
C42   C51   S    
C26   C31   A    
C191  H152  S    
C140  H49   S    
C115  C174  S    
C102  C103  A    
C183  H136  S    
C112  C113  A    
C7    O75   S    
C142  H53   S    
C54   C56   A    
C144  H57   S    
C74   C75   A    
C33   O22   A    
C134  H42   S    
C185  H140  S    
C145  O45   D    
O52   C157  S    
C9    H15   S    
O70   C182  S    
C152  H75   S    
C65   C71   A    
Cr2   O21   S    
C199  H167  S    
C13   C24   A    
C2    C31   S    
C159  O53   D    
C63   O48   S    
C125  H24   S    
C162  H97   S    
C135  O37   D    
O42   C140  S    
C47   C48   A    
C149  H69   S    
C87   C96   S    
C129  C130  S    
C137  H45   S    
C100  C170  S    
C166  H103  S    
O68   C179  S    
C19   C39   S    
C40   C41   A    
C168  H108  S    
C12   C14   A    
Cr4   O14   S    
C130  H35   S    
C64   C138  S    
C90   C164  S    
C154  H80   S    
O67   C177  S    
C54   C58   A    
C122  H21   S    
C101  H10   S    
C48   C49   A    
C34   C38   A    
C155  H84   S    
C149  H68   S    
C80   C81   A    
C99   O27   S    
C89   C163  S    
O50   C154  S    
C178  H123  S    
C131  C132  S    
C196  H161  S    
C182  H132  S    
C192  O76   D    
C98   C104  A    
C154  H81   S    
C178  H124  S    
C41   O34   S    
C136  H44   S    
C148  C149  S    
C176  O66   D    
C126  H26   S    
C3    C120  A    
C79   C80   A    
Cr3   O23   S    
C194  H157  S    
C106  C175  S    
C160  C161  S    
C139  H47   S    
C23   C79   S    
C150  H70   S    
