data_mof_unit_7927.cif
_audit_creation_date              2013-03-05T15:48:56-0500
_audit_creation_method            fapswitch 2.2
_symmetry_space_group_name_H-M    P1
_symmetry_Int_Tables_number       1
_space_group_crystal_system       triclinic
_cell_length_a                    6.946975
_cell_length_b                    13.550707
_cell_length_c                    20.137075
_cell_angle_alpha                 104.289621
_cell_angle_beta                  90.36137
_cell_angle_gamma                 90.083703
_cell_volume                      1836.93677112

loop_
_atom_site_label
_atom_site_type_symbol
_atom_site_description
_atom_site_fract_x
_atom_site_fract_y
_atom_site_fract_z
_atom_type_partial_charge
O1    O     O_R   0.506780 0.600060 0.449950 -0.593582
O2    O     O_R   0.179840 0.597110 0.589410 -0.603264
O3    O     O_R   0.004570 0.399940 0.550050 -0.593136
C1    C     C_R   0.348227 0.618269 0.617095 0.927038
O4    O     O_R   0.177380 0.612160 0.452890 -0.595283
O5    O     O_R   0.002100 0.415100 0.412560 -0.596645
C2    C     C_R   0.345823 0.638616 0.436099 0.926048
O6    O     O_R   0.509250 0.584900 0.587440 -0.594673
O7    O     O_3   0.337570 0.435330 0.486930 -0.275691
V1    V     V_3+5 0.064650 0.512000 0.502430 1.158173
O8    O     O_R   0.672090 0.402890 0.410590 -0.598328
C3    C     C_R   0.840493 0.380974 0.383098 0.904567
O9    O     O_R   0.674540 0.387840 0.547110 -0.597277
C4    C     C_R   0.844118 0.361623 0.563585 0.932130
V2    V     V_3+5 0.564040 0.488000 0.497570 1.156520
O10   O     O_3   0.840990 0.564670 0.513070 -0.275752
C5    C     C_R   0.898350 0.108901 0.604395 -0.133336
H1    H     H_    0.883806 0.159986 0.511911 0.101209
H2    H     H_    0.889337 0.981491 0.683295 0.155240
H3    H     H_    0.911619 0.029738 0.576743 0.113230
C6    C     C_R   0.857418 0.284210 0.601947 -0.082933
C7    C     C_R   0.860915 0.315778 0.930393 -0.167464
C8    C     C_R   0.869923 0.392606 0.896005 -0.085350
C9    C     C_R   0.878417 0.368966 0.824824 -0.153307
C10   C     C_R   0.874941 0.266591 0.785655 0.078508
C11   C     C_R   0.866340 0.187252 0.820955 -0.059297
C12   C     C_R   0.877523 0.240626 0.712448 0.087088
C13   C     C_R   0.893322 0.136859 0.676268 0.142508
C14   C     C_R   0.891005 0.060880 0.711492 -0.360713
C15   C     C_R   0.864084 0.084539 0.781919 0.316738
C16   C     C_R   0.858193 0.313657 0.673521 -0.234764
C17   C     C_R   0.880819 0.182423 0.567408 -0.184933
C18   C     C_R   0.860296 0.213559 0.894132 -0.160362
H4    H     H_    0.838586 0.393563 0.696952 0.097108
H5    H     H_    0.858146 0.336155 0.985931 0.091015
H6    H     H_    0.891393 0.432742 0.802084 0.099597
H7    H     H_    0.873094 0.471438 0.924863 0.108113
C19   C     C_3   0.677037 0.221184 0.228303 -0.095518
C20   C     C_3   0.774137 0.200311 0.292947 -0.138594
H8    H     H_    0.706148 0.160048 0.328586 0.102220
H9    H     H_    0.528779 0.197564 0.210156 0.110234
C21   C     C_3   0.849318 0.310684 0.312474 -0.081016
C22   C     C_3   0.752285 0.332350 0.248627 -0.132709
C23   C     C_3   0.938650 0.298783 0.207320 -0.144765
C24   C     C_3   0.035756 0.277874 0.271946 -0.099115
C25   C     C_3   0.960490 0.166709 0.251605 -0.134410
C26   C     C_3   0.863488 0.188453 0.187772 -0.072970
H10   H     H_    0.666113 0.400998 0.247829 0.101712
H11   H     H_    0.006583 0.338991 0.171643 0.101009
H12   H     H_    0.184064 0.301326 0.290107 0.112883
H13   H     H_    0.046613 0.098039 0.252371 0.112213
C27   C     C_3   0.472959 0.785671 0.710079 -0.114898
C28   C     C_3   0.295149 0.840756 0.748112 -0.016289
H14   H     H_    0.245547 0.917856 0.746215 0.142247
H15   H     H_    0.570153 0.816642 0.676551 0.121072
C29   C     C_3   0.357362 0.808409 0.813123 -0.079722
C30   C     C_3   0.535434 0.753865 0.775778 -0.034767
C31   C     C_3   0.416131 0.654554 0.752885 -0.199946
C32   C     C_3   0.238445 0.709777 0.791097 -0.153117
C33   C     C_3   0.175835 0.741441 0.725332 -0.078287
C34   C     C_3   0.354078 0.687202 0.688013 -0.137732
H16   H     H_    0.683974 0.757817 0.796871 0.153423
H17   H     H_    0.466784 0.577424 0.754296 0.119594
H18   H     H_    0.141400 0.679021 0.824769 0.111443
H19   H     H_    0.026982 0.736358 0.704300 0.131298
C35   C     C_R   0.370382 0.892337 0.392736 -0.174605
H20   H     H_    0.364900 0.842624 0.485954 0.103373
H21   H     H_    0.382757 0.018410 0.310986 0.128695
H22   H     H_    0.377660 0.972008 0.419877 0.116518
C36   C     C_R   0.354153 0.715969 0.396792 -0.082653
C37   C     C_R   0.349125 0.681833 0.067072 -0.174235
C38   C     C_R   0.341686 0.605144 0.101743 -0.093029
C39   C     C_R   0.344473 0.628940 0.173133 -0.187738
C40   C     C_R   0.354835 0.731406 0.212090 0.092906
C41   C     C_R   0.362103 0.809805 0.176083 0.105631
C42   C     C_R   0.358065 0.758669 0.285403 0.086338
C43   C     C_R   0.367890 0.863357 0.320783 0.194486
C44   C     C_R   0.375050 0.938528 0.284295 -0.256206
C45   C     C_R   0.372336 0.912395 0.213176 -0.226033
C46   C     C_R   0.351765 0.685847 0.325126 -0.247654
C47   C     C_R   0.363234 0.819036 0.430473 -0.177664
C48   C     C_R   0.359199 0.783830 0.103415 -0.152514
H23   H     H_    0.344602 0.605159 0.302280 0.099076
H24   H     H_    0.346959 0.661597 0.011529 0.097077
H25   H     H_    0.338206 0.565145 0.196032 0.107144
H26   H     H_    0.333725 0.526332 0.073025 0.113906
H27   H     H_    0.378212 0.973714 0.187469 0.126601
O11   O     O_R   0.203580 0.914920 0.912610 -0.571577
O12   O     O_R   0.535710 0.887810 0.047120 -0.604182
O13   O     O_R   0.710730 0.084950 0.087430 -0.605444
C49   C     C_R   0.367403 0.861681 0.064207 0.901601
O14   O     O_R   0.533010 0.902850 0.910600 -0.553997
O15   O     O_R   0.708010 0.100090 0.949930 -0.558372
C50   C     C_R   0.364060 0.879130 0.883695 0.988542
O16   O     O_R   0.206300 0.899780 0.050100 -0.601092
O17   O     O_3   0.375170 0.064580 0.013100 -0.284049
V3    V     V_3+5 0.648200 0.988020 0.997570 1.215054
O18   O     O_R   0.038030 0.112330 0.952840 -0.596254
C51   C     C_R   0.869103 0.137241 0.934812 0.990064
O19   O     O_R   0.040730 0.097300 0.089360 -0.604769
C52   C     C_R   0.872368 0.118695 0.117003 0.891502
V4    V     V_3+5 0.148780 0.012220 0.002360 1.191738
O20   O     O_3   0.871930 0.935430 0.986900 -0.263317
N1    N     N_R   0.790078 0.005443 0.809417 0.221115
O21   O     O_R   0.604332 0.999318 0.813725 -0.448914
O22   O     O_R   0.895174 0.926318 0.809848 -0.461301

loop_
_geom_bond_atom_site_label_1
_geom_bond_atom_site_label_2
_geom_bond_distance
_ccdc_geom_bond_type
C23   H11   1.110179 S    
C26   C52   1.504823 S    
O17   V4    1.714746 S    
C39   C40   1.417666 A    
C1    O6    1.299611 A    
C2    C36   1.462380 S    
C45   H27   1.082856 S    
C30   H16   1.109591 S    
C43   C44   1.396314 A    
C27   C28   1.549824 S    
C29   C50   1.505611 S    
C7    H5    1.084076 S    
C6    C16   1.397336 A    
C32   H18   1.110128 S    
C9    H6    1.077184 S    
C40   C42   1.430681 A    
C4    C6    1.450911 S    
C13   C14   1.387088 A    
C27   H15   1.110255 S    
C27   C34   1.536034 S    
O5    C3    1.296485 A    
C19   C20   1.549448 S    
C35   H22   1.083984 S    
V2    O10   2.169088 S    
C5    H3    1.084133 S    
C29   C30   1.543435 S    
C35   C43   1.404517 A    
C36   C47   1.395054 A    
C3    C21   1.505363 S    
O8    V2    1.995821 S    
C8    C9    1.391090 A    
O1    V2    2.024687 S    
O12   C49   1.294160 A    
C22   H10   1.110326 S    
O15   C51   1.294924 A    
O13   V3    2.000850 S    
C23   C26   1.538620 S    
C37   C48   1.396619 A    
C31   C34   1.538447 S    
C32   C33   1.549497 S    
O9    C4    1.295591 A    
C46   H23   1.077419 S    
O19   V4    1.995970 S    
N1    O21   1.297739 A    
C28   C33   1.547836 S    
O14   V3    2.005319 S    
C20   C21   1.539204 S    
H21   C44   1.084314 S    
C6    C17   1.393233 A    
O11   C50   1.299032 A    
C40   C41   1.427385 A    
C36   C46   1.399434 A    
C9    C10   1.416578 A    
C19   H9    1.110549 S    
C20   H8    1.110218 S    
O4    C2    1.294503 A    
C44   C45   1.387818 A    
C10   C11   1.429094 A    
C8    H7    1.082870 S    
C12   C16   1.412031 A    
C1    C34   1.501418 S    
C48   C49   1.466636 S    
O12   V3    2.031206 S    
C33   C34   1.542699 S    
C18   C51   1.470382 S    
C21   C24   1.541782 S    
O2    C1    1.293557 A    
C22   C23   1.550329 S    
O13   C52   1.296247 A    
C14   C15   1.388551 A    
H20   C47   1.083535 S    
C11   C18   1.428920 A    
O11   V4    1.995872 S    
O17   V3    2.150524 S    
O14   C50   1.295880 A    
C16   H4    1.078261 S    
C42   C43   1.422970 A    
C39   H25   1.076446 S    
C19   C26   1.541725 S    
V3    O20   1.703395 S    
O3    C4    1.287763 A    
C20   C25   1.550661 S    
C33   H19   1.110536 S    
C11   C15   1.419518 A    
O6    V2    1.995293 S    
O9    V2    2.021961 S    
H1    C17   1.083688 S    
C21   C22   1.539331 S    
O2    V1    2.005175 S    
O15   V3    2.030159 S    
C23   C24   1.549340 S    
C37   H24   1.083869 S    
O7    V1    2.150499 S    
C28   C29   1.539304 S    
C31   H17   1.110231 S    
C7    C18   1.397309 A    
C25   C26   1.539429 S    
O1    C2    1.292575 A    
C5    C13   1.403379 A    
C42   C46   1.416148 A    
C38   C39   1.393494 A    
O5    V1    2.000854 S    
C38   H26   1.082854 S    
O8    C3    1.300516 A    
O16   V4    2.031093 S    
C41   C48   1.418091 A    
C28   H14   1.110093 S    
N1    O22   1.299815 A    
C10   C12   1.428845 A    
C29   C32   1.537867 S    
C31   C32   1.551185 S    
O4    V1    2.031185 S    
O3    V1    2.030166 S    
O18   V4    2.021816 S    
C35   C47   1.392649 A    
C30   C31   1.547931 S    
C24   H12   1.110473 S    
C25   H13   1.110259 S    
O19   C52   1.300552 A    
O7    V2    1.716826 S    
V4    O20   2.169178 S    
C27   C30   1.548925 S    
C49   O16   1.292235 A    
C24   C25   1.549425 S    
C19   C22   1.549386 S    
C37   C38   1.388703 A    
O18   C51   1.295834 A    
C15   N1    1.419393 S    
C12   C13   1.419774 A    
C5    C17   1.388403 A    
C7    C8    1.386900 A    
V1    O10   1.703355 S    
C41   C45   1.407833 A    
H2    C14   1.085436 S    
