data_mof_unit_35938.cif
_audit_creation_date              2012-12-11T16:56:16-0500
_audit_creation_method            fapswitch 2.2
_symmetry_space_group_name_H-M    P1
_symmetry_Int_Tables_number       1
_space_group_crystal_system       triclinic
_cell_length_a                    6.95795
_cell_length_b                    14.530965
_cell_length_c                    16.194054
_cell_angle_alpha                 90.423135
_cell_angle_beta                  90.04694
_cell_angle_gamma                 90.022118
_cell_volume                      1637.26629334

loop_
_atom_site_label
_atom_site_type_symbol
_atom_type_description
_atom_site_fract_x
_atom_site_fract_y
_atom_site_fract_z
_atom_type_partial_charge
O1    O     O_R   0.505830 0.583360 0.413880 -0.537298
O2    O     O_R   0.175830 0.595460 0.585520 -0.544134
O3    O     O_R   0.005520 0.416640 0.586120 -0.541183
C1    C     C_R   0.344642 0.617310 0.614404 0.718716
O4    O     O_R   0.176120 0.594390 0.414490 -0.543115
O5    O     O_R   0.005810 0.415570 0.413870 -0.540538
C2    C     C_R   0.344858 0.616247 0.385897 0.694596
O6    O     O_R   0.505540 0.584430 0.586130 -0.536056
O7    O     O_3   0.339200 0.441330 0.500000 -0.370928
V1    V     V_3+5 0.064350 0.510880 0.500000 1.389418
O8    O     O_R   0.676100 0.404540 0.414480 -0.539936
C3    C     C_R   0.845091 0.382141 0.386075 0.693390
O9    O     O_R   0.675810 0.405610 0.585510 -0.539731
C4    C     C_R   0.845037 0.383761 0.613683 0.744264
V2    V     V_3+5 0.564340 0.489120 0.500000 1.399113
O10   O     O_3   0.839360 0.558670 0.500000 -0.372136
C5    C     C_2   0.720915 0.208928 0.786045 -0.125625
C6    C     C_2   0.885622 0.181687 0.822522 -0.308825
H1    H     H_    0.585363 0.180322 0.806991 0.134370
H2    H     H_    0.022861 0.209571 0.803664 0.125073
C7    C     C_2   0.708579 0.277445 0.718082 -0.136250
C8    C     C_2   0.861565 0.315533 0.680538 -0.310647
H3    H     H_    0.565004 0.296494 0.698159 0.134705
H4    H     H_    0.006287 0.297196 0.698602 0.129901
C9    C     C_R   0.726146 0.245571 0.191401 0.102553
C10   C     C_R   0.882638 0.185551 0.183454 -0.109618
C11   C     C_R   0.034920 0.196413 0.240029 -0.177881
C12   C     C_R   0.023070 0.260713 0.305437 -0.177786
H5    H     H_    0.138660 0.264174 0.349997 0.131201
C13   C     C_R   0.857936 0.315528 0.316537 -0.108552
C14   C     C_R   0.714017 0.308908 0.256316 0.097193
C15   C     C_3   0.504174 0.292562 0.266694 -0.414854
C16   C     C_3   0.517293 0.223936 0.195705 -0.395547
H6    H     H_    0.438742 0.246313 0.139532 0.174097
C17   C     C_R   0.494422 0.678270 0.745515 0.094870
C18   C     C_R   0.352355 0.683512 0.684489 -0.176642
C19   C     C_R   0.211162 0.752129 0.694126 -0.181103
H7    H     H_    0.097020 0.757751 0.648919 0.143281
C20   C     C_R   0.225419 0.820054 0.756730 0.336531
C21   C     C_R   0.376902 0.815929 0.816402 -0.197735
C22   C     C_R   0.504918 0.741742 0.810128 0.049519
C23   C     C_3   0.719459 0.741199 0.808762 -0.371724
C24   C     C_3   0.707578 0.671848 0.738145 -0.384966
H8    H     H_    0.781547 0.711971 0.866132 0.165559
H9    H     H_    0.779765 0.808653 0.790138 0.221927
H10   H     H_    0.762278 0.602591 0.754916 0.161232
H11   H     H_    0.761658 0.699094 0.678548 0.180794
C25   C     C_R   0.509564 0.746259 0.311724 0.105840
C26   C     C_R   0.352961 0.686360 0.319761 -0.111414
C27   C     C_R   0.200598 0.696531 0.263223 -0.178118
C28   C     C_R   0.212385 0.759972 0.197883 -0.178752
C29   C     C_R   0.377555 0.814670 0.186725 -0.110478
C30   C     C_R   0.521645 0.808719 0.246880 0.099714
C31   C     C_3   0.731398 0.792165 0.236368 -0.416282
C32   C     C_3   0.718333 0.724542 0.307251 -0.396121
H12   H     H_    0.797108 0.747703 0.363423 0.175842
H13   H     H_    0.744585 0.651953 0.288250 0.166133
O11   O     O_R   0.229930 0.912420 0.917160 -0.532494
O12   O     O_R   0.559420 0.902500 0.088780 -0.540144
O13   O     O_R   0.729660 0.081330 0.089380 -0.538439
C33   C     C_R   0.390398 0.880414 0.117192 0.693038
O14   O     O_R   0.559650 0.901420 0.917750 -0.534512
O15   O     O_R   0.729880 0.080250 0.917130 -0.536963
C34   C     C_R   0.390757 0.881925 0.886972 0.697122
O16   O     O_R   0.229700 0.913500 0.089410 -0.540310
O17   O     O_3   0.396250 0.055540 0.003280 -0.374463
V3    V     V_3+5 0.671130 0.986010 0.003260 1.412033
O18   O     O_R   0.059600 0.091310 0.917720 -0.548128
C35   C     C_R   0.890889 0.113151 0.889516 0.754088
O19   O     O_R   0.059370 0.092380 0.088750 -0.544242
C36   C     C_R   0.890678 0.114568 0.117345 0.691226
V4    V     V_3+5 0.171120 0.007820 0.003230 1.398117
O20   O     O_3   0.896130 0.938240 0.003240 -0.366868
H14   H     H_    0.490789 0.151623 0.214564 0.166958
O21   O     O_3   0.096634 0.892077 0.753256 -0.656083
H15   H     H_    0.158647 0.947971 0.776220 0.283705
H16   H     H_    0.077282 0.651590 0.266654 0.130931
H17   H     H_    0.096657 0.762826 0.153403 0.130214
H18   H     H_    0.818364 0.854260 0.251411 0.173391
H19   H     H_    0.764432 0.758708 0.176101 0.170501
H20   H     H_    0.158130 0.151389 0.236574 0.131282
H21   H     H_    0.417417 0.354464 0.251714 0.172019
H22   H     H_    0.470854 0.259966 0.326879 0.172162

loop_
_geom_bond_atom_site_label_1
_geom_bond_atom_site_label_2
_ccdc_geom_bond_type
C9    C14   A    
C25   C32   S    
C32   H12   S    
C1    C18   S    
C22   C23   S    
C17   C18   A    
C1    O6    A    
C30   C31   S    
C10   C11   A    
O14   V3    S    
C12   H5    S    
C29   C33   S    
O5    C3    A    
C13   C14   A    
V2    O10   S    
C5    C6    D    
O14   C34   A    
O12   V3    S    
O8    V2    S    
O17   V4    S    
O15   C35   A    
O13   V3    S    
O18   C35   A    
O19   C36   A    
V3    O20   S    
C20   O21   S    
C17   C24   S    
O7    V1    S    
C6    C35   S    
O17   V3    S    
C7    C8    D    
C10   C36   S    
C23   H8    S    
C16   H6    S    
C31   H19   S    
C7    H3    S    
O11   C34   A    
C25   C30   A    
O15   V3    S    
O12   C33   A    
C28   C29   A    
C11   H20   S    
C2    C26   S    
C20   C21   A    
O4    C2    A    
O13   C36   A    
C9    C10   A    
C5    C7    S    
C23   H9    S    
O2    C1    A    
O21   H15   S    
C19   H7    S    
C14   C15   S    
O18   V4    S    
C27   C28   A    
O3    C4    A    
O1    V2    S    
C21   C22   A    
O6    V2    S    
O9    V2    S    
C8    H4    S    
C23   C24   S    
O2    V1    S    
C27   H16   S    
C29   C30   A    
C31   H18   S    
C15   H22   S    
C31   C32   S    
C18   C19   A    
C3    C13   S    
O1    C2    A    
V4    O20   S    
O5    V1    S    
O8    C3    A    
O16   V4    S    
C15   H21   S    
C21   C34   S    
C15   C16   S    
C4    C8    S    
C32   H13   S    
O7    V2    S    
C28   H17   S    
O4    V1    S    
C19   C20   A    
O3    V1    S    
V1    O10   S    
O11   V4    S    
C25   C26   A    
C12   C13   A    
C5    H1    S    
C6    H2    S    
C17   C22   A    
C24   H10   S    
C33   O16   A    
C16   H14   S    
C26   C27   A    
C11   C12   A    
O19   V4    S    
O9    C4    A    
C24   H11   S    
C9    C16   S    
