data_mof_unit_47307.cif
_audit_creation_date              2012-12-11T17:07:52-0500
_audit_creation_method            fapswitch 2.2
_symmetry_space_group_name_H-M    P1
_symmetry_Int_Tables_number       1
_space_group_crystal_system       triclinic
_cell_length_a                    17.341299
_cell_length_b                    17.341297
_cell_length_c                    17.48644
_cell_angle_alpha                 90.126874
_cell_angle_beta                  90.126891
_cell_angle_gamma                 89.492064
_cell_volume                      5258.30081812

loop_
_atom_site_label
_atom_site_type_symbol
_atom_type_description
_atom_site_fract_x
_atom_site_fract_y
_atom_site_fract_z
_atom_type_partial_charge
C1    C     C_R   0.394911 0.301437 0.904497 0.061378
C2    C     C_R   0.198408 0.894364 0.403534 0.069016
C3    C     C_R   0.781954 0.851699 0.197871 -0.190569
C4    C     C_R   0.148301 0.218045 0.802129 -0.190568
C5    C     C_R   0.310364 0.754857 0.640323 -0.193027
C6    C     C_R   0.851792 0.780832 0.800842 -0.194447
C7    C     C_R   0.684046 0.212014 0.661712 -0.185717
C8    C     C_R   0.643540 0.252035 0.717684 -0.182641
C9    C     C_R   0.808599 0.740567 0.854941 -0.195705
C10   C     C_R   0.353833 0.715053 0.695404 -0.195953
C11   C     C_R   0.190935 0.256668 0.858294 -0.192137
C12   C     C_R   0.743332 0.809064 0.141706 -0.192137
C13   C     C_R   0.084342 0.175633 0.361565 0.082780
C14   C     C_R   0.747964 0.356461 0.282317 -0.182640
C15   C     C_R   0.259433 0.191400 0.145059 -0.195705
C16   C     C_R   0.284947 0.646167 0.304596 -0.195952
C17   C     C_1   0.430135 0.228294 0.923543 -0.009006
C18   C     C_1   0.752148 0.443137 0.851408 0.007727
C19   C     C_1   0.571226 0.771744 0.918405 -0.016806
C20   C     C_1   0.257398 0.541001 0.840726 0.004074
C21   C     C_1   0.458999 0.742602 0.159273 0.004074
C22   C     C_1   0.771706 0.569865 0.076457 -0.009006
C23   C     C_1   0.556863 0.247852 0.148592 0.007726
C24   C     C_R   0.801650 0.107763 0.401039 0.071716
C25   C     C_1   0.228256 0.428774 0.081595 -0.016806
C26   C     C_1   0.956482 0.753053 0.345485 0.003255
C27   C     C_1   0.271640 0.928680 0.421805 -0.017958
C28   C     C_1   0.042035 0.245334 0.343994 0.005686
C29   C     C_1   0.728138 0.072864 0.415552 -0.020759
C30   C     C_1   0.927136 0.271862 0.584448 -0.020760
C31   C     C_1   0.246947 0.043518 0.654515 0.003255
C32   C     C_1   0.071320 0.728360 0.578194 -0.017958
C33   C     C_1   0.754666 0.957964 0.656006 0.005686
C34   C     C_R   0.892237 0.198350 0.598961 0.071716
C35   C     C_R   0.176629 0.085171 0.637831 0.081047
C36   C     C_R   0.105636 0.801592 0.596466 0.069016
C37   C     C_R   0.824367 0.915658 0.638435 0.082780
C38   C     C_3   0.766323 0.384024 0.595582 -0.479027
C39   C     C_3   0.682971 0.788387 0.669821 -0.490432
C40   C     C_3   0.136817 0.750638 0.764937 -0.502388
C41   C     C_R   0.675009 0.414540 0.860068 0.077254
C42   C     C_3   0.318780 0.212500 0.674058 -0.487765
C43   C     C_3   0.787500 0.681220 0.325943 -0.487765
C44   C     C_3   0.615975 0.233676 0.404418 -0.479025
C45   C     C_3   0.211612 0.317029 0.330179 -0.490432
C46   C     C_3   0.249362 0.863183 0.235063 -0.502390
C47   C     C_3   0.289230 0.815244 0.174587 -0.489099
C48   C     C_3   0.252177 0.364640 0.270599 -0.507138
C49   C     C_3   0.572163 0.277144 0.343801 -0.497063
C50   C     C_3   0.748844 0.634157 0.264367 -0.498486
C51   C     C_3   0.365843 0.251155 0.735634 -0.498486
C52   C     C_R   0.604906 0.697449 0.901017 0.067015
C53   C     C_3   0.184755 0.710770 0.825413 -0.489099
C54   C     C_3   0.635360 0.747822 0.729401 -0.507138
C55   C     C_3   0.722855 0.427836 0.656199 -0.497065
C56   C     C_R   0.417107 0.674495 0.859654 -0.159724
C57   C     C_R   0.302405 0.389390 0.905153 -0.136059
C58   C     C_R   0.579881 0.328043 0.857754 -0.143888
C59   C     C_R   0.696949 0.607950 0.899861 -0.155462
C60   C     C_R   0.392050 0.303051 0.100139 -0.155462
C61   C     C_R   0.325504 0.582893 0.140346 -0.159724
C62   C     C_R   0.610610 0.697595 0.094847 -0.136059
C63   C     C_R   0.326033 0.583285 0.859909 0.079162
C64   C     C_R   0.671957 0.420119 0.142246 -0.143888
C65   C     C_R   0.890489 0.198103 0.405202 -0.133615
C66   C     C_R   0.823516 0.915660 0.361115 -0.157414
C67   C     C_R   0.110932 0.802369 0.404080 -0.138957
C68   C     C_R   0.175969 0.083574 0.360934 -0.160852
C69   C     C_R   0.916426 0.824031 0.639066 -0.160852
C70   C     C_R   0.801897 0.109511 0.594798 -0.133616
C71   C     C_R   0.084340 0.176484 0.638885 -0.157414
C72   C     C_R   0.197631 0.889068 0.595920 -0.138957
C73   C     C_R   0.318033 0.312790 0.892992 -0.003896
C74   C     C_R   0.416714 0.673967 0.140091 0.079162
C75   C     C_R   0.641970 0.355776 0.816476 -0.005081
C76   C     C_R   0.681165 0.684233 0.886313 0.001736
C77   C     C_R   0.355232 0.645179 0.819860 -0.002278
C78   C     C_R   0.354821 0.644768 0.180139 -0.002278
C79   C     C_R   0.687210 0.681967 0.107008 -0.003896
C80   C     C_R   0.644224 0.358030 0.183524 -0.005081
C81   C     C_R   0.315766 0.318835 0.113687 0.001736
C82   C     C_R   0.851746 0.852016 0.322573 -0.002826
C83   C     C_R   0.187241 0.817613 0.391774 -0.006390
C84   C     C_R   0.147266 0.146700 0.322108 -0.000796
C85   C     C_R   0.698563 0.605089 0.095504 0.061378
C86   C     C_R   0.813781 0.185864 0.389739 -0.001109
C87   C     C_R   0.814136 0.186218 0.610261 -0.001109
C88   C     C_R   0.147984 0.148254 0.677427 -0.002827
C89   C     C_R   0.182387 0.812758 0.608225 -0.006390
C90   C     C_R   0.853300 0.852734 0.677892 -0.000796
C91   C     C_R   0.731247 0.358292 0.705558 0.160322
C92   C     C_R   0.691662 0.777176 0.787557 0.163363
C93   C     C_R   0.235917 0.683859 0.761659 0.166334
C94   C     C_R   0.308538 0.220905 0.792070 0.156821
C95   C     C_R   0.779095 0.691462 0.207930 0.156822
C96   C     C_R   0.585460 0.324990 0.139932 0.077255
C97   C     C_R   0.641708 0.268753 0.294442 0.160322
C98   C     C_R   0.222823 0.308338 0.212443 0.163363
C99   C     C_R   0.316140 0.764083 0.238340 0.166335
C100  C     C_R   0.279845 0.806365 0.292540 0.160782
C101  C     C_R   0.185805 0.266279 0.265769 0.167233
C102  C     C_R   0.682403 0.226995 0.349943 0.156527
C103  C     C_R   0.814428 0.733008 0.263219 0.166168
C104  C     C_R   0.266992 0.185572 0.736781 0.166168
C105  C     C_R   0.193635 0.720154 0.707459 0.160782
C106  C     C_R   0.733720 0.814194 0.734231 0.167233
C107  C     C_R   0.302551 0.395093 0.098983 0.067015
C108  C     C_R   0.773005 0.317597 0.650057 0.156528
C109  C     C_R   0.670501 0.323254 0.744301 0.042697
C110  C     C_R   0.728245 0.736946 0.845904 0.042272
C111  C     C_R   0.315720 0.682192 0.758024 0.039639
C112  C     C_R   0.271467 0.260018 0.851078 0.045049
C113  C     C_R   0.739982 0.728532 0.148922 0.045049
C114  C     C_R   0.676746 0.329499 0.255699 0.042696
C115  C     C_R   0.263054 0.271755 0.154096 0.042272
C116  C     C_R   0.317808 0.684280 0.241976 0.039639
C117  C     C_R   0.240743 0.770107 0.351326 0.044970
C118  C     C_R   0.914829 0.823371 0.362169 0.081047
C119  C     C_R   0.184969 0.186446 0.261498 0.038379
C120  C     C_R   0.758599 0.246449 0.367124 0.031206
C121  C     C_R   0.814762 0.812857 0.260601 0.037943
C122  C     C_R   0.187143 0.185238 0.739399 0.037943
C123  C     C_R   0.229893 0.759257 0.648674 0.044970
C124  C     C_R   0.813554 0.815031 0.738502 0.038379
C125  C     C_R   0.753552 0.241401 0.632877 0.031207
C126  C     C_R   0.245143 0.689636 0.359677 -0.193028
C127  C     C_R   0.219168 0.148207 0.199158 -0.194447
C128  C     C_R   0.787985 0.315954 0.338290 -0.185715
H1    H     H_    0.822943 0.410194 0.582429 0.205366
H2    H     H_    0.316074 0.363347 0.276463 0.201681
H3    H     H_    0.559390 0.338067 0.359733 0.198847
H4    H     H_    0.684827 0.634822 0.268493 0.204800
H5    H     H_    0.365178 0.315172 0.731507 0.204800
H6    H     H_    0.153457 0.663085 0.853669 0.203609
H7    H     H_    0.636654 0.683925 0.723536 0.201682
H8    H     H_    0.661932 0.440608 0.640266 0.198848
H9    H     H_    0.730713 0.370432 0.544342 0.196517
H10   H     H_    0.712919 0.748219 0.629811 0.198670
H11   H     H_    0.078716 0.725012 0.757494 0.193198
H12   H     H_    0.651138 0.836649 0.642046 0.203972
H13   H     H_    0.289698 0.253893 0.634704 0.199306
H14   H     H_    0.746106 0.710302 0.365296 0.199306
H15   H     H_    0.629567 0.269287 0.455658 0.196516
H16   H     H_    0.251780 0.287081 0.370189 0.198669
H17   H     H_    0.274987 0.921284 0.242506 0.193198
H18   H     H_    0.248610 0.785899 0.134982 0.200051
H19   H     H_    0.226365 0.423071 0.263095 0.194324
H20   H     H_    0.522147 0.244814 0.320718 0.201574
H21   H     H_    0.775318 0.576028 0.256636 0.191145
H22   H     H_    0.423972 0.224682 0.743364 0.191145
H23   H     H_    0.137261 0.814603 0.769940 0.204799
H24   H     H_    0.214101 0.751389 0.865018 0.200051
H25   H     H_    0.576929 0.773634 0.736904 0.194324
H26   H     H_    0.755185 0.477853 0.679281 0.201574
H27   H     H_    0.450345 0.724484 0.844885 0.126336
H28   H     H_    0.245400 0.412167 0.915432 0.131546
H29   H     H_    0.541247 0.282810 0.841185 0.113791
H30   H     H_    0.753871 0.583206 0.904441 0.134362
H31   H     H_    0.416794 0.246129 0.095559 0.134362
H32   H     H_    0.275516 0.549655 0.155115 0.126336
H33   H     H_    0.587832 0.754600 0.084568 0.131546
H34   H     H_    0.350663 0.164736 0.645454 0.203397
H35   H     H_    0.717190 0.458753 0.158815 0.113791
H36   H     H_    0.913872 0.253248 0.420725 0.122934
H37   H     H_    0.772982 0.949063 0.346544 0.131587
H38   H     H_    0.088962 0.745450 0.413860 0.132781
H39   H     H_    0.226561 0.050060 0.346627 0.125842
H40   H     H_    0.949940 0.773439 0.653373 0.125843
H41   H     H_    0.746752 0.086128 0.579275 0.122934
H42   H     H_    0.050937 0.227017 0.653456 0.131587
H43   H     H_    0.254549 0.911038 0.586140 0.132781
H44   H     H_    0.214817 0.660914 0.405422 0.138383
H45   H     H_    0.835264 0.649337 0.354546 0.203398
H46   H     H_    0.217564 0.085955 0.194432 0.136190
H47   H     H_    0.845702 0.334868 0.351399 0.138104
H48   H     H_    0.783403 0.914003 0.194263 0.139041
H49   H     H_    0.085997 0.216597 0.805737 0.139040
H50   H     H_    0.339085 0.785183 0.594578 0.138382
H51   H     H_    0.914045 0.782436 0.805568 0.136190
H52   H     H_    0.665133 0.154298 0.648602 0.138105
H53   H     H_    0.594976 0.223685 0.743607 0.126396
H54   H     H_    0.837465 0.709511 0.900580 0.139802
H55   H     H_    0.416122 0.712935 0.691242 0.135220
H56   H     H_    0.589805 0.177057 0.417571 0.205366
H57   H     H_    0.161511 0.286912 0.904120 0.139293
H58   H     H_    0.713088 0.838489 0.095880 0.139293
H59   H     H_    0.776315 0.405025 0.256394 0.126396
H60   H     H_    0.290489 0.162534 0.099420 0.139803
H61   H     H_    0.287065 0.583878 0.308758 0.135220
H62   H     H_    0.163349 0.348861 0.357953 0.203972
H63   H     H_    0.185396 0.862739 0.230059 0.204800
H64   H     H_    0.336914 0.846542 0.146331 0.203609
N1    N     N_R   0.425360 0.368540 0.922560 -0.062318
N2    N     N_R   0.131460 0.925360 0.422560 -0.061417
N3    N     N_R   0.074640 0.131460 0.422560 -0.063546
N4    N     N_R   0.868540 0.074640 0.422560 -0.061744
N5    N     N_R   0.925360 0.131460 0.577440 -0.061744
N6    N     N_R   0.131460 0.074640 0.577440 -0.062932
N7    N     N_R   0.074640 0.868540 0.577440 -0.061417
N8    N     N_R   0.868540 0.925360 0.577440 -0.063546
N9    N     N_R   0.425340 0.631500 0.922560 -0.051108
N10   N     N_R   0.368500 0.425340 0.922560 -0.055215
N11   N     N_R   0.574660 0.368500 0.922560 -0.050991
N12   N     N_R   0.631460 0.425360 0.922560 -0.061965
N13   N     N_R   0.631500 0.574660 0.922560 -0.053461
N14   N     N_R   0.425340 0.368500 0.077440 -0.053461
N15   N     N_R   0.368500 0.574660 0.077440 -0.051108
N16   N     N_R   0.574660 0.631500 0.077440 -0.055215
N17   N     N_R   0.631500 0.425340 0.077440 -0.050991
N18   N     N_R   0.925340 0.131500 0.422560 -0.054828
N19   N     N_R   0.868500 0.925340 0.422560 -0.051553
N20   N     N_R   0.074660 0.868500 0.422560 -0.054663
N21   N     N_R   0.131500 0.074660 0.422560 -0.050728
N22   N     N_R   0.925340 0.868500 0.577440 -0.050728
N23   N     N_R   0.574640 0.631460 0.922560 -0.061187
N24   N     N_R   0.868500 0.074660 0.577440 -0.054828
N25   N     N_R   0.074660 0.131500 0.577440 -0.051553
N26   N     N_R   0.131500 0.925340 0.577440 -0.054663
N27   N     N_1   0.458363 0.169614 0.938893 -0.085501
N28   N     N_1   0.814686 0.464643 0.843942 -0.091738
N29   N     N_1   0.544292 0.831389 0.932444 -0.087404
N30   N     N_1   0.201508 0.509313 0.823316 -0.092262
N31   N     N_1   0.490686 0.798493 0.176683 -0.092262
N32   N     N_1   0.830385 0.541637 0.061107 -0.085501
N33   N     N_1   0.535357 0.185314 0.156058 -0.091738
N34   N     N_R   0.368540 0.574640 0.922560 -0.063345
N35   N     N_1   0.168611 0.455708 0.067556 -0.087404
N36   N     N_1   0.987761 0.695767 0.330327 -0.094549
N37   N     N_1   0.330434 0.956100 0.436562 -0.090214
N38   N     N_1   0.010061 0.302027 0.328203 -0.101373
N39   N     N_1   0.669376 0.044214 0.427520 -0.096848
N40   N     N_1   0.955785 0.330624 0.572481 -0.096848
N41   N     N_1   0.304233 0.012239 0.669673 -0.094548
N42   N     N_1   0.043900 0.669566 0.563438 -0.090214
N43   N     N_1   0.697972 0.989938 0.671795 -0.101373
N44   N     N_R   0.425360 0.631460 0.077440 -0.063345
N45   N     N_R   0.631460 0.574640 0.077440 -0.062318
N46   N     N_R   0.574640 0.368540 0.077440 -0.061965
N47   N     N_R   0.368540 0.425360 0.077440 -0.061187
N48   N     N_R   0.925360 0.868540 0.422560 -0.062932
Ni1   Ni    Ni4+2 0.500000 0.369720 0.000000 0.221017
Ni2   Ni    Ni4+2 0.630280 0.500000 0.000000 0.221017
Ni3   Ni    Ni4+2 0.500000 0.630280 0.000000 0.215676
Ni4   Ni    Ni4+2 0.369720 0.500000 0.000000 0.215676
Ni5   Ni    Ni4+2 0.000000 0.869720 0.500000 0.217342
Ni6   Ni    Ni4+2 0.130280 0.000000 0.500000 0.217342
Ni7   Ni    Ni4+2 0.000000 0.130280 0.500000 0.216910
Ni8   Ni    Ni4+2 0.869720 0.000000 0.500000 0.216910

loop_
_geom_bond_atom_site_label_1
_geom_bond_atom_site_label_2
_ccdc_geom_bond_type
C44   C49   S    
C36   C89   A    
C55   H26   S    
N11   N12   A    
C81   C107  A    
C67   C83   A    
C72   C89   A    
C6    H51   S    
C39   C106  S    
C43   H45   S    
C19   N29   T    
C36   N7    A    
C6    C124  A    
C4    H49   S    
C92   C110  A    
N8    Ni8   S    
C54   H25   S    
C14   C128  A    
C7    C8    A    
C32   N42   T    
C49   H3    S    
C13   C84   A    
N45   Ni2   S    
C32   C36   S    
N44   Ni3   S    
C70   H41   S    
C95   C113  A    
N7    Ni5   S    
C64   H35   S    
C50   H21   S    
C59   H30   S    
C41   N12   A    
C50   C95   S    
C22   C85   S    
C46   H17   S    
C104  C122  A    
C24   N4    A    
C57   C73   A    
C55   H8    S    
C48   H19   S    
C68   H39   S    
C47   C99   S    
C23   C96   S    
C105  C123  A    
C60   C81   A    
C37   N8    A    
C30   N40   T    
C47   H64   S    
C77   C111  S    
C24   C29   S    
C55   C91   S    
C3    C12   A    
C93   C105  A    
C39   H12   S    
C19   C52   S    
C27   N37   T    
C38   C55   S    
C51   H22   S    
C26   N36   T    
C57   N10   A    
C58   C75   A    
C45   H16   S    
N8    N22   A    
N16   Ni3   S    
C13   C28   S    
N47   Ni4   S    
C9    H54   S    
C108  C125  A    
C80   C96   A    
C117  C126  A    
C44   H56   S    
C82   C121  S    
C85   N45   A    
C97   C102  A    
C17   N27   T    
C74   C78   A    
C42   C51   S    
C34   C87   A    
N4    N18   A    
C59   N13   A    
C127  H46   S    
C39   H10   S    
C18   N28   T    
C15   C127  A    
C71   N25   A    
N4    Ni8   S    
C10   H55   S    
C64   C80   A    
C48   H2    S    
C2    C83   A    
N7    N26   A    
C90   C124  S    
N18   Ni7   S    
C6    C9    A    
C56   H27   S    
C70   C87   A    
C16   C116  A    
C62   N16   A    
C23   N33   T    
C95   C103  A    
N15   N44   A    
C53   H6    S    
C63   N34   A    
N14   Ni1   S    
N9    N34   A    
C57   H28   S    
C75   C109  S    
C40   H11   S    
N3    N21   A    
C30   C34   S    
C53   C93   S    
C68   C84   A    
C72   H43   S    
N25   Ni7   S    
C62   C79   A    
C65   C86   A    
N17   N46   A    
C29   N39   T    
C88   C122  S    
C79   C85   A    
C61   H32   S    
C99   C116  A    
C94   C104  A    
C7    H52   S    
C44   C102  S    
C91   C109  A    
N20   Ni5   S    
C56   N9    A    
C89   C123  S    
C14   C114  A    
N3    Ni7   S    
C21   C74   S    
N5    Ni7   S    
C52   N23   A    
C33   C37   S    
N1    N10   A    
C49   H20   S    
C42   C104  S    
C2    N2    A    
C101  C119  A    
N19   Ni8   S    
N17   Ni2   S    
C60   H31   S    
C1    N1    A    
C38   H1    S    
C54   C92   S    
C66   C82   A    
C31   N41   T    
C35   C88   A    
C3    H48   S    
N34   Ni4   S    
C99   C100  A    
N46   Ni1   S    
C61   C78   A    
N10   Ni4   S    
C81   C115  S    
C42   H13   S    
C42   H34   S    
C71   H42   S    
C4    C122  A    
C67   N20   A    
N26   Ni6   S    
C46   H63   S    
C7    C125  A    
C4    C11   A    
C68   N21   A    
N13   N23   A    
C65   N18   A    
C2    C27   S    
N5    N24   A    
C45   C101  S    
C41   C75   A    
C61   N15   A    
C37   C90   A    
C67   H38   S    
C92   C106  A    
C93   C111  A    
C58   N11   A    
C79   C113  S    
C13   N3    A    
N48   Ni5   S    
C53   H24   S    
C15   C115  A    
C64   N17   A    
C18   C41   S    
N6    N25   A    
C82   C118  A    
C74   N44   A    
C69   C90   A    
C103  C121  A    
C28   N38   T    
C87   C125  S    
C102  C120  A    
C25   C107  S    
C73   C112  S    
C12   C113  A    
C63   C77   A    
C45   C48   S    
C118  N48   A    
C9    C110  A    
C46   C100  S    
C46   C47   S    
C128  H47   S    
C21   N31   T    
C66   H37   S    
C11   C112  A    
C11   H57   S    
C96   N46   A    
C91   C108  A    
C78   C116  S    
C69   N22   A    
C26   C118  S    
C80   C114  S    
C62   H33   S    
C52   C76   A    
C58   H29   S    
C33   N43   T    
N16   N45   A    
N12   Ni2   S    
C120  C128  A    
C43   C50   S    
C10   C111  A    
N11   Ni1   S    
N24   Ni8   S    
C98   C101  A    
C72   N26   A    
C15   H60   S    
C5    C123  A    
N23   Ni3   S    
N9    Ni3   S    
C8    H53   S    
C12   H58   S    
C70   N24   A    
C83   C117  S    
C20   C63   S    
C97   C114  A    
C69   H40   S    
C1    C73   A    
C5    C10   A    
N15   Ni4   S    
C50   H4    S    
C14   H59   S    
C51   H5    S    
C34   N5    A    
C60   N14   A    
C98   C115  A    
N13   Ni2   S    
C107  N47   A    
N6    Ni6   S    
C44   H15   S    
C54   H7    S    
C65   H36   S    
C94   C112  A    
C38   H9    S    
C25   N35   T    
C84   C119  S    
N22   Ni5   S    
C31   C35   S    
C48   C98   S    
C38   C108  S    
N21   Ni6   S    
C43   C103  S    
C5    H50   S    
C47   H18   S    
C49   C97   S    
C126  H44   S    
C16   H61   S    
C56   C77   A    
C51   C94   S    
N2    N20   A    
C71   C88   A    
C39   C54   S    
N1    Ni1   S    
C22   N32   T    
C45   H62   S    
N14   N47   A    
C1    C17   S    
C40   H23   S    
C76   C110  S    
C40   C53   S    
N2    Ni6   S    
C106  C124  A    
C20   N30   T    
N19   N48   A    
C43   H14   S    
C86   C120  S    
C100  C117  A    
C66   N19   A    
C8    C109  A    
C24   C86   A    
C59   C76   A    
C16   C126  A    
C3    C121  A    
C35   N6    A    
C40   C105  S    
C119  C127  A    
