data_mof_unit_45260.cif
_audit_creation_date              2012-12-10T18:24:49-0500
_audit_creation_method            fapswitch 2.2
_symmetry_space_group_name_H-M    P1
_symmetry_Int_Tables_number       1
_space_group_crystal_system       triclinic
_cell_length_a                    14.176895
_cell_length_b                    14.892745
_cell_length_c                    16.787557
_cell_angle_alpha                 87.288647
_cell_angle_beta                  85.149453
_cell_angle_gamma                 90.565488
_cell_volume                      3527.41533567

loop_
_atom_site_label
_atom_site_type_symbol
_atom_type_description
_atom_site_fract_x
_atom_site_fract_y
_atom_site_fract_z
_atom_type_partial_charge
C1    C     C_R   0.500859 0.672850 0.498113 0.876050
C2    C     C_R   0.534067 0.901583 0.559517 0.093703
C3    C     C_R   0.517089 0.047787 0.495391 -0.022599
C4    C     C_R   0.518814 0.954069 0.490003 -0.023429
C5    C     C_R   0.531075 0.088472 0.569275 0.089616
C6    C     C_R   0.504444 0.912950 0.416085 0.087290
C7    C     C_R   0.493346 0.063170 0.353610 -0.217836
C8    C     C_R   0.558017 0.940626 0.628887 -0.222633
C9    C     C_R   0.499092 0.970664 0.345617 0.208404
C10   C     C_R   0.561380 0.033479 0.633795 0.204621
C11   C     C_R   0.194329 0.455267 0.561692 0.251955
C12   C     C_R   0.499535 0.327338 0.501110 0.886945
C13   C     C_R   0.806463 0.541452 0.437215 0.220064
C14   C     C_R   0.205750 0.550386 0.443941 0.264107
C15   C     C_R   0.793205 0.453839 0.559696 0.275496
C16   C     C_R   0.486793 0.503726 0.652904 0.901053
C17   C     C_R   0.513342 0.500950 0.346749 0.895016
C18   C     C_R   0.108112 0.534924 0.434081 -0.025469
C19   C     C_R   0.891840 0.466731 0.567282 -0.030031
C20   C     C_R   0.050285 0.498757 0.500544 -0.096437
C21   C     C_R   0.949911 0.498523 0.499685 -0.083564
C22   C     C_R   0.093075 0.464190 0.568238 -0.109018
C23   C     C_R   0.514057 0.181871 0.574162 0.135077
C24   C     C_R   0.907250 0.530526 0.431376 -0.125374
C25   C     C_R   0.066370 0.554452 0.361218 0.085922
C26   C     C_R   0.933813 0.448737 0.639911 0.081989
C27   C     C_R   0.966668 0.549634 0.359669 0.511775
C28   C     C_R   0.033636 0.440461 0.639395 0.531759
C29   C     C_R   0.480119 0.526744 0.736788 -0.223071
C30   C     C_R   0.522545 0.519292 0.260305 -0.220472
C31   C     C_R   0.560288 0.515080 0.779055 -0.285720
C32   C     C_R   0.453699 0.573080 0.227857 -0.294008
C33   C     C_R   0.561410 0.544441 0.855569 -0.232336
C34   C     C_R   0.495669 0.817130 0.418037 0.142416
C35   C     C_R   0.467982 0.609797 0.150994 -0.235908
C36   C     C_R   0.482476 0.587298 0.891666 -0.001195
C37   C     C_R   0.549091 0.589125 0.102606 0.009463
C38   C     C_R   0.401774 0.602124 0.849281 0.463003
C39   C     C_R   0.618314 0.532829 0.132952 0.480574
C40   C     C_R   0.400122 0.570847 0.771896 0.420184
C41   C     C_R   0.604778 0.496636 0.211998 0.425788
C42   C     C_2   0.477162 0.600864 0.977507 -0.203721
C43   C     C_2   0.554106 0.613713 0.016988 -0.192073
C44   C     C_3   0.239062 0.394614 0.621727 -0.704457
C45   C     C_R   0.499333 0.231840 0.503327 -0.054022
C46   C     C_3   0.763382 0.602612 0.376348 -0.696268
C47   C     C_3   0.251832 0.637399 0.411517 -0.849153
C48   C     C_3   0.742582 0.374914 0.605059 -0.840607
C49   C     C_3   0.125875 0.570907 0.282319 -0.836252
C50   C     C_3   0.875222 0.454043 0.719436 -0.864839
C51   C     C_3   0.907273 0.473820 0.260189 -0.259778
C52   C     C_3   0.051322 0.335868 0.742952 -0.331740
C53   C     C_3   0.640675 0.353888 0.255181 -0.342640
C54   C     C_3   0.317957 0.663738 0.691712 -0.184442
C55   C     C_3   0.337904 0.733307 0.892808 -0.331268
C56   C     C_R   0.504796 0.768722 0.491414 -0.059083
C57   C     C_3   0.689190 0.435275 0.047007 -0.335016
C58   C     C_3   0.498785 0.227181 0.653370 -0.919502
C59   C     C_3   0.473537 0.765238 0.345925 -0.914775
C60   C     C_3   0.506050 0.941143 0.260255 -0.907286
C61   C     C_3   0.608291 0.068906 0.703819 -0.918723
C62   C     C_R   0.492994 0.192627 0.431136 -0.305350
C63   C     C_R   0.527425 0.809736 0.559336 -0.311082
C64   C     C_R   0.499937 0.100906 0.426935 0.092175
H1    H     H_    0.622523 0.482149 0.753329 0.180959
H2    H     H_    0.576082 0.897968 0.679455 0.147786
H3    H     H_    0.310321 0.374645 0.602314 0.251890
H4    H     H_    0.242501 0.427794 0.679151 0.295109
H5    H     H_    0.198903 0.330164 0.630485 0.190000
H6    H     H_    0.697225 0.632093 0.399942 0.248300
H7    H     H_    0.811044 0.661133 0.358842 0.219222
H8    H     H_    0.749803 0.566205 0.322500 0.282440
H9    H     H_    0.205700 0.679076 0.375108 0.221611
H10   H     H_    0.265973 0.678990 0.462337 0.249027
H11   H     H_    0.318166 0.624940 0.375761 0.252395
H12   H     H_    0.389866 0.590466 0.262685 0.182813
H13   H     H_    0.791560 0.331740 0.637225 0.206535
H14   H     H_    0.686236 0.395939 0.649152 0.247457
H15   H     H_    0.714834 0.329226 0.562513 0.256626
H16   H     H_    0.118977 0.641852 0.260435 0.248338
H17   H     H_    0.201596 0.555427 0.286558 0.230832
H18   H     H_    0.102332 0.526551 0.236478 0.254103
H19   H     H_    0.857583 0.385865 0.746235 0.221890
H20   H     H_    0.808537 0.491036 0.712814 0.236904
H21   H     H_    0.914445 0.491995 0.761804 0.273105
H22   H     H_    0.852420 0.438024 0.301555 0.187803
H23   H     H_    0.623157 0.625572 0.984882 0.193615
H24   H     H_    0.971305 0.431430 0.253159 0.136216
H25   H     H_    0.878668 0.482053 0.200820 0.240980
H26   H     H_    0.026391 0.289284 0.698711 0.136004
H27   H     H_    0.997894 0.338404 0.794945 0.190103
H28   H     H_    0.115894 0.306436 0.765936 0.188579
H29   H     H_    0.702301 0.308587 0.255273 0.188399
H30   H     H_    0.595885 0.331726 0.208071 0.131206
H31   H     H_    0.600894 0.345056 0.314819 0.177484
H32   H     H_    0.388291 0.683464 0.660943 0.109738
H33   H     H_    0.292918 0.716040 0.733039 0.163298
H34   H     H_    0.408573 0.587416 0.010054 0.194197
H35   H     H_    0.267383 0.660728 0.644914 0.187839
H36   H     H_    0.380367 0.765962 0.840158 0.130162
H37   H     H_    0.373070 0.744459 0.948165 0.175946
H38   H     H_    0.268731 0.767593 0.898547 0.198877
H39   H     H_    0.620719 0.431686 0.019149 0.148724
H40   H     H_    0.695951 0.376188 0.088785 0.188005
H41   H     H_    0.746644 0.431606 0.998186 0.191133
H42   H     H_    0.459424 0.290872 0.648292 0.220987
H43   H     H_    0.453450 0.184002 0.696923 0.246341
H44   H     H_    0.567241 0.244151 0.676631 0.246950
H45   H     H_    0.414481 0.653629 0.128860 0.170927
H46   H     H_    0.466989 0.692048 0.358040 0.228254
H47   H     H_    0.404382 0.786141 0.325570 0.245218
H48   H     H_    0.531881 0.771718 0.298009 0.252447
H49   H     H_    0.511116 0.999159 0.215910 0.225160
H50   H     H_    0.572232 0.903514 0.247519 0.245939
H51   H     H_    0.442178 0.903186 0.247287 0.247361
H52   H     H_    0.649625 0.015899 0.733444 0.232900
H53   H     H_    0.660148 0.122972 0.682804 0.246275
H54   H     H_    0.555192 0.091935 0.750361 0.244521
H55   H     H_    0.622922 0.529161 0.887429 0.171191
H56   H     H_    0.482225 0.234325 0.377891 0.129686
H57   H     H_    0.538743 0.769142 0.613156 0.136008
H58   H     H_    0.485184 0.107278 0.301345 0.143782
N1    N     N_R   0.249970 0.499930 0.499970 -0.113874
N2    N     N_R   0.750030 0.500070 0.500030 -0.109287
O1    O     O_R   0.419720 0.632140 0.499990 -0.627581
O2    O     O_3   0.073614 0.424126 0.711275 -0.590106
O3    O     O_3   0.674740 0.443247 0.241305 -0.601135
O4    O     O_3   0.318240 0.578866 0.732815 -0.568259
O5    O     O_3   0.320973 0.640660 0.884444 -0.578992
O6    O     O_3   0.700766 0.515919 0.086178 -0.590995
O7    O     O_R   0.580280 0.367860 0.500010 -0.616671
O8    O     O_R   0.580270 0.632160 0.499980 -0.626093
O9    O     O_R   0.419730 0.367840 0.500020 -0.634510
O10   O     O_R   0.410240 0.500000 0.615800 -0.583216
O11   O     O_R   0.589760 0.500000 0.384200 -0.587497
O12   O     O_R   0.570790 0.500020 0.615800 -0.622560
O13   O     O_R   0.429210 0.499980 0.384200 -0.626276
O14   O     O_3   0.928810 0.559919 0.286427 -0.611213
Zn1   Zn    Zn3+2 0.392800 0.499980 0.500010 0.933882
Zn2   Zn    Zn3+2 0.607200 0.500020 0.499990 0.941520

loop_
_geom_bond_atom_site_label_1
_geom_bond_atom_site_label_2
_ccdc_geom_bond_type
C48   H13   S    
C23   C58   S    
C57   H41   S    
C8    H2    S    
C23   C45   A    
C12   O7    A    
C53   H31   S    
C41   O3    S    
C60   H50   S    
C24   C27   A    
O12   Zn2   S    
C1    O8    A    
C16   O10   A    
C59   H46   S    
C6    C9    A    
C50   H20   S    
C39   C41   A    
C3    C64   A    
O1    Zn1   S    
C34   C56   A    
O13   Zn1   S    
C55   H38   S    
C60   H51   S    
C48   H15   S    
C35   C37   A    
C1    C56   S    
C1    O1    A    
C26   C50   S    
C13   C46   S    
C49   H17   S    
C40   O4    S    
N1    Zn1   S    
C45   C62   A    
C33   C36   A    
C31   H1    S    
C58   H43   S    
C48   H14   S    
C19   C26   A    
C14   C18   A    
C62   C64   A    
O7    Zn2   S    
C53   O3    S    
C50   H21   S    
C36   C42   S    
C55   O5    S    
C55   H36   S    
C17   O11   A    
C59   H47   S    
C31   C33   A    
C30   C41   A    
C46   H8    S    
C35   H45   S    
C61   H54   S    
C38   C40   A    
C22   C28   A    
C17   C30   S    
C60   H49   S    
C18   C25   A    
C15   C48   S    
C51   H22   S    
C63   H57   S    
C28   O2    S    
C50   H19   S    
O11   Zn2   S    
C57   H39   S    
C11   N1    A    
C27   O14   S    
C15   N2    A    
C61   H53   S    
C38   O5    S    
C57   O6    S    
C11   C44   S    
C47   H9    S    
C4    C6    A    
C52   H26   S    
O10   Zn1   S    
C13   N2    A    
C52   O2    S    
C16   C29   S    
C53   H29   S    
C6    C34   A    
C13   C24   A    
C58   H42   S    
C49   H18   S    
C37   C43   S    
C15   C19   A    
C32   C35   A    
C5    C23   A    
C61   H52   S    
C59   H48   S    
C56   C63   A    
C44   H5    S    
C54   H33   S    
C46   H7    S    
C8    C10   A    
C20   C22   A    
C33   H55   S    
C12   O9    A    
C34   C59   S    
C54   H35   S    
C52   H28   S    
C10   C61   S    
O8    Zn2   S    
C42   C43   D    
C7    H58   S    
C3    C4    A    
C16   O12   A    
C2    C63   A    
C7    C9    A    
C57   H40   S    
C14   N1    A    
C19   C21   A    
C53   H30   S    
C54   H32   S    
N2    Zn2   S    
C2    C8    A    
C47   H10   S    
C12   C45   S    
C3    C5    A    
C51   H24   S    
C32   H12   S    
O9    Zn1   S    
C14   C47   S    
C58   H44   S    
C39   O6    S    
C25   C27   A    
C55   H37   S    
C11   C22   A    
C26   C28   A    
C49   H16   S    
C9    C60   S    
C43   H23   S    
C42   H34   S    
C47   H11   S    
C62   H56   S    
C29   C31   A    
C51   H25   S    
C30   C32   A    
C54   O4    S    
C2    C4    A    
C29   C40   A    
C36   C38   A    
C18   C20   A    
C25   C49   S    
C7    C64   A    
C46   H6    S    
C44   H4    S    
C51   O14   S    
C5    C10   A    
C20   C21   A    
C37   C39   A    
C21   C24   A    
C44   H3    S    
C17   O13   A    
C52   H27   S    
