data_mof_unit_9653.cif
_audit_creation_date              2012-12-11T15:27:08-0500
_audit_creation_method            fapswitch 2.2
_symmetry_space_group_name_H-M    P1
_symmetry_Int_Tables_number       1
_space_group_crystal_system       triclinic
_cell_length_a                    13.995654
_cell_length_b                    14.083315
_cell_length_c                    27.263525
_cell_angle_alpha                 90.301103
_cell_angle_beta                  89.896474
_cell_angle_gamma                 118.99692
_cell_volume                      4700.08966507

loop_
_atom_site_label
_atom_site_type_symbol
_atom_type_description
_atom_site_fract_x
_atom_site_fract_y
_atom_site_fract_z
_atom_type_partial_charge
C1    C     C_R   0.234388 0.787240 0.568089 0.531687
C2    C     C_R   0.234076 0.497424 0.573782 0.553993
C3    C     C_R   0.553032 0.765244 0.567958 0.527701
C4    C     C_3   0.648253 0.720777 0.788140 0.356143
C5    C     C_3   0.242226 0.948872 0.783026 0.362685
C6    C     C_3   0.072650 0.349096 0.789955 0.344356
C7    C     C_3   0.625408 0.710451 0.730820 -0.199362
C8    C     C_3   0.252147 0.939446 0.726458 -0.159110
C9    C     C_3   0.095859 0.400681 0.737558 -0.151799
C10   C     C_1   0.711278 0.854104 0.857628 -0.010570
C11   C     C_1   0.114556 0.873601 0.852064 -0.049407
C12   C     C_1   0.172865 0.344727 0.869464 -0.033085
C13   C     C_1   0.627255 0.809966 0.657029 -0.073777
C14   C     C_1   0.178073 0.817061 0.655699 -0.077679
C15   C     C_1   0.230540 0.475753 0.670822 -0.077163
C16   C     C_1   0.600432 0.794723 0.614998 -0.005200
C17   C     C_1   0.200158 0.805894 0.614413 -0.007931
C18   C     C_1   0.233218 0.486099 0.626582 -0.017100
C19   C     C_R   0.110525 0.227486 0.951977 0.549833
C20   C     C_R   0.777412 0.885265 0.949804 0.533445
C21   C     C_R   0.093288 0.925694 0.942075 0.549907
C22   C     C_R   0.598819 0.793852 0.382334 0.067494
C23   C     C_R   0.204617 0.794834 0.381908 0.087554
C24   C     C_R   0.185682 0.384191 0.384794 0.061998
C25   C     C_R   0.676781 0.901636 0.371309 0.033338
C26   C     C_R   0.247156 0.755911 0.344972 0.066202
C27   C     C_R   0.215024 0.302464 0.376504 0.037582
C28   C     C_R   0.707980 0.930313 0.322539 -0.105897
C29   C     C_R   0.215025 0.752943 0.296649 -0.121198
C30   C     C_R   0.187697 0.245714 0.331423 -0.129167
C31   C     C_R   0.658188 0.853147 0.285369 -0.007902
C32   C     C_R   0.146166 0.794565 0.284640 -0.019808
C33   C     C_R   0.133935 0.271603 0.294790 -0.012273
C34   C     C_R   0.233741 0.786872 0.431933 0.614694
C35   C     C_R   0.212724 0.447370 0.430857 0.606334
C36   C     C_R   0.551487 0.764077 0.431113 0.607211
C37   C     C_R   0.581054 0.746852 0.296288 -0.120754
C38   C     C_R   0.105643 0.835986 0.321131 -0.095966
C39   C     C_R   0.108070 0.354257 0.303071 -0.076378
C40   C     C_R   0.553801 0.715047 0.344610 0.216863
C41   C     C_R   0.129657 0.830530 0.370521 0.201559
C42   C     C_R   0.127324 0.406236 0.348166 0.223978
C43   C     C_R   0.784165 0.861134 0.221432 0.299778
C44   C     C_R   0.205992 0.922448 0.216485 0.277725
C45   C     C_R   0.005521 0.183415 0.224482 0.301919
C46   C     C_R   0.811789 0.869258 0.171898 -0.113304
C47   C     C_R   0.203143 0.944987 0.167284 -0.110241
C48   C     C_R   0.991884 0.153536 0.174503 -0.127056
C49   C     C_R   0.658139 0.895942 0.150446 -0.175867
C50   C     C_R   0.068332 0.756709 0.151689 -0.166612
C51   C     C_R   0.181373 0.197093 0.168509 -0.140999
C52   C     C_R   0.632755 0.893162 0.200028 -0.193194
C53   C     C_R   0.073635 0.733052 0.200879 -0.191061
C54   C     C_R   0.195133 0.221385 0.218411 -0.148635
C55   C     C_R   0.696049 0.876470 0.235229 0.044840
C56   C     C_R   0.138564 0.816952 0.233454 0.033417
C57   C     C_R   0.109473 0.219095 0.246061 0.060136
C58   C     C_R   0.745969 0.880948 0.136568 -0.014438
C59   C     C_R   0.132110 0.863245 0.134934 -0.022175
C60   C     C_R   0.080889 0.167862 0.145994 -0.030688
C61   C     C_R   0.065851 0.151798 0.092806 0.577784
C62   C     C_R   0.778741 0.885996 0.085988 0.539524
C63   C     C_R   0.115292 0.895602 0.086456 0.552395
C64   C     C_3   0.576462 0.859114 0.735810 -0.172269
C65   C     C_3   0.159986 0.737258 0.738111 -0.176616
C66   C     C_3   0.284048 0.546882 0.759450 -0.205771
C67   C     C_3   0.771716 0.901244 0.718255 -0.225446
C68   C     C_3   0.048821 0.826581 0.714722 -0.234591
C69   C     C_3   0.255240 0.365060 0.733382 -0.233396
C70   C     C_3   0.796913 0.908063 0.773585 -0.215567
C71   C     C_3   0.036809 0.850853 0.768949 -0.215719
C72   C     C_3   0.252855 0.343071 0.788706 -0.217127
C73   C     C_1   0.732552 0.865975 0.900986 -0.038896
C74   C     C_1   0.105491 0.895924 0.893622 -0.037281
C75   C     C_1   0.152110 0.296585 0.908641 -0.063810
C76   C     C_3   0.650065 0.820809 0.709320 -0.000820
C77   C     C_3   0.159438 0.829549 0.707401 -0.005572
C78   C     C_3   0.217722 0.449571 0.724012 -0.009921
C79   C     C_3   0.612852 0.890421 0.789851 0.138494
C80   C     C_3   0.127159 0.740850 0.792691 0.148986
C81   C     C_3   0.250553 0.513040 0.814680 0.142837
C82   C     C_3   0.691505 0.843382 0.803938 0.117820
C83   C     C_3   0.129361 0.852560 0.800734 0.117453
C84   C     C_3   0.185674 0.386848 0.817706 0.141723
Cr1   Cr    Cr6+3 0.164410 0.584450 0.499910 1.012871
Cr2   Cr    Cr6+3 0.415550 0.579960 0.499910 1.033277
Cr3   Cr    Cr6+3 0.420040 0.835590 0.499910 1.043627
Cr4   Cr    Cr6+3 0.156760 0.076070 0.017830 0.993035
Cr5   Cr    Cr6+3 0.923930 0.080690 0.017830 0.985210
Cr6   Cr    Cr6+3 0.919310 0.843240 0.017830 0.999102
H1    H     H_    0.489693 0.793589 0.734618 0.057469
H2    H     H_    0.243925 0.748598 0.736600 0.058299
H3    H     H_    0.270925 0.615424 0.750039 0.079146
H4    H     H_    0.538489 0.854045 0.812863 0.086567
H5    H     H_    0.188777 0.734873 0.816011 0.089049
H6    H     H_    0.198149 0.548893 0.824727 0.099026
H7    H     H_    0.884798 0.867072 0.160424 0.119127
H8    H     H_    0.252666 0.027925 0.155154 0.128608
H9    H     H_    0.913864 0.123151 0.156415 0.111741
H10   H     H_    0.770127 0.012125 0.313688 0.165101
H11   H     H_    0.250301 0.725751 0.268067 0.113879
H12   H     H_    0.209129 0.182478 0.324654 0.146010
H13   H     H_    0.562530 0.901174 0.210979 0.107556
H14   H     H_    0.024251 0.650795 0.213960 0.113495
H15   H     H_    0.274993 0.249524 0.234671 0.122799
H16   H     H_    0.609096 0.908186 0.123143 0.113849
H17   H     H_    0.012988 0.693068 0.127158 0.124028
H18   H     H_    0.250437 0.205439 0.147261 0.131393
H19   H     H_    0.542353 0.688493 0.266958 0.112984
H20   H     H_    0.058469 0.875312 0.311214 0.156718
H21   H     H_    0.073465 0.379848 0.273908 0.136475
H22   H     H_    0.579074 0.929358 0.716020 0.170025
H23   H     H_    0.104741 0.656790 0.721257 0.156267
H24   H     H_    0.371275 0.574095 0.753619 0.129178
H25   H     H_    0.824188 0.874742 0.698173 0.108643
H26   H     H_    0.043017 0.887444 0.690814 0.114080
H27   H     H_    0.200839 0.288196 0.713511 0.155234
H28   H     H_    0.791457 0.982846 0.704158 0.157229
H29   H     H_    0.980937 0.745152 0.704358 0.134981
H30   H     H_    0.339705 0.394561 0.719333 0.106343
H31   H     H_    0.834575 0.992522 0.783164 0.162211
H32   H     H_    0.955979 0.789683 0.783019 0.145467
H33   H     H_    0.337914 0.381752 0.802986 0.130592
H34   H     H_    0.856371 0.879663 0.780859 0.123928
H35   H     H_    0.040912 0.930718 0.770731 0.131526
H36   H     H_    0.219542 0.255311 0.792850 0.138971
H37   H     H_    0.539197 0.650050 0.722924 0.075812
H38   H     H_    0.333404 0.948286 0.716743 0.106177
H39   H     H_    0.072527 0.465555 0.734662 0.089153
H40   H     H_    0.672849 0.681401 0.709280 0.116152
H41   H     H_    0.247084 0.006731 0.707485 0.135505
H42   H     H_    0.044473 0.338334 0.709811 0.158680
O1    O     O_R   0.137310 0.468260 0.552980 -0.512328
O2    O     O_R   0.531740 0.669050 0.552980 -0.527961
O3    O     O_R   0.330950 0.862690 0.552980 -0.508127
O4    O     O_R   0.180530 0.983530 0.965090 -0.513535
O5    O     O_R   0.016470 0.197000 0.965090 -0.512871
O6    O     O_R   0.803000 0.819470 0.965090 -0.496259
O7    O     O_R   0.174120 0.688790 0.549730 -0.522122
O8    O     O_R   0.311210 0.485330 0.549730 -0.499040
O9    O     O_R   0.514670 0.825880 0.549730 -0.500275
O10   O     O_R   0.139940 0.470480 0.446230 -0.508741
O11   O     O_R   0.529520 0.669460 0.446230 -0.510826
O12   O     O_R   0.330540 0.860060 0.446230 -0.499245
O13   O     O_R   0.176560 0.690850 0.450770 -0.496627
O14   O     O_R   0.309150 0.485710 0.450770 -0.459716
O15   O     O_R   0.514290 0.823440 0.450770 -0.466229
O16   O     O_3   0.333333 0.666667 0.499990 -0.298800
O17   O     O_3   0.000000 0.000000 0.017910 -0.269092
O18   O     O_R   0.149710 0.171070 0.967700 -0.511421
O19   O     O_R   0.828930 0.978640 0.967700 -0.517954
O20   O     O_R   0.021360 0.850290 0.967700 -0.499182
O21   O     O_R   0.178510 0.985930 0.071830 -0.531130
O22   O     O_R   0.014070 0.192580 0.071830 -0.511445
O23   O     O_R   0.807420 0.821490 0.071830 -0.512573
O24   O     O_R   0.147830 0.173300 0.066650 -0.494310
O25   O     O_R   0.826700 0.974530 0.066650 -0.517998
O26   O     O_R   0.025470 0.852170 0.066650 -0.494961
O27   O     O_3   0.665082 0.006474 0.792061 -0.583580
C85   C     C_3   0.670441 0.052114 0.839248 -0.006336
H43   H     H_    0.726482 0.140774 0.835905 0.145927
H44   H     H_    0.708655 0.025244 0.867046 0.121701
C86   C     C_3   0.561560 0.039342 0.857545 -0.276131
H45   H     H_    0.531543 0.077827 0.830795 0.195914
H46   H     H_    0.500637 0.952633 0.861816 0.154643
C87   C     C_3   0.575459 0.094187 0.907488 -0.488807
H47   H     H_    0.608855 0.059204 0.934569 0.150066
H48   H     H_    0.495094 0.080699 0.921060 0.150057
H49   H     H_    0.631495 0.182933 0.904578 0.145512
O28   O     O_3   0.022909 0.647769 0.800269 -0.610831
C88   C     C_3   0.982595 0.629823 0.849256 -0.009652
H50   H     H_    0.908686 0.548439 0.849275 0.148718
H51   H     H_    0.951956 0.686530 0.859361 0.152871
C89   C     C_3   0.060008 0.627543 0.888799 -0.287972
H52   H     H_    0.090112 0.571370 0.877833 0.157413
H53   H     H_    0.131154 0.709212 0.894375 0.152321
C90   C     C_3   0.001305 0.589148 0.937851 -0.460024
H54   H     H_    0.967981 0.642605 0.950020 0.176955
H55   H     H_    0.059556 0.591352 0.966022 0.143924
H56   H     H_    0.933364 0.504470 0.934566 0.146968
O29   O     O_3   0.343053 0.552886 0.845798 -0.593390
C91   C     C_3   0.326283 0.589725 0.891902 0.020462
H57   H     H_    0.370356 0.568744 0.919965 0.168253
H58   H     H_    0.239187 0.549221 0.903613 0.115651
C92   C     C_3   0.374181 0.713136 0.891628 -0.282853
H59   H     H_    0.463116 0.751756 0.884124 0.176219
H60   H     H_    0.334925 0.736587 0.862281 0.131984
C93   C     C_3   0.358083 0.755308 0.940891 -0.484729
H61   H     H_    0.270105 0.716340 0.950478 0.151467
H62   H     H_    0.390505 0.844435 0.938855 0.150267
H63   H     H_    0.402592 0.738201 0.970197 0.152097
O30   O     O_3   0.727744 0.691415 0.804927 -0.557802
C94   C     C_3   0.744296 0.614283 0.777684 0.009260
H64   H     H_    0.806313 0.603762 0.798250 0.172874
H65   H     H_    0.784548 0.646176 0.741927 0.109468
C95   C     C_3   0.643752 0.501226 0.774022 -0.287345
H66   H     H_    0.607769 0.476794 0.811051 0.176849
H67   H     H_    0.582234 0.501821 0.748639 0.134666
C96   C     C_3   0.674245 0.417177 0.755133 -0.477030
H68   H     H_    0.712196 0.440441 0.718241 0.157238
H69   H     H_    0.599554 0.336703 0.752352 0.137799
H70   H     H_    0.732269 0.410231 0.780704 0.149188
O31   O     O_3   0.241930 0.048463 0.793325 -0.579244
C97   C     C_3   0.346666 0.139947 0.799893 0.020337
H71   H     H_    0.349672 0.208274 0.778800 0.119048
H72   H     H_    0.415176 0.129782 0.784912 0.151963
C98   C     C_3   0.362575 0.169741 0.854511 -0.247681
H73   H     H_    0.292970 0.179735 0.868022 0.171056
H74   H     H_    0.363099 0.102987 0.875610 0.180714
C99   C     C_3   0.468308 0.274340 0.864305 -0.490243
H75   H     H_    0.538811 0.271135 0.847235 0.144991
H76   H     H_    0.482394 0.286321 0.904464 0.154538
H77   H     H_    0.461461 0.343900 0.849547 0.146177
O32   O     O_3   0.018546 0.235815 0.781552 -0.572125
C100  C     C_3   0.972315 0.175275 0.824155 0.012104
H78   H     H_    0.883747 0.132602 0.819191 0.145719
H79   H     H_    0.978199 0.221140 0.858056 0.162681
C101  C     C_3   0.020263 0.099301 0.831417 -0.278624
H80   H     H_    0.012524 0.055738 0.796822 0.169171
H81   H     H_    0.107693 0.143434 0.840223 0.171068
C102  C     C_3   0.966081 0.022918 0.873161 -0.440448
H82   H     H_    0.901322 0.037759 0.887742 0.163035
H83   H     H_    0.024188 0.040995 0.903302 0.161994
H84   H     H_    0.935055 0.937544 0.861330 0.144569
N1    N     N_3   0.724470 0.981180 0.409514 -0.631108
H85   H     H_    0.809066 0.011822 0.408519 0.231853
H86   H     H_    0.708933 0.045040 0.401680 0.229932
N2    N     N_3   0.327173 0.723975 0.356417 -0.569699
H87   H     H_    0.299850 0.645540 0.342801 0.286930
H88   H     H_    0.398156 0.776197 0.337372 0.219300
N3    N     N_3   0.270681 0.276600 0.413960 -0.628028
H89   H     H_    0.288955 0.216908 0.401464 0.230689
H90   H     H_    0.216468 0.242568 0.443265 0.238207
O33   O     O_3   0.841478 0.839551 0.257399 -0.567939
C103  C     C_3   0.851403 0.746322 0.245868 0.002469
H91   H     H_    0.903916 0.738996 0.274218 0.142207
H92   H     H_    0.893517 0.754329 0.210538 0.140207
C104  C     C_3   0.741670 0.641011 0.247060 -0.278407
H93   H     H_    0.707359 0.629741 0.284584 0.161570
H94   H     H_    0.683210 0.645153 0.220820 0.156477
C105  C     C_3   0.756240 0.543582 0.233431 -0.494652
H95   H     H_    0.789571 0.552910 0.195689 0.148624
H96   H     H_    0.676133 0.468225 0.234728 0.147382
H97   H     H_    0.812973 0.536025 0.259488 0.145653
O34   O     O_3   0.269794 0.004850 0.248895 -0.575814
C106  C     C_3   0.377927 0.021729 0.247922 0.000088
H98   H     H_    0.425351 0.084350 0.219954 0.129015
H99   H     H_    0.382714 0.946487 0.239124 0.116844
C107  C     C_3   0.429296 0.061812 0.298464 -0.243627
H100  H     H_    0.423815 0.135389 0.308738 0.168435
H101  H     H_    0.383387 0.998021 0.326137 0.184847
C108  C     C_3   0.548762 0.088759 0.299160 -0.493417
H102  H     H_    0.556204 0.016033 0.289222 0.146922
H103  H     H_    0.583185 0.116164 0.336466 0.151373
H104  H     H_    0.596347 0.154990 0.272866 0.131737
O35   O     O_3   0.922294 0.179219 0.254429 -0.593461
C109  C     C_3   0.834777 0.182306 0.229699 -0.018666
H105  H     H_    0.775518 0.175186 0.258444 0.149156
H106  H     H_    0.789152 0.110425 0.205769 0.140922
C110  C     C_3   0.869860 0.289493 0.202048 -0.281888
H107  H     H_    0.922604 0.359877 0.225629 0.153442
H108  H     H_    0.917411 0.293795 0.168770 0.162928
C111  C     C_3   0.770826 0.299903 0.186263 -0.484673
H109  H     H_    0.715473 0.229451 0.163078 0.146965
H110  H     H_    0.798281 0.375410 0.164724 0.146716
H111  H     H_    0.725526 0.304192 0.218915 0.139423
O36   O     O_3   0.469611 0.611500 0.354133 -0.566582
C112  C     C_3   0.508839 0.535830 0.353683 0.039418
H112  H     H_    0.473980 0.482966 0.386252 0.198686
H113  H     H_    0.599479 0.573211 0.357248 0.097065
C113  C     C_3   0.468994 0.464639 0.307536 -0.271405
H114  H     H_    0.379844 0.432866 0.303009 0.186442
H115  H     H_    0.510053 0.513265 0.274640 0.141086
C114  C     C_3   0.492463 0.369779 0.310375 -0.493211
H116  H     H_    0.581160 0.400043 0.315814 0.144036
H117  H     H_    0.466637 0.322240 0.275700 0.141494
H118  H     H_    0.446771 0.315666 0.341271 0.160201
O37   O     O_3   0.088379 0.868839 0.407093 -0.575420
C115  C     C_3   0.975337 0.796493 0.412040 0.003709
H119  H     H_    0.961267 0.714149 0.422356 0.124889
H120  H     H_    0.930760 0.790568 0.377328 0.136037
C116  C     C_3   0.928964 0.838278 0.452294 -0.250812
H121  H     H_    0.972839 0.846022 0.487299 0.173952
H122  H     H_    0.941391 0.919791 0.442013 0.178560
C117  C     C_3   0.807168 0.761644 0.459722 -0.460656
H123  H     H_    0.762320 0.750584 0.424768 0.154015
H124  H     H_    0.774553 0.796239 0.487586 0.165965
H125  H     H_    0.793349 0.681311 0.472667 0.142874
O38   O     O_3   0.100420 0.488372 0.353764 -0.571542
C118  C     C_3   0.991096 0.445093 0.370398 0.043406
H126  H     H_    0.986911 0.509402 0.392596 0.164977
H127  H     H_    0.964869 0.373498 0.394962 0.134611
C119  C     C_3   0.911155 0.415001 0.327489 -0.298660
H128  H     H_    0.943465 0.481473 0.300065 0.165606
H129  H     H_    0.901713 0.339694 0.310142 0.181155
C120  C     C_3   0.798596 0.393611 0.344579 -0.500983
H130  H     H_    0.766207 0.329317 0.373004 0.148868
H131  H     H_    0.741378 0.365657 0.312971 0.143103
H132  H     H_    0.803176 0.469069 0.359769 0.140237
N4    N     N_3   0.547543 0.654621 0.814864 -0.554024
H133  H     H_    0.512432 0.574135 0.803177 0.243365
H134  H     H_    0.493427 0.682406 0.805722 0.220379
N5    N     N_3   0.333300 0.943732 0.808214 -0.668992
H135  H     H_    0.317300 0.928215 0.845604 0.217473
H136  H     H_    0.347603 0.883130 0.793527 0.187640
N6    N     N_3   0.000273 0.380595 0.816856 -0.668071
H137  H     H_    0.921782 0.338420 0.801761 0.238335
H138  H     H_    0.024203 0.462187 0.811510 0.228183

loop_
_geom_bond_atom_site_label_1
_geom_bond_atom_site_label_2
_ccdc_geom_bond_type
C58   C62   S    
C65   H2    S    
O31   C97   S    
C52   H13   S    
C2    C18   S    
C118  C119  S    
C24   C42   A    
Cr4   O17   S    
C4    O30   S    
C71   H32   S    
C86   H45   S    
C3    O9    A    
Cr1   O16   S    
C81   O29   S    
C88   H50   S    
C54   C57   A    
C61   O22   A    
C6    C9    S    
N2    H88   S    
C24   C35   S    
C97   H72   S    
C106  C107  S    
C111  H109  S    
N5    H136  S    
C7    H37   S    
O29   C91   S    
C6    N6    S    
C25   C28   A    
C88   H51   S    
C104  C105  S    
C34   O12   A    
C116  H121  S    
C33   C39   A    
C47   H8    S    
Cr3   O15   S    
C97   C98   S    
C115  C116  S    
C93   H63   S    
C85   H43   S    
C50   C59   A    
Cr4   O24   S    
C86   H46   S    
C36   O11   A    
Cr1   O13   S    
C105  H95   S    
C102  H84   S    
C100  H79   S    
C68   H29   S    
C79   O27   S    
C5    C83   S    
C10   C73   T    
C14   C77   S    
C15   C78   S    
O28   C88   S    
C63   O26   A    
C53   H14   S    
C113  H114  S    
C114  H118  S    
C104  H94   S    
C45   C57   A    
C19   O18   A    
C62   O23   A    
C12   C84   S    
C93   H62   S    
C109  H105  S    
C23   C26   A    
C20   O6    A    
C67   H25   S    
C89   H52   S    
C7    H40   S    
C41   O37   S    
C3    O2    A    
N1    H86   S    
C91   H57   S    
C66   H3    S    
C8    H38   S    
C120  H132  S    
C92   H59   S    
O27   C85   S    
C26   N2    S    
C51   H18   S    
C94   H65   S    
C22   C25   A    
C98   C99   S    
N6    H138  S    
C103  H91   S    
C24   C27   A    
C90   H54   S    
C26   C29   A    
C114  H116  S    
C32   C38   A    
Cr3   O12   S    
N4    H134  S    
C8    C77   S    
Cr1   O7    S    
C21   O4    A    
C37   H19   S    
C1    O7    A    
C44   C47   A    
Cr2   O8    S    
C28   H10   S    
C120  H131  S    
C42   O38   S    
C38   C41   A    
C96   H68   S    
C30   C33   A    
C65   C80   S    
O34   C106  S    
C46   C58   A    
C27   C30   A    
C87   H48   S    
C97   H71   S    
C103  H92   S    
C14   C17   T    
C119  H128  S    
C69   C78   S    
C35   O10   A    
Cr4   O18   S    
C80   C83   S    
C66   C78   S    
Cr2   O14   S    
N2    H87   S    
Cr6   O6    S    
Cr2   O2    S    
Cr2   O11   S    
C48   C60   A    
C39   C42   A    
C71   C83   S    
C21   O20   A    
C64   C76   S    
C15   C18   T    
C88   C89   S    
C106  H99   S    
Cr5   O17   S    
C107  H101  S    
C50   C53   A    
C6    C84   S    
Cr3   O16   S    
C92   H60   S    
C98   H73   S    
C2    O1    A    
C85   C86   S    
Cr3   O3    S    
N1    H85   S    
C86   C87   S    
C65   C77   S    
C63   O21   A    
C79   H4    S    
Cr6   O20   S    
C104  H93   S    
C100  C101  S    
C81   H6    S    
O32   C100  S    
C110  H107  S    
C92   C93   S    
C45   C48   A    
C64   C79   S    
C4    C7    S    
C39   H21   S    
C47   C59   A    
C21   C74   S    
C11   C74   T    
C49   C58   A    
C31   C37   A    
C72   H36   S    
C60   C61   S    
C105  H96   S    
C35   O14   A    
C85   H44   S    
Cr6   O26   S    
C69   C72   S    
C100  H78   S    
C93   H61   S    
C117  H123  S    
C103  C104  S    
C96   H70   S    
C102  H82   S    
C44   C56   A    
C36   O15   A    
C101  H81   S    
N5    H135  S    
C6    O32   S    
C112  C113  S    
C110  C111  S    
C19   O5    A    
C23   C34   S    
C22   C40   A    
O35   C109  S    
C30   H12   S    
C8    H41   S    
N6    H137  S    
C107  H100  S    
C62   O25   A    
C29   H11   S    
C119  C120  S    
N3    H90   S    
Cr3   O9    S    
C80   H5    S    
Cr5   O25   S    
C5    N5    S    
C89   C90   S    
Cr4   O4    S    
C72   C84   S    
C44   O34   S    
C116  C117  S    
C108  H104  S    
C110  H108  S    
C120  H130  S    
C46   H7    S    
C68   H26   S    
C67   H28   S    
C99   H75   S    
C99   H76   S    
C80   O28   S    
C72   H33   S    
C50   H17   S    
C111  H111  S    
C59   C63   S    
C12   C75   T    
C5    C8    S    
C38   H20   S    
O33   C103  S    
C96   H69   S    
C61   O24   A    
C113  H115  S    
C81   C84   S    
N4    H133  S    
C101  C102  S    
C108  H103  S    
C105  H97   S    
C9    H42   S    
C27   N3    S    
C68   C77   S    
C111  H110  S    
C48   H9    S    
C106  H98   S    
C107  C108  S    
C33   C57   S    
C66   H24   S    
C54   H15   S    
C95   C96   S    
O37   C115  S    
C65   H23   S    
C117  H125  S    
C28   C31   A    
C71   H35   S    
C49   C52   A    
C112  H113  S    
C95   H66   S    
C43   O33   S    
Cr2   O16   S    
Cr1   O10   S    
C5    O31   S    
C79   C82   S    
C109  C110  S    
O36   C112  S    
C52   C55   A    
C90   H56   S    
C49   H16   S    
C43   C55   A    
C9    H39   S    
C37   C40   A    
C99   H77   S    
C22   C36   S    
C69   H30   S    
C1    C17   S    
C23   C41   A    
C20   O19   A    
C51   C54   A    
C11   C83   S    
O30   C94   S    
C67   C70   S    
C51   C60   A    
C19   C75   S    
C13   C16   T    
C115  H119  S    
C2    O8    A    
C29   C32   A    
C102  H83   S    
C1    O3    A    
Cr4   O21   S    
C94   C95   S    
Cr6   O17   S    
C69   H27   S    
C70   H31   S    
C101  H80   S    
C87   H47   S    
C90   H55   S    
C68   C71   S    
C25   N1    S    
C34   O13   A    
C89   H53   S    
C10   C82   S    
C20   C73   S    
C13   C76   S    
C118  H127  S    
C9    C78   S    
C115  H120  S    
Cr5   O5    S    
C32   C56   S    
C70   C82   S    
C43   C46   A    
C91   H58   S    
C95   H67   S    
C64   H22   S    
C117  H124  S    
C45   O35   S    
C116  H122  S    
C40   O36   S    
C70   H34   S    
Cr5   O19   S    
C4    C82   S    
C112  H112  S    
C87   H49   S    
C119  H129  S    
C94   H64   S    
C113  C114  S    
C53   C56   A    
N3    H89   S    
C98   H74   S    
O38   C118  S    
C118  H126  S    
C67   C76   S    
C4    N4    S    
C64   H1    S    
C31   C55   S    
Cr6   O23   S    
C109  H106  S    
C91   C92   S    
Cr5   O22   S    
C3    C16   S    
Cr1   O1    S    
C108  H102  S    
C66   C81   S    
C114  H117  S    
C7    C76   S    
