data_mof_unit_13624.cif
_audit_creation_date              2012-10-26T20:36:06-0400
_audit_creation_method            fapswitch 2.2
_symmetry_space_group_name_H-M    P1
_symmetry_Int_Tables_number       1
_space_group_crystal_system       triclinic
_cell_length_a                    10.879408
_cell_length_b                    15.852217
_cell_length_c                    17.136002
_cell_angle_alpha                 96.625709
_cell_angle_beta                  92.706436
_cell_angle_gamma                 90.072534
_cell_volume                      2932.24192236

loop_
_atom_site_label
_atom_site_type_symbol
_atom_type_description
_atom_site_fract_x
_atom_site_fract_y
_atom_site_fract_z
_atom_type_partial_charge
C1    C     C_R   0.497991 0.489568 0.348911 0.624551
C2    C     C_R   0.459561 0.526817 0.902118 0.237271
C3    C     C_R   0.573752 0.424142 0.138215 0.108086
C4    C     C_R   0.415387 0.592780 0.860896 0.107895
C5    C     C_R   0.571794 0.425845 0.220196 0.078229
C6    C     C_R   0.426794 0.587964 0.778483 0.044059
C7    C     C_R   0.453726 0.749253 0.451454 -0.020446
C8    C     C_R   0.513130 0.248354 0.555847 -0.008164
C9    C     C_R   0.459501 0.837704 0.448034 0.065657
C10   C     C_R   0.500869 0.159557 0.555889 0.066728
C11   C     C_R   0.529026 0.890180 0.506735 0.231663
C12   C     C_R   0.497308 0.510722 0.651578 0.604563
C13   C     C_R   0.464105 0.108358 0.486049 0.230174
C14   C     C_R   0.596340 0.850750 0.564429 0.254247
C15   C     C_R   0.429112 0.148693 0.420004 0.252923
C16   C     C_R   0.264390 0.502979 0.511321 0.605775
C17   C     C_R   0.739007 0.498238 0.500976 0.577658
C18   C     C_R   0.585403 0.762024 0.566387 0.217879
C19   C     C_R   0.434688 0.238474 0.424281 0.215058
C20   C     C_R   0.135665 0.380472 0.601681 0.072095
C21   C     C_R   0.893193 0.618042 0.427566 0.074240
C22   C     C_R   0.074635 0.308193 0.618680 -0.124078
C23   C     C_R   0.496211 0.484438 0.263108 0.060670
C24   C     C_R   0.945167 0.698778 0.427090 -0.098798
C25   C     C_R   0.947633 0.304680 0.613205 0.281452
C26   C     C_R   0.044709 0.725589 0.478525 0.256303
C27   C     C_R   0.881956 0.376054 0.593732 0.119315
C28   C     C_R   0.106384 0.664972 0.520614 0.102660
C29   C     C_R   0.940902 0.437687 0.553446 -0.058348
C30   C     C_R   0.063298 0.579562 0.510940 -0.030698
C31   C     C_R   0.071908 0.441390 0.560189 0.015533
C32   C     C_R   0.942594 0.563223 0.480817 0.012306
C33   C     C_R   0.875685 0.496328 0.508527 -0.000025
C34   C     C_R   0.484742 0.516937 0.737873 0.071824
C35   C     C_R   0.133441 0.510040 0.532175 0.026579
C36   C     C_R   0.422002 0.540608 0.223963 0.024334
C37   C     C_R   0.524143 0.449661 0.780030 0.016372
C38   C     C_R   0.424823 0.538781 0.142535 -0.097726
C39   C     C_R   0.511186 0.455001 0.860583 -0.117468
C40   C     C_R   0.501187 0.481219 0.099227 0.191048
Cu1   Cu    Cu3+1 0.493970 0.415220 0.496180 0.966066
Cu2   Cu    Cu3+1 0.506030 0.584780 0.503820 0.961163
H1    H     H_    0.126172 0.258852 0.644100 0.146698
H2    H     H_    0.454397 0.150684 0.667216 0.218443
H3    H     H_    0.306316 0.855775 0.381016 0.296963
H4    H     H_    0.436481 0.843931 0.331470 0.234784
H5    H     H_    0.846141 0.896804 0.716402 0.382626
H6    H     H_    0.316014 0.097848 0.212306 0.377010
H7    H     H_    0.580421 0.713426 0.670694 0.261327
H8    H     H_    0.696917 0.673749 0.612314 0.269881
H9    H     H_    0.439152 0.289113 0.320428 0.281442
H10   H     H_    0.320398 0.326905 0.380689 0.270143
H11   H     H_    0.309167 0.341819 0.621981 0.247311
H12   H     H_    0.902608 0.742323 0.389819 0.163207
H13   H     H_    0.250770 0.404194 0.697291 0.225910
H14   H     H_    0.831843 0.588383 0.314787 0.224396
H15   H     H_    0.727239 0.636121 0.374009 0.258318
H16   H     H_    0.701928 0.361078 0.609582 0.299439
H17   H     H_    0.756729 0.461478 0.643211 0.224623
H18   H     H_    0.272048 0.717740 0.558908 0.291362
H19   H     H_    0.157955 0.736504 0.622775 0.271791
H20   H     H_    0.665120 0.367770 0.769618 0.288158
H21   H     H_    0.524536 0.322798 0.751299 0.230767
H22   H     H_    0.251737 0.586219 0.244541 0.238583
H23   H     H_    0.542776 0.401862 0.890484 0.153257
H24   H     H_    0.365060 0.660301 0.256157 0.232063
H25   H     H_    0.713224 0.398542 0.065218 0.252256
H26   H     H_    0.596734 0.326504 0.053241 0.256907
H27   H     H_    0.408321 0.719215 0.895854 0.245602
H28   H     H_    0.268958 0.670019 0.880913 0.237041
H29   H     H_    0.741263 0.382742 0.248541 0.261547
H30   H     H_    0.628783 0.307724 0.237891 0.268750
H31   H     H_    0.279776 0.654531 0.742745 0.247059
H32   H     H_    0.412597 0.711482 0.758539 0.238213
H33   H     H_    0.366859 0.582428 0.113598 0.163397
H34   H     H_    0.538282 0.285233 0.610508 0.163780
H35   H     H_    0.399644 0.709943 0.406749 0.162629
H36   H     H_    0.001108 0.945433 0.556743 0.392568
H37   H     H_    0.002746 0.114891 0.607472 0.352690
H38   H     H_    0.605426 0.137574 0.652154 0.326413
N1    N     N_2   0.507803 0.477705 0.016532 -0.260415
N2    N     N_3   0.375036 0.275733 0.360777 -0.521856
N3    N     N_3   0.256814 0.396218 0.636158 -0.577967
N4    N     N_3   0.796442 0.590286 0.370624 -0.592513
N5    N     N_3   0.775028 0.396455 0.637104 -0.571238
N6    N     N_3   0.196764 0.690813 0.582467 -0.568936
N7    N     N_3   0.578663 0.374956 0.741969 -0.617330
N8    N     N_3   0.341867 0.598758 0.266807 -0.628528
N9    N     N_3   0.651662 0.364611 0.095012 -0.612891
N10   N     N_3   0.359004 0.664453 0.903697 -0.593271
N11   N     N_3   0.650024 0.370418 0.260481 -0.585017
N12   N     N_2   0.449940 0.533835 0.985169 -0.193745
N13   N     N_3   0.374601 0.652798 0.735454 -0.600288
N14   N     N_R   0.515100 0.712130 0.509560 -0.279545
N15   N     N_R   0.484900 0.287870 0.490440 -0.267325
N16   N     N_2   0.540143 0.980855 0.508232 -0.098500
N17   N     N_2   0.447984 0.018057 0.482931 -0.090303
N18   N     N_3   0.517210 0.122491 0.628002 -0.514629
N19   N     N_3   0.399371 0.872566 0.383097 -0.486740
N20   N     N_3   0.645451 0.726771 0.631085 -0.516899
O1    O     O_R   0.494360 0.420530 0.382500 -0.501936
O2    O     O_2   0.063595 0.870854 0.414012 -0.263170
O3    O     O_3   0.981482 0.884118 0.554241 -0.446784
O4    O     O_2   0.798566 0.238112 0.710404 -0.261123
O5    O     O_2   0.786727 0.179635 0.571644 -0.277479
O6    O     O_3   0.973550 0.138736 0.659282 -0.472137
O7    O     O_2   0.748190 0.985815 0.603153 -0.196182
O8    O     O_2   0.607682 0.949591 0.701837 -0.252024
O9    O     O_3   0.800831 0.856205 0.676969 -0.467154
O10   O     O_2   0.474629 0.021652 0.308997 -0.248332
O11   O     O_2   0.262298 0.037638 0.349355 -0.217799
O12   O     O_R   0.505640 0.579470 0.617500 -0.498829
O13   O     O_3   0.343652 0.140673 0.256371 -0.501566
O14   O     O_R   0.504550 0.563720 0.388950 -0.486660
O15   O     O_R   0.495450 0.436280 0.611050 -0.501322
O16   O     O_R   0.314560 0.428400 0.496770 -0.502054
O17   O     O_R   0.685440 0.571600 0.503230 -0.503748
O18   O     O_R   0.324750 0.571590 0.503220 -0.486040
O19   O     O_R   0.675250 0.428410 0.496780 -0.490585
O20   O     O_2   0.209294 0.853955 0.524407 -0.312789
S1    S     S_3+6 0.080409 0.835684 0.491596 0.003592
S2    S     S_3+6 0.872054 0.214218 0.639267 0.035069
S3    S     S_3+6 0.689035 0.913820 0.637813 0.087551
S4    S     S_3+6 0.376175 0.084747 0.332345 0.063455

loop_
_geom_bond_atom_site_label_1
_geom_bond_atom_site_label_2
_ccdc_geom_bond_type
C11   N16   S    
C30   C32   A    
H4    N19   S    
C27   C29   A    
C34   C37   A    
Cu1   Cu2   S    
C14   C18   A    
H31   N13   S    
C36   N8    S    
C15   C19   A    
C17   C33   S    
C30   C35   A    
C24   C26   A    
C16   C35   S    
H24   N8    S    
C11   C14   A    
O4    S2    D    
C24   H12   S    
C29   C33   A    
H25   N9    S    
C27   N5    S    
C10   N18   S    
Cu2   O12   S    
O10   S4    D    
N1    N12   D    
H2    N18   S    
C2    C39   A    
Cu2   O14   S    
C22   C25   A    
C26   S1    S    
O7    S3    D    
O2    S1    D    
C25   S2    S    
C17   O17   A    
C7    H35   S    
C12   O15   A    
H21   N7    S    
O11   S4    D    
C9    N19   S    
C39   H23   S    
H32   N13   S    
H28   N10   S    
C8    N15   A    
C18   N20   S    
Cu1   O15   S    
C16   O16   A    
H14   N4    S    
C4    N10   S    
C38   H33   S    
C2    N12   S    
C21   C32   A    
C15   S4    S    
C4    C6    A    
H3    N19   S    
H30   N11   S    
H18   N6    S    
O9    S3    S    
H5    O9    S    
C6    C34   A    
H37   O6    S    
C2    C4    A    
H17   N5    S    
C16   O18   A    
C22   H1    S    
C5    C23   A    
C21   N4    S    
C6    N13   S    
N16   N17   D    
O6    S2    S    
H26   N9    S    
H15   N4    S    
Cu1   O19   S    
H10   N2    S    
C9    C11   A    
H9    N2    S    
C5    N11   S    
C8    C10   A    
C20   C22   A    
C3    C40   A    
C1    C23   S    
C13   C15   A    
C8    H34   S    
C28   N6    S    
C18   N14   A    
C31   C35   A    
C21   C24   A    
C1    O14   A    
O8    S3    D    
C12   C34   S    
H27   N10   S    
C19   N2    S    
H16   N5    S    
C1    O1    A    
C12   O12   A    
C19   N15   A    
O20   S1    D    
C7    C9    A    
C7    N14   A    
C14   S3    S    
H38   N18   S    
H36   O3    S    
Cu2   N14   S    
H8    N20   S    
C40   N1    S    
C37   N7    S    
Cu2   O18   S    
C3    C5    A    
C10   C13   A    
Cu2   O17   S    
C25   C27   A    
H20   N7    S    
C26   C28   A    
H11   N3    S    
C3    N9    S    
C32   C33   A    
C36   C38   A    
C29   C31   A    
H7    N20   S    
C38   C40   A    
Cu1   N15   S    
O13   S4    S    
C28   C30   A    
Cu1   O1    S    
O5    S2    D    
C13   N17   S    
H19   N6    S    
C17   O19   A    
H29   N11   S    
C37   C39   A    
C23   C36   A    
C20   N3    S    
Cu1   O16   S    
H13   N3    S    
H22   N8    S    
H6    O13   S    
C20   C31   A    
O3    S1    S    
