data_mof_unit_17013.cif
_audit_creation_date              2012-12-11T15:10:39-0500
_audit_creation_method            fapswitch 2.2
_symmetry_space_group_name_H-M    P1
_symmetry_Int_Tables_number       1
_space_group_crystal_system       triclinic
_cell_length_a                    21.085722
_cell_length_b                    7.234441
_cell_length_c                    18.524839
_cell_angle_alpha                 89.999275
_cell_angle_beta                  92.792438
_cell_angle_gamma                 89.999787
_cell_volume                      2822.48666995

loop_
_atom_site_label
_atom_site_type_symbol
_atom_type_description
_atom_site_fract_x
_atom_site_fract_y
_atom_site_fract_z
_atom_type_partial_charge
O1    O     O_R   0.448880 0.506250 0.415280 -0.530681
O2    O     O_R   0.551120 0.006250 0.584720 -0.530683
O3    O     O_R   0.434830 0.174000 0.557310 -0.513531
O4    O     O_R   0.565170 0.674000 0.442690 -0.513532
C1    C     C_R   0.418543 0.344146 0.581590 0.764446
C2    C     C_R   0.581457 0.844147 0.418410 0.764446
O5    O     O_R   0.441680 0.176440 0.414130 -0.534659
O6    O     O_R   0.558320 0.676440 0.585870 -0.534658
O7    O     O_R   0.558020 0.007570 0.440520 -0.514822
O8    O     O_R   0.441980 0.507570 0.559480 -0.514822
C3    C     C_R   0.426401 0.345104 0.389892 0.683506
C4    C     C_R   0.573599 0.845102 0.610109 0.683506
O9    O     O_3   0.538160 0.339670 0.508820 -0.363914
O10   O     O_3   0.461840 0.839670 0.491180 -0.363915
V1    V     V_3+5 0.492920 0.064260 0.498360 1.495241
V2    V     V_3+5 0.507080 0.564260 0.501640 1.495242
C5    C     C_R   0.881524 0.990980 0.692817 -0.149574
C6    C     C_R   0.118470 0.490896 0.307186 -0.149571
H1    H     H_    0.967604 0.016381 0.757867 0.109762
H2    H     H_    0.032390 0.516295 0.242136 0.109761
H3    H     H_    0.808362 0.978859 0.575883 0.140893
H4    H     H_    0.191631 0.478755 0.424120 0.140888
H5    H     H_    0.905309 0.022257 0.643690 0.118774
H6    H     H_    0.094682 0.522138 0.356314 0.118774
C7    C     C_R   0.888480 0.943969 0.821663 -0.031186
C8    C     C_R   0.111519 0.443956 0.178336 -0.031182
C9    C     C_R   0.584422 0.821039 0.741420 -0.152543
C10   C     C_R   0.415581 0.321088 0.258579 -0.152546
C11   C     C_R   0.617513 0.823052 0.807936 -0.120113
C12   C     C_R   0.382490 0.323117 0.192063 -0.120113
C13   C     C_R   0.682594 0.854336 0.812676 -0.146160
C14   C     C_R   0.317408 0.354380 0.187323 -0.146160
C15   C     C_R   0.717186 0.883913 0.750249 0.085329
C16   C     C_R   0.282815 0.383922 0.249751 0.085328
C17   C     C_R   0.683103 0.882073 0.680754 -0.010609
C18   C     C_R   0.316896 0.382065 0.319246 -0.010601
C19   C     C_R   0.784693 0.915336 0.755065 0.074121
C20   C     C_R   0.215306 0.415325 0.244935 0.074122
C21   C     C_R   0.816119 0.954866 0.690974 0.118497
C22   C     C_R   0.183877 0.454809 0.309028 0.118501
C23   C     C_R   0.782907 0.954185 0.624582 -0.217168
C24   C     C_R   0.217088 0.454111 0.375421 -0.217172
C25   C     C_R   0.718511 0.912168 0.618424 -0.108151
C26   C     C_R   0.281487 0.412124 0.381577 -0.108152
C27   C     C_R   0.822724 0.908720 0.820877 -0.215483
C28   C     C_R   0.177277 0.408733 0.179122 -0.215483
C29   C     C_R   0.917211 0.986700 0.757633 -0.161119
C30   C     C_R   0.082784 0.486637 0.242369 -0.161123
C31   C     C_R   0.615363 0.851014 0.677377 -0.092617
C32   C     C_R   0.384638 0.351026 0.322623 -0.092614
H7    H     H_    0.803110 0.877315 0.872087 0.093501
H8    H     H_    0.196893 0.377367 0.127910 0.093497
H9    H     H_    0.533646 0.796515 0.739931 0.098703
H10   H     H_    0.466357 0.296582 0.260068 0.098702
H11   H     H_    0.704396 0.856188 0.866442 0.104686
H12   H     H_    0.295607 0.356244 0.133557 0.104687
H13   H     H_    0.592270 0.800657 0.856700 0.115822
H14   H     H_    0.407735 0.300750 0.143298 0.115822
C33   C     C_1   0.864060 0.938941 0.131511 -0.207253
C34   C     C_1   0.135940 0.438943 0.868489 -0.207253
C35   C     C_1   0.820831 0.924705 0.174786 -0.000733
C36   C     C_1   0.179169 0.424706 0.825214 -0.000733
C37   C     C_1   0.769791 0.905284 0.226272 0.002596
C38   C     C_1   0.230209 0.405284 0.773728 0.002596
C39   C     C_1   0.726837 0.888397 0.269759 0.001914
C40   C     C_1   0.273163 0.388396 0.730242 0.001914
C41   C     C_1   0.675942 0.869061 0.321420 0.017760
C42   C     C_1   0.324058 0.369059 0.678581 0.017758
C43   C     C_1   0.633074 0.855035 0.365150 -0.107764
C44   C     C_1   0.366926 0.355033 0.634850 -0.107762
O11   O     O_R   0.058070 0.289240 0.940580 -0.520654
O12   O     O_R   0.941930 0.789240 0.059420 -0.520654
O13   O     O_R   0.058330 0.616740 0.085880 -0.534347
O14   O     O_R   0.941670 0.116740 0.914120 -0.534349
C45   C     C_R   0.072284 0.448791 0.110659 0.684127
C46   C     C_R   0.927716 0.948794 0.889341 0.684127
O15   O     O_R   0.065180 0.619040 0.942700 -0.522856
O16   O     O_R   0.934820 0.119040 0.057300 -0.522855
O17   O     O_R   0.948870 0.787780 0.915270 -0.531743
O18   O     O_R   0.051130 0.287780 0.084730 -0.531744
C47   C     C_R   0.083318 0.450348 0.920352 0.705253
C48   C     C_R   0.916682 0.950347 0.079648 0.705255
O19   O     O_3   0.961870 0.453310 0.991210 -0.366786
O20   O     O_3   0.038130 0.953310 0.008790 -0.366786
V3    V     V_3+5 0.007070 0.728770 0.001630 1.418897
V4    V     V_3+5 0.992930 0.228770 0.998370 1.418898
C49   C     C_2   0.693355 0.885680 0.544147 0.740080
O21   O     O_2   0.686460 0.019664 0.504535 -0.536653
O22   O     O_R   0.683625 0.707620 0.516605 -0.650768
H15   H     H_    0.693130 0.607665 0.553927 0.267981
C50   C     C_2   0.306645 0.385644 0.455854 0.740075
O23   O     O_2   0.313541 0.519632 0.495461 -0.536657
O24   O     O_R   0.316374 0.207587 0.483400 -0.650763
H16   H     H_    0.306868 0.107628 0.446082 0.267983

loop_
_geom_bond_atom_site_label_1
_geom_bond_atom_site_label_2
_ccdc_geom_bond_type
C2    C43   S    
C40   C42   S    
C49   O21   D    
C37   C39   T    
O24   H16   S    
C9    C11   A    
C23   C25   A    
O1    C3    A    
C46   O17   A    
O2    C4    A    
C2    O7    A    
O12   V3    S    
O3    V1    S    
C21   C23   A    
O5    C3    A    
C5    H5    S    
O14   C46   A    
C6    H6    S    
H1    C29   S    
C27   H7    S    
C28   H8    S    
C34   C36   T    
C5    C21   A    
C35   C37   S    
C6    C22   A    
C36   C38   S    
C10   C32   A    
C39   C41   S    
C17   C31   A    
O18   V4    S    
C33   C48   S    
C12   C14   A    
C17   C25   A    
C45   O18   A    
C7    C29   A    
C8    C30   A    
O16   V4    S    
O5    V1    S    
O15   V3    S    
O6    V2    S    
O13   C45   A    
C24   C26   A    
C4    C31   S    
C33   C35   T    
O20   V3    S    
O4    C2    A    
C50   O23   D    
C10   H10   S    
C15   C19   A    
C41   C43   T    
C14   C16   A    
O4    V2    S    
C1    C44   S    
C50   O24   S    
O11   V4    S    
C34   C47   S    
O16   C48   A    
O15   C47   A    
O6    C4    A    
C13   C15   A    
C8    C45   S    
O1    V2    S    
O14   V4    S    
O2    V1    S    
O13   V3    S    
H2    C30   S    
C26   C50   S    
H3    C23   S    
C42   C44   T    
C11   H13   S    
C49   O22   S    
C18   C26   A    
C19   C27   A    
C7    C27   A    
O17   V3    S    
C18   C32   A    
C16   C20   A    
C5    C29   A    
O3    C1    A    
C6    C30   A    
C9    H9    S    
C7    C46   S    
C25   C49   S    
C10   C12   A    
O7    V1    S    
C1    O8    A    
C11   C13   A    
C3    C32   S    
O8    V2    S    
C20   C22   A    
H4    C24   S    
C12   H14   S    
C22   C24   A    
C15   C17   A    
C16   C18   A    
C20   C28   A    
C8    C28   A    
O19   V4    S    
C19   C21   A    
O9    V2    S    
O10   V1    S    
C13   H11   S    
O22   H15   S    
C14   H12   S    
O12   C48   A    
C9    C31   A    
C38   C40   T    
O11   C47   A    
