data_mof_unit_46283.cif
_audit_creation_date              2012-12-10T18:51:31-0500
_audit_creation_method            fapswitch 2.2
_symmetry_space_group_name_H-M    P1
_symmetry_Int_Tables_number       1
_space_group_crystal_system       triclinic
_cell_length_a                    10.634204
_cell_length_b                    9.857707
_cell_length_c                    10.547178
_cell_angle_alpha                 90.716516
_cell_angle_beta                  90.180313
_cell_angle_gamma                 90.048999
_cell_volume                      1105.55635029

loop_
_atom_site_label
_atom_site_type_symbol
_atom_type_description
_atom_site_fract_x
_atom_site_fract_y
_atom_site_fract_z
_atom_type_partial_charge
C1    C     C_R   0.872005 0.500067 0.499921 -0.341854
C2    C     C_R   0.127995 0.499935 0.500076 -0.341859
C3    C     C_R   0.260356 0.499970 0.500025 1.050299
C4    C     C_R   0.739644 0.500030 0.499974 1.050292
C5    C     C_R   0.501114 0.499076 0.257704 1.049709
C6    C     C_R   0.498887 0.500923 0.742296 1.049715
C7    C     C_3   0.397368 0.562341 0.044774 0.320070
C8    C     C_3   0.602635 0.437658 0.955226 0.320052
C9    C     C_3   0.498634 0.629455 0.962375 0.348607
C10   C     C_3   0.501369 0.370544 0.037626 0.348589
C11   C     C_3   0.396663 0.435627 0.958015 -0.283315
C12   C     C_3   0.603341 0.564372 0.041985 -0.283310
C13   C     C_3   0.497863 0.502530 0.876470 -0.282700
C14   C     C_3   0.502140 0.497469 0.123530 -0.282696
C15   C     C_R   0.574933 0.073051 0.582053 0.001996
C16   C     C_R   0.425066 0.926949 0.417946 0.002003
C17   C     C_R   0.425031 0.070732 0.417989 0.027353
C18   C     C_R   0.574968 0.929267 0.582011 0.027356
C19   C     C_R   0.064563 0.431287 0.401777 0.319786
C20   C     C_R   0.935437 0.568715 0.598220 0.319781
C21   C     C_R   0.934773 0.431300 0.401700 0.338513
C22   C     C_R   0.065227 0.568703 0.598297 0.338529
H1    H     H_    0.634882 0.128346 0.647725 0.181974
H2    H     H_    0.365118 0.871654 0.352275 0.181973
H3    H     H_    0.365015 0.124177 0.352415 0.193365
H4    H     H_    0.634985 0.875823 0.647585 0.193366
N1    N     N_R   0.500000 0.857200 0.500000 -0.109467
N2    N     N_R   0.500000 0.142800 0.500000 -0.109468
O1    O     O_R   0.316770 0.614620 0.499990 -0.603552
O2    O     O_R   0.683230 0.385380 0.500010 -0.603549
O3    O     O_R   0.683230 0.614620 0.500010 -0.587950
O4    O     O_R   0.316770 0.385380 0.499990 -0.587952
O5    O     O_R   0.499970 0.614650 0.313950 -0.598371
O6    O     O_R   0.500030 0.385350 0.686050 -0.598384
O7    O     O_R   0.500030 0.614650 0.686050 -0.586896
O8    O     O_R   0.499970 0.385350 0.313950 -0.586897
Zn1   Zn    Zn3+2 0.500000 0.653120 0.500000 1.077310
Zn2   Zn    Zn3+2 0.500000 0.346880 0.500000 1.077303
C23   C     C_2   0.279592 0.362997 0.915676 0.678324
H5    H     H_    0.215884 0.322952 0.986020 0.142544
O9    O     O_2   0.255275 0.348153 0.803281 -0.534512
C24   C     C_2   0.720412 0.636999 0.084324 0.678310
H6    H     H_    0.784142 0.677008 0.013977 0.142552
O10   O     O_2   0.744706 0.651882 0.196722 -0.534503
Cl1   Cl    Cl    0.261545 0.645699 0.106739 -0.445315
Cl2   Cl    Cl    0.738458 0.354299 0.893260 -0.445319
Cl3   Cl    Cl    0.495582 0.802687 0.915154 -0.439949
Cl4   Cl    Cl    0.504420 0.197313 0.084847 -0.439956
Cl5   Cl    Cl    0.146942 0.349675 0.276404 -0.506404
Cl6   Cl    Cl    0.853058 0.650326 0.723595 -0.506406
Cl7   Cl    Cl    0.851642 0.349413 0.276300 -0.409556
Cl8   Cl    Cl    0.148357 0.650592 0.723697 -0.409532

loop_
_geom_bond_atom_site_label_1
_geom_bond_atom_site_label_2
_ccdc_geom_bond_type
C2    C22   A    
C15   C18   A    
C7    C11   S    
C1    C21   A    
C8    C13   S    
O4    Zn2   S    
C19   Cl5   S    
C18   H4    S    
N2    Zn2   S    
C8    C12   S    
C1    C4    S    
C17   H3    S    
C16   N1    A    
C15   H1    S    
C2    C3    S    
C15   N2    A    
C23   O9    D    
C6    C13   S    
C11   C23   S    
C11   C13   S    
C3    O1    A    
C5    C14   S    
C24   O10   D    
N1    Zn1   S    
C20   Cl6   S    
C7    Cl1   S    
O8    Zn2   S    
C19   C21   A    
C12   C14   S    
O5    Zn1   S    
C9    Cl3   S    
C22   Cl8   S    
C10   Cl4   S    
C3    O4    A    
C8    C10   S    
C9    C12   S    
C8    Cl2   S    
C4    O3    A    
C24   H6    S    
C20   C22   A    
C5    O8    A    
O3    Zn1   S    
C21   Cl7   S    
C6    O7    A    
O2    Zn2   S    
C16   H2    S    
C10   C11   S    
O1    Zn1   S    
C23   H5    S    
C7    C9    S    
C9    C13   S    
C1    C20   A    
C12   C24   S    
O7    Zn1   S    
C2    C19   A    
O6    Zn2   S    
C17   N2    A    
C7    C14   S    
C4    O2    A    
C18   N1    A    
C6    O6    A    
C10   C14   S    
C16   C17   A    
C5    O5    A    
