data_mof_unit_29598.cif
_audit_creation_date              2012-10-26T20:15:03-0400
_audit_creation_method            fapswitch 2.2
_symmetry_space_group_name_H-M    P1
_symmetry_Int_Tables_number       1
_space_group_crystal_system       triclinic
_cell_length_a                    17.730625
_cell_length_b                    9.089107
_cell_length_c                    7.786382
_cell_angle_alpha                 90.000444
_cell_angle_beta                  89.507388
_cell_angle_gamma                 90.000091
_cell_volume                      1254.77227846

loop_
_atom_site_label
_atom_site_type_symbol
_atom_type_description
_atom_site_fract_x
_atom_site_fract_y
_atom_site_fract_z
_atom_type_partial_charge
C1    C     C_R   0.500000 0.220024 0.499999 0.613553
C2    C     C_R   0.844143 0.646942 0.444924 -0.095551
C3    C     C_R   0.770298 0.391935 0.562492 0.024423
C4    C     C_R   0.229701 0.391935 0.437505 0.024423
C5    C     C_R   0.234796 0.640902 0.560716 0.023994
C6    C     C_R   0.765204 0.640902 0.439286 0.023993
C7    C     C_R   0.727536 0.511300 0.496744 -0.022499
C8    C     C_R   0.272464 0.511299 0.503256 -0.022499
C9    C     C_R   0.885534 0.528253 0.506054 -0.013405
C10   C     C_R   0.114466 0.528253 0.493945 -0.013405
C11   C     C_1   0.966167 0.532762 0.502059 0.006484
C12   C     C_R   0.500000 0.779966 0.500000 0.565444
C13   C     C_1   0.033833 0.532762 0.497941 0.006484
C14   C     C_2   0.735266 0.252770 0.623687 0.611508
C15   C     C_2   0.264734 0.252770 0.376308 0.611507
C16   C     C_2   0.275059 0.774244 0.622267 0.565144
C17   C     C_2   0.724942 0.774245 0.377739 0.565147
C18   C     C_1   0.500000 0.065306 0.499999 -0.028664
C19   C     C_1   0.500000 0.934568 0.500000 -0.042700
C20   C     C_R   0.355369 0.504682 0.500862 0.596194
C21   C     C_R   0.644631 0.504682 0.499138 0.596196
C22   C     C_R   0.849071 0.402699 0.566394 -0.100484
C23   C     C_R   0.150928 0.402700 0.433603 -0.100484
C24   C     C_R   0.155857 0.646942 0.555079 -0.095550
Cu1   Cu    Cu3+1 0.500000 0.500000 0.669080 1.124675
Cu2   Cu    Cu3+1 0.500000 0.500000 0.330920 1.124675
H1    H     H_    0.882491 0.311228 0.612880 0.163730
H2    H     H_    0.117508 0.311229 0.387115 0.163731
H3    H     H_    0.126283 0.744057 0.600694 0.162773
H4    H     H_    0.873717 0.744058 0.399310 0.162774
H5    H     H_    0.653441 0.101306 0.597623 0.348203
H6    H     H_    0.346559 0.101305 0.402369 0.348202
H7    H     H_    0.359620 0.861321 0.760879 0.346539
H8    H     H_    0.640379 0.861324 0.239135 0.346538
N1    N     N_1   0.500000 0.500000 0.076820 -0.063449
N2    N     N_1   0.500000 0.500000 0.923180 -0.063449
O1    O     O_R   0.500000 0.288390 0.642760 -0.484886
O2    O     O_R   0.670282 0.198470 0.546154 -0.677434
O3    O     O_2   0.235135 0.182643 0.260906 -0.480842
O4    O     O_R   0.329718 0.198470 0.453839 -0.677433
O5    O     O_2   0.250672 0.896253 0.586418 -0.487870
O6    O     O_R   0.338448 0.762075 0.726434 -0.666058
O7    O     O_2   0.749329 0.896253 0.413587 -0.487871
O8    O     O_R   0.661551 0.762077 0.273578 -0.666060
O9    O     O_R   0.500000 0.711610 0.357240 -0.488526
O10   O     O_R   0.500000 0.711610 0.642760 -0.488527
O11   O     O_R   0.500000 0.288390 0.357240 -0.484886
O12   O     O_R   0.391250 0.500000 0.642840 -0.445603
O13   O     O_R   0.608750 0.500000 0.357160 -0.445603
O14   O     O_R   0.608750 0.500000 0.642840 -0.500877
O15   O     O_R   0.391250 0.500000 0.357160 -0.500876
O16   O     O_2   0.764864 0.182643 0.739088 -0.480841

loop_
_geom_bond_atom_site_label_1
_geom_bond_atom_site_label_2
_ccdc_geom_bond_type
C5    C8    A    
C17   O7    D    
C6    C7    A    
C10   C23   A    
C14   O2    S    
C9    C11   S    
N1    N2    T    
H5    O2    S    
C1    O1    A    
C4    C8    A    
Cu1   O1    S    
C4    C15   S    
C21   O13   A    
C17   O8    S    
C8    C20   S    
C23   H2    S    
C7    C21   S    
C11   C13   T    
Cu1   O12   S    
C15   O3    D    
C1    C18   S    
C20   O12   A    
C3    C14   S    
Cu2   O11   S    
H7    O6    S    
C16   O5    D    
C12   C19   S    
C21   O14   A    
C20   O15   A    
C3    C7    A    
C22   H1    S    
H6    O4    S    
C15   O4    S    
C14   O16   D    
C9    C22   A    
C2    H4    S    
Cu1   N2    S    
C16   O6    S    
Cu2   N1    S    
C24   H3    S    
H8    O8    S    
C12   O10   A    
C18   C19   T    
Cu2   O13   S    
C4    C23   A    
C6    C17   S    
Cu1   O14   S    
C5    C24   A    
C3    C22   A    
Cu2   O9    S    
C10   C24   A    
Cu1   Cu2   S    
Cu2   O15   S    
C2    C9    A    
Cu1   O10   S    
C1    O11   A    
C2    C6    A    
C12   O9    A    
C5    C16   S    
C10   C13   S    
