data_mof_unit_61429.cif
_audit_creation_date              2012-10-26T21:02:13-0400
_audit_creation_method            fapswitch 2.2
_symmetry_space_group_name_H-M    P1
_symmetry_Int_Tables_number       1
_space_group_crystal_system       triclinic
_cell_length_a                    9.793795
_cell_length_b                    10.857232
_cell_length_c                    13.870201
_cell_angle_alpha                 90.96463
_cell_angle_beta                  84.783981
_cell_angle_gamma                 88.206088
_cell_volume                      1467.7528367

loop_
_atom_site_label
_atom_site_type_symbol
_atom_type_description
_atom_site_fract_x
_atom_site_fract_y
_atom_site_fract_z
_atom_type_partial_charge
C1    C     C_R   0.498393 0.734036 0.490608 0.561035
C2    C     C_R   0.502461 0.265499 0.502077 0.563839
C3    C     C_R   0.522405 0.499840 0.317308 0.526100
C4    C     C_1   0.535855 0.500751 0.214123 0.013573
C5    C     C_2   0.554057 0.502865 0.023350 0.105381
C6    C     C_2   0.438812 0.498938 0.977575 0.292745
C7    C     C_1   0.451939 0.499481 0.872613 -0.031186
C8    C     C_1   0.545687 0.501726 0.127226 0.050411
C9    C     C_3   0.199607 0.492597 0.977067 -0.078201
C10   C     C_3   0.781015 0.142784 0.357898 -0.068712
C11   C     C_3   0.414069 0.148746 0.671069 -0.081821
C12   C     C_1   0.463749 0.499824 0.785725 -0.017101
C13   C     C_3   0.754676 0.827117 0.334485 -0.062756
C14   C     C_3   0.148498 0.346694 0.390360 0.021428
C15   C     C_3   0.800045 0.714383 0.653372 -0.030901
C16   C     C_2   0.585132 0.067218 0.436820 0.291402
C17   C     C_2   0.513014 0.131451 0.510213 0.277813
C18   C     C_2   0.600302 0.931538 0.440636 0.283184
C19   C     C_2   0.488941 0.863975 0.464176 0.082560
C20   C     C_2   0.068070 0.578936 0.550589 0.285916
C21   C     C_2   0.915936 0.592449 0.533469 0.453218
C22   C     C_R   0.477611 0.500103 0.682635 0.536167
Cu1   Cu    Cu3+1 0.361370 0.499980 0.499980 1.039689
Cu2   Cu    Cu3+1 0.638630 0.500020 0.500020 1.039958
H1    H     H_    0.204251 0.409008 0.929228 0.132248
H2    H     H_    0.737598 0.896104 0.278085 0.121937
H3    H     H_    0.688783 0.747293 0.324576 0.126273
H4    H     H_    0.863048 0.793217 0.322845 0.173041
H5    H     H_    0.155453 0.287547 0.454390 0.158522
H6    H     H_    0.245270 0.340381 0.342664 0.166009
H7    H     H_    0.068933 0.307046 0.348162 0.099440
H8    H     H_    0.846819 0.793449 0.688112 0.156795
H9    H     H_    0.818397 0.630264 0.696249 0.123104
H10   H     H_    0.688128 0.735340 0.659549 0.165283
H11   H     H_    0.193239 0.577965 0.934209 0.148854
H12   H     H_    0.104133 0.489544 0.026435 0.176945
H13   H     H_    0.802901 0.241133 0.345159 0.164698
H14   H     H_    0.838318 0.088090 0.298320 0.134698
H15   H     H_    0.822250 0.117216 0.427526 0.165155
H16   H     H_    0.318628 0.198420 0.653860 0.154746
H17   H     H_    0.387185 0.092276 0.735518 0.160696
H18   H     H_    0.492792 0.214077 0.690732 0.120387
I1    I     I_    0.895605 0.335996 0.569530 -0.306523
I2    I     I_    0.754086 0.511231 0.949919 -0.432094
I3    I     I_    0.285835 0.935103 0.443102 -0.296987
I4    I     I_    0.137789 0.693911 0.661081 -0.282811
N1    N     N_2   0.152970 0.501340 0.501040 -0.058270
N2    N     N_2   0.846830 0.501370 0.501060 -0.143901
O1    O     O_R   0.382960 0.678040 0.499980 -0.461559
O2    O     O_3   0.638586 0.127015 0.354714 -0.600568
O3    O     O_3   0.465560 0.069196 0.593854 -0.598011
O4    O     O_3   0.731476 0.878672 0.428987 -0.523403
O5    O     O_3   0.108807 0.470303 0.414300 -0.487235
O6    O     O_3   0.851281 0.706169 0.554307 -0.507416
O7    O     O_R   0.617100 0.678080 0.500020 -0.445406
O8    O     O_R   0.366380 0.499950 0.637830 -0.493164
O9    O     O_R   0.600520 0.499990 0.637860 -0.496381
O10   O     O_R   0.382900 0.321920 0.499980 -0.541804
O11   O     O_R   0.617040 0.321960 0.500020 -0.482348
O12   O     O_R   0.399480 0.500010 0.362140 -0.474071
O13   O     O_R   0.633620 0.500050 0.362170 -0.503075
O14   O     O_3   0.312540 0.493870 0.033426 -0.567545

loop_
_geom_bond_atom_site_label_1
_geom_bond_atom_site_label_2
_ccdc_geom_bond_type
C10   H14   S    
C9    H12   S    
Cu1   Cu2   S    
C2    O10   A    
C13   H4    S    
C6    C7    S    
Cu1   O10   S    
C13   O4    S    
I1    N2    S    
C15   H10   S    
C9    O14   S    
C4    C8    T    
C14   H7    S    
N1    O5    S    
C21   N2    D    
C3    O12   A    
C6    O14   S    
C22   O9    A    
C19   I3    S    
C1    O7    A    
C9    H1    S    
Cu1   O8    S    
C2    C17   S    
Cu2   O11   S    
C17   O3    S    
Cu1   O12   S    
C14   H6    S    
C10   H13   S    
C5    C6    D    
C5    I2    S    
C16   O2    S    
C11   H17   S    
C3    O13   A    
Cu2   O13   S    
C21   O6    S    
C13   H2    S    
C7    C12   T    
Cu1   O1    S    
C20   N1    D    
Cu1   N1    S    
C14   H5    S    
C18   O4    S    
C11   H16   S    
C10   O2    S    
C15   O6    S    
C12   C22   S    
C15   H8    S    
C14   O5    S    
C11   O3    S    
C20   C21   S    
C11   H18   S    
C16   C18   S    
C18   C19   D    
Cu2   O9    S    
C9    H11   S    
C5    C8    S    
C2    O11   A    
C13   H3    S    
C22   O8    A    
C1    C19   S    
C1    O1    A    
C15   H9    S    
C20   I4    S    
C3    C4    S    
C16   C17   D    
C10   H15   S    
Cu2   O7    S    
Cu2   N2    S    
