data_mof_unit_51504.cif
_audit_creation_date              2012-12-10T20:24:50-0500
_audit_creation_method            fapswitch 2.2
_symmetry_space_group_name_H-M    P1
_symmetry_Int_Tables_number       1
_space_group_crystal_system       triclinic
_cell_length_a                    10.787027
_cell_length_b                    19.251522
_cell_length_c                    18.513635
_cell_angle_alpha                 87.61443
_cell_angle_beta                  91.123362
_cell_angle_gamma                 91.297216
_cell_volume                      3839.67840443

loop_
_atom_site_label
_atom_site_type_symbol
_atom_type_description
_atom_site_fract_x
_atom_site_fract_y
_atom_site_fract_z
_atom_type_partial_charge
C1    C     C_R   0.499222 0.365617 0.501232 0.970593
C2    C     C_R   0.543594 0.181153 0.566267 0.415426
C3    C     C_R   0.521507 0.853616 0.497946 -0.226566
C4    C     C_R   0.495543 0.145915 0.506223 -0.210785
C5    C     C_R   0.575596 0.814403 0.555952 0.432232
C6    C     C_R   0.446381 0.182901 0.445155 0.389564
C7    C     C_R   0.570628 0.742370 0.554509 -0.232261
C8    C     C_R   0.446720 0.255077 0.444740 -0.255490
C9    C     C_R   0.510515 0.709506 0.497311 -0.213145
C10   C     C_R   0.496632 0.290218 0.503490 -0.179384
C11   C     C_R   0.619514 0.969732 0.481919 -0.019033
C12   C     C_R   0.502007 0.634309 0.498852 1.011936
C13   C     C_R   0.400186 0.029689 0.525532 -0.006444
C14   C     C_R   0.612772 0.041382 0.484118 -0.038320
C15   C     C_R   0.407087 0.958075 0.523619 -0.036817
C16   C     C_R   0.259900 0.501206 0.499026 0.964835
C17   C     C_R   0.740166 0.499516 0.500955 0.985512
C18   C     C_R   0.502934 0.071039 0.505572 0.149765
C19   C     C_R   0.516455 0.928407 0.501451 0.150301
C20   C     C_R   0.560966 0.553574 0.722329 -0.049974
C21   C     C_R   0.440292 0.445980 0.277717 -0.046837
C22   C     C_R   0.561346 0.558706 0.798287 -0.198057
C23   C     C_R   0.872639 0.499622 0.502477 -0.032701
C24   C     C_R   0.440883 0.440519 0.201812 -0.180318
C25   C     C_R   0.500425 0.507696 0.841891 0.014965
C26   C     C_R   0.501959 0.491502 0.158221 0.016242
C27   C     C_R   0.440203 0.453506 0.807457 -0.271917
C28   C     C_R   0.561015 0.546101 0.192589 -0.287606
C29   C     C_R   0.437009 0.450157 0.732023 0.544114
C30   C     C_R   0.562487 0.550027 0.267979 0.544879
C31   C     C_R   0.392187 0.486596 0.961164 -0.113367
C32   C     C_R   0.610646 0.512508 0.038990 -0.118082
C33   C     C_R   0.393705 0.478699 0.036946 -0.129068
C34   C     C_R   0.127542 0.503149 0.497537 -0.038166
C35   C     C_R   0.609150 0.520388 0.963172 -0.137823
C36   C     C_R   0.502763 0.491754 0.077099 0.114622
C37   C     C_R   0.500047 0.507288 0.923031 0.112570
C38   C     C_R   0.185556 0.601484 0.264046 -0.220119
C39   C     C_R   0.819618 0.403782 0.737893 -0.264012
C40   C     C_R   0.147041 0.589674 0.335220 0.461927
C41   C     C_R   0.855884 0.415040 0.666270 0.392398
C42   C     C_R   0.110305 0.521595 0.359163 -0.197324
C43   C     C_R   0.890328 0.483075 0.641088 -0.181650
C44   C     C_R   0.103295 0.467204 0.309304 0.220478
C45   C     C_R   0.942348 0.493721 0.567642 0.144645
C46   C     C_R   0.896107 0.538305 0.689927 0.271095
C47   C     C_R   0.124496 0.483673 0.234987 0.328713
C48   C     C_R   0.877297 0.522699 0.764648 0.362707
C49   C     C_R   0.172924 0.549418 0.214411 -0.356587
C50   C     C_R   0.832117 0.456616 0.786677 -0.291234
C51   C     C_R   0.931018 0.507949 0.436039 -0.073181
C52   C     C_R   0.069184 0.495902 0.564037 -0.084642
C53   C     C_R   0.057906 0.510235 0.432446 0.135687
C54   C     C_R   0.457488 0.748413 0.440075 -0.143922
C55   C     C_R   0.545748 0.253360 0.563466 -0.101626
C56   C     C_R   0.464541 0.820571 0.438836 0.404247
H1    H     H_    0.194853 0.561937 0.158503 0.223865
H2    H     H_    0.603713 0.587447 0.159653 0.202154
H3    H     H_    0.305893 0.476543 0.932177 0.186990
H4    H     H_    0.696852 0.522679 0.068027 0.161308
H5    H     H_    0.308723 0.464184 0.064256 0.213697
H6    H     H_    0.694101 0.535010 0.935838 0.195920
H7    H     H_    0.217046 0.652692 0.245109 0.236124
H8    H     H_    0.789659 0.352594 0.757716 0.230205
H9    H     H_    0.407430 0.722438 0.397565 0.257308
H10   H     H_    0.589023 0.281032 0.607144 0.254203
H11   H     H_    0.612690 0.711581 0.598326 0.229448
H12   H     H_    0.812052 0.444617 0.842935 0.234987
H13   H     H_    0.408839 0.284156 0.398431 0.189970
H14   H     H_    0.703827 0.946453 0.464538 0.177176
H15   H     H_    0.315483 0.052986 0.542305 0.176853
H16   H     H_    0.264075 0.334135 0.606932 0.395391
H17   H     H_    0.734015 0.666090 0.392850 0.397987
H18   H     H_    0.191042 0.691441 0.496486 0.402092
H19   H     H_    0.906577 0.258564 0.690820 0.389310
H20   H     H_    0.209125 0.363727 0.420986 0.329243
H21   H     H_    0.898578 0.685705 0.557437 0.408826
H22   H     H_    0.987731 0.505494 0.092776 0.359134
H23   H     H_    0.692041 0.073797 0.468589 0.179371
H24   H     H_    0.966762 0.568479 0.948317 0.391654
H25   H     H_    0.878125 0.513484 0.385769 0.201354
H26   H     H_    0.122055 0.490504 0.614341 0.201161
H27   H     H_    0.237385 0.931749 0.347763 0.421298
H28   H     H_    0.551900 0.045936 0.710642 0.421563
H29   H     H_    0.724173 0.818967 0.735245 0.418049
H30   H     H_    0.259480 0.213849 0.318135 0.395308
H31   H     H_    0.327622 0.925710 0.538916 0.177687
H32   H     H_    0.609333 0.593014 0.689721 0.186869
H33   H     H_    0.392133 0.406451 0.310317 0.164508
H34   H     H_    0.607243 0.602581 0.822600 0.218752
H35   H     H_    0.395618 0.396392 0.177554 0.217226
H36   H     H_    0.397299 0.412132 0.840290 0.205939
N1    N     N_R   0.500020 0.499980 0.689440 -0.163655
N2    N     N_R   0.499980 0.500020 0.310560 -0.161033
O1    O     O_R   0.500010 0.398180 0.560840 -0.562804
O2    O     O_2   0.259713 0.352474 0.754401 -0.269321
O3    O     O_3   0.285716 0.382347 0.620020 -0.539251
O4    O     O_2   0.730216 0.653132 0.244636 -0.265935
O5    O     O_2   0.540263 0.680751 0.304370 -0.295046
O6    O     O_3   0.714331 0.617988 0.378608 -0.535438
O7    O     O_2   0.169458 0.728385 0.349875 -0.228864
O8    O     O_2   0.995799 0.667221 0.409221 -0.272492
O9    O     O_3   0.215190 0.652798 0.466376 -0.615762
O10   O     O_2   0.786607 0.348826 0.546563 -0.301421
O11   O     O_2   0.001992 0.338383 0.586946 -0.243272
O12   O     O_R   0.499990 0.601820 0.439160 -0.554480
O13   O     O_3   0.833997 0.267841 0.658535 -0.479284
O14   O     O_2   0.925177 0.371772 0.340086 -0.187807
O15   O     O_2   0.116984 0.327698 0.293079 -0.225731
O16   O     O_3   0.117786 0.364603 0.425265 -0.509155
O17   O     O_2   0.875019 0.677510 0.703712 -0.182719
O18   O     O_2   0.068403 0.635972 0.655276 -0.249777
O19   O     O_3   0.871538 0.637857 0.572493 -0.584185
O20   O     O_2   0.167786 0.373408 0.155021 -0.227679
O21   O     O_2   0.951608 0.394935 0.182378 -0.189517
O22   O     O_3   0.059756 0.475507 0.086202 -0.548453
O23   O     O_R   0.499950 0.398180 0.439210 -0.642170
O24   O     O_2   0.047977 0.613843 0.814133 -0.189836
O25   O     O_2   0.831233 0.633738 0.842974 -0.281269
O26   O     O_3   0.944781 0.533386 0.912304 -0.563781
O27   O     O_2   0.483566 0.927325 0.341027 -0.233212
O28   O     O_2   0.377626 0.821413 0.301225 -0.193132
O29   O     O_3   0.261877 0.899151 0.388066 -0.510305
O30   O     O_2   0.728618 0.108309 0.627394 -0.230951
O31   O     O_2   0.619062 0.185010 0.705838 -0.204760
O32   O     O_3   0.508274 0.070346 0.669784 -0.519289
O33   O     O_2   0.763379 0.891728 0.607922 -0.254700
O34   O     O_R   0.500050 0.601820 0.560790 -0.634718
O35   O     O_2   0.560171 0.904168 0.662264 -0.265863
O36   O     O_3   0.683540 0.792837 0.695994 -0.499735
O37   O     O_2   0.486135 0.096601 0.338547 -0.186907
O38   O     O_2   0.278448 0.094276 0.388967 -0.275470
O39   O     O_3   0.341819 0.198673 0.303042 -0.471732
O40   O     O_R   0.316790 0.500010 0.560810 -0.573843
O41   O     O_R   0.683210 0.499990 0.439190 -0.579774
O42   O     O_R   0.316730 0.500000 0.439190 -0.655842
O43   O     O_R   0.683270 0.500000 0.560810 -0.636025
O44   O     O_2   0.450085 0.317678 0.699797 -0.293982
S1    S     S_3+6 0.357502 0.374552 0.700833 0.058342
S2    S     S_3+6 0.604287 0.136556 0.644493 0.106192
S3    S     S_3+6 0.647101 0.853570 0.631599 0.070028
S4    S     S_3+6 0.387133 0.140546 0.368069 0.097236
S5    S     S_3+6 0.637433 0.626772 0.299434 0.062329
S6    S     S_3+6 0.129879 0.662340 0.389902 0.043281
S7    S     S_3+6 0.870650 0.342005 0.611912 0.063682
S8    S     S_3+6 0.063941 0.380573 0.340482 0.097211
S9    S     S_3+6 0.930075 0.624952 0.656725 0.077788
S10   S     S_3+6 0.074744 0.428921 0.164697 0.088356
S11   S     S_3+6 0.926221 0.579171 0.833566 0.071593
S12   S     S_3+6 0.398523 0.867823 0.363835 0.110697
Zn1   Zn    Zn3+2 0.500040 0.500000 0.581210 1.048874
Zn2   Zn    Zn3+2 0.499960 0.500000 0.418790 1.038834

loop_
_geom_bond_atom_site_label_1
_geom_bond_atom_site_label_2
_ccdc_geom_bond_type
O25   S11   D    
H17   O6    S    
C12   O12   A    
C20   N1    A    
H24   O26   S    
H19   O13   S    
C23   C45   A    
O4    S5    D    
C27   C29   A    
C14   C18   A    
O15   S8    D    
C16   O40   A    
O9    S6    S    
O2    S1    D    
C11   H14   S    
C39   C41   A    
C38   C49   A    
C21   H33   S    
C15   C19   A    
C39   H8    S    
C11   C19   A    
O39   S4    S    
C17   C23   S    
C42   C44   A    
C13   C18   A    
O28   S12   D    
O5    S5    D    
C35   C37   A    
C24   C26   A    
C48   C50   A    
C2    C55   A    
C42   C53   S    
O13   S7    S    
O7    S6    D    
O35   S3    D    
C21   N2    A    
N2    Zn2   S    
O41   Zn2   S    
C33   C36   A    
C49   H1    S    
O27   S12   D    
O33   S3    D    
C31   H3    S    
O36   S3    S    
O34   Zn1   S    
C25   C37   S    
C23   C51   A    
C22   C25   A    
C17   O41   A    
C44   S8    S    
C31   C33   A    
C3    C19   S    
C22   H34   S    
C51   H25   S    
C44   C47   A    
C4    C18   S    
C40   C42   A    
O29   S12   S    
C38   C40   A    
C48   S11   S    
H28   O32   S    
C41   C43   A    
O8    S6    D    
H21   O19   S    
C47   C49   A    
O42   Zn2   S    
O23   Zn2   S    
O14   S8    D    
H16   O3    S    
O31   S2    D    
O38   S4    D    
C29   S1    S    
C46   C48   A    
O12   Zn2   S    
C32   C35   A    
C4    C6    A    
C54   H9    S    
C6    C8    A    
C13   H15   S    
C45   C52   A    
O21   S10   D    
C30   S5    S    
C31   C37   A    
C51   C53   A    
O24   S11   D    
C2    C4    A    
C16   C34   S    
O17   S9    D    
H29   O36   S    
C3    C56   A    
H30   O39   S    
C5    S3    S    
C46   S9    S    
C1    O1    A    
O11   S7    D    
C8    H13   S    
C27   H36   S    
C1    O23   A    
C14   H23   S    
C52   H26   S    
C10   C55   A    
C43   C45   S    
O37   S4    D    
C26   C36   S    
C20   C22   A    
C40   S6    S    
C21   C24   A    
N1    Zn1   S    
O1    Zn1   S    
C32   H4    S    
C56   S12   S    
C16   O42   A    
C24   H35   S    
C32   C36   A    
C55   H10   S    
C5    C7    A    
C38   H7    S    
C7    C9    A    
C47   S10   S    
C9    C12   S    
C34   C52   A    
O10   S7    D    
O30   S2    D    
H22   O22   S    
C1    C10   S    
O32   S2    S    
C3    C5    A    
O6    S5    S    
C54   C56   A    
C12   O34   A    
C28   H2    S    
O26   S11   S    
C25   C27   A    
O22   S10   S    
C26   C28   A    
O18   S9    D    
C2    S2    S    
O19   S9    S    
C13   C15   A    
O20   S10   D    
C30   N2    A    
C29   N1    A    
C33   H5    S    
O40   Zn1   S    
C20   H32   S    
C28   C30   A    
C11   C14   A    
H20   O16   S    
C35   H6    S    
C43   C46   A    
C6    S4    S    
O44   S1    D    
C7    H11   S    
C39   C50   A    
C41   S7    S    
C34   C53   A    
C8    C10   A    
C15   H31   S    
O43   Zn1   S    
C17   O43   A    
C9    C54   A    
H27   O29   S    
O16   S8    S    
C50   H12   S    
O3    S1    S    
H18   O9    S    
