data_mof_unit_27529.cif
_audit_creation_date              2012-12-11T17:05:34-0500
_audit_creation_method            fapswitch 2.2
_symmetry_space_group_name_H-M    P1
_symmetry_Int_Tables_number       1
_space_group_crystal_system       triclinic
_cell_length_a                    6.974104
_cell_length_b                    14.550584
_cell_length_c                    15.999468
_cell_angle_alpha                 90.216142
_cell_angle_beta                  89.918981
_cell_angle_gamma                 89.984158
_cell_volume                      1623.56935112

loop_
_atom_site_label
_atom_site_type_symbol
_atom_type_description
_atom_site_fract_x
_atom_site_fract_y
_atom_site_fract_z
_atom_type_partial_charge
O1    O     O_R   0.494380 0.415640 0.412830 -0.523189
O2    O     O_R   0.823960 0.405540 0.586560 -0.538925
O3    O     O_R   0.994270 0.584360 0.587170 -0.545084
C1    C     C_R   0.654958 0.382745 0.614523 0.735529
O4    O     O_R   0.824090 0.404620 0.413450 -0.544331
O5    O     O_R   0.994400 0.583430 0.412820 -0.544994
C2    C     C_R   0.655241 0.381937 0.385001 0.725080
O6    O     O_R   0.494250 0.416570 0.587180 -0.526110
O7    O     O_3   0.660800 0.558670 0.500000 -0.384223
V1    V     V_3+5 0.935650 0.489120 0.500000 1.447637
O8    O     O_R   0.324110 0.594460 0.413440 -0.545169
C3    C     C_R   0.155146 0.616522 0.384739 0.677142
O9    O     O_R   0.323980 0.595380 0.586550 -0.541354
C4    C     C_R   0.155164 0.617517 0.615534 0.702715
V2    V     V_3+5 0.435660 0.510880 0.500000 1.448414
O10   O     O_3   0.160640 0.441330 0.500000 -0.347068
C5    C     C_3   0.048386 0.644714 0.766068 0.137728
H1    H     H_    0.900467 0.622310 0.749730 0.110986
C6    C     C_3   0.035160 0.716972 0.837929 -0.325187
H2    H     H_    0.110324 0.692141 0.894801 0.171070
H3    H     H_    0.881997 0.726780 0.855494 0.127321
H4    H     H_    0.875768 0.749957 0.643625 0.143657
H5    H     H_    0.859681 0.856899 0.748656 0.141962
C7    C     C_3   0.023577 0.771942 0.660580 -0.386572
C8    C     C_3   0.347484 0.723070 0.711209 -0.299497
C9    C     C_3   0.144835 0.687107 0.686851 0.061560
H6    H     H_    0.415238 0.757168 0.656441 0.129744
H7    H     H_    0.442983 0.665190 0.729108 0.180209
C10   C     C_3   0.123039 0.810073 0.810721 0.068733
C11   C     C_3   0.012640 0.844005 0.732473 -0.330545
C12   C     C_3   0.335119 0.792357 0.784348 -0.303855
H8    H     H_    0.417746 0.765185 0.838384 0.156540
H9    H     H_    0.403998 0.858010 0.765162 0.133932
H10   H     H_    0.087572 0.804250 0.604119 0.145084
H11   H     H_    0.074302 0.910331 0.710845 0.137634
C13   C     C_R   0.274791 0.751160 0.187934 0.110570
C14   C     C_R   0.118238 0.810757 0.179563 -0.111323
C15   C     C_R   0.965671 0.800128 0.236507 -0.168855
H12   H     H_    0.842243 0.844740 0.232768 0.133833
C16   C     C_R   0.977281 0.736618 0.302701 -0.175633
H13   H     H_    0.861324 0.733390 0.347502 0.129487
C17   C     C_R   0.142448 0.682310 0.314304 -0.107367
C18   C     C_R   0.286678 0.688627 0.253612 0.105231
C19   C     C_3   0.495855 0.705273 0.264417 -0.418974
C20   C     C_3   0.482993 0.773019 0.192609 -0.394562
H14   H     H_    0.582856 0.643368 0.249286 0.173416
H15   H     H_    0.528496 0.738517 0.325412 0.172116
H16   H     H_    0.561965 0.750121 0.135833 0.177940
H17   H     H_    0.508936 0.845463 0.211826 0.170285
C21   C     C_R   0.486244 0.310633 0.736462 0.166788
C22   C     C_R   0.646142 0.315562 0.683718 -0.115806
C23   C     C_R   0.800035 0.255781 0.700126 -0.160140
H18   H     H_    0.924130 0.255718 0.659750 0.148553
C24   C     C_R   0.789382 0.190969 0.765063 -0.176713
H19   H     H_    0.906483 0.143180 0.773243 0.130895
C25   C     C_R   0.624009 0.183758 0.815270 -0.119324
C26   C     C_R   0.475636 0.246518 0.800991 0.130852
C27   C     C_3   0.270217 0.226610 0.783509 -0.429936
C28   C     C_3   0.282345 0.295263 0.712724 -0.392619
H20   H     H_    0.175469 0.249523 0.835493 0.200264
H21   H     H_    0.247277 0.154787 0.761719 0.164093
H22   H     H_    0.191920 0.356996 0.722881 0.224067
H23   H     H_    0.268352 0.263153 0.649815 0.184565
C29   C     C_R   0.481840 0.306987 0.265146 0.046015
C30   C     C_R   0.645864 0.315031 0.314725 -0.072022
C31   C     C_R   0.799732 0.256481 0.295811 -0.157131
H24   H     H_    0.922814 0.256550 0.335726 0.183552
C32   C     C_R   0.789133 0.192351 0.229836 -0.164133
H25   H     H_    0.906899 0.145178 0.220347 0.137812
C33   C     C_R   0.623014 0.184731 0.180369 -0.082628
C34   C     C_R   0.471652 0.245054 0.198163 0.063295
C35   C     C_3   0.269492 0.220803 0.217994 -0.433959
C36   C     C_3   0.283305 0.284824 0.292837 0.114260
H26   H     H_    0.252273 0.147012 0.234235 0.199086
H27   H     H_    0.170017 0.246112 0.168982 0.153207
H28   H     H_    0.186997 0.345549 0.289232 0.098317
O11   O     O_R   0.771490 0.080820 0.910070 -0.539332
O12   O     O_R   0.441590 0.092730 0.083780 -0.537488
O13   O     O_R   0.271350 0.913900 0.084390 -0.536728
C37   C     C_R   0.610394 0.114638 0.112885 0.699262
O14   O     O_R   0.441780 0.091820 0.910670 -0.539464
O15   O     O_R   0.271540 0.912980 0.910040 -0.542028
C38   C     C_R   0.610827 0.113487 0.881761 0.700237
O16   O     O_R   0.771300 0.081740 0.084420 -0.541294
O17   O     O_3   0.604960 0.938700 0.997240 -0.372334
V3    V     V_3+5 0.330090 0.008230 0.997220 1.402950
O18   O     O_R   0.941820 0.901930 0.910640 -0.543824
C39   C     C_R   0.111032 0.880156 0.881428 0.661885
O19   O     O_R   0.941630 0.902840 0.083750 -0.542979
C40   C     C_R   0.110306 0.880970 0.112622 0.697341
V4    V     V_3+5 0.830090 0.986410 0.997190 1.392149
O20   O     O_3   0.105080 0.055990 0.997200 -0.366285
Br1   Br    Br    0.181193 0.534828 0.805086 -0.641338
Br2   Br    Br    0.279002 0.218090 0.398916 -0.584676

loop_
_geom_bond_atom_site_label_1
_geom_bond_atom_site_label_2
_ccdc_geom_bond_type
C8    C12   S    
C31   C32   A    
O18   C39   A    
O18   V4    S    
C6    H2    S    
C37   O16   A    
O17   V4    S    
O17   V3    S    
C19   C20   S    
C8    H7    S    
C10   C11   S    
C11   H11   S    
C5    C9    S    
C13   C14   A    
C6    H3    S    
C7    C9    S    
O5    C3    A    
C15   H12   S    
O12   C37   A    
O11   C38   A    
C27   H20   S    
V2    O10   S    
C25   C26   A    
C29   C34   A    
O13   C40   A    
C3    C17   S    
O8    V2    S    
C19   H14   S    
C32   H25   S    
C10   C39   S    
C29   C36   S    
C12   H9    S    
C33   C34   A    
O1    V2    S    
O16   V4    S    
O19   V4    S    
O7    V1    S    
O14   V3    S    
C19   H15   S    
C1    O6    A    
O12   V3    S    
C27   H21   S    
C16   C17   A    
C31   H24   S    
O9    C4    A    
C36   Br2   S    
C35   H27   S    
O14   C38   A    
C23   C24   A    
C21   C22   A    
C24   C25   A    
C1    C22   S    
C33   C37   S    
C22   C23   A    
H5    C11   S    
C35   H26   S    
V4    O20   S    
O4    C2    A    
C27   C28   S    
O15   V3    S    
C7    H10   S    
O2    C1    A    
C18   C19   S    
C14   C15   A    
C2    C30   S    
C12   H8    S    
C20   H17   S    
C5    H1    S    
C13   C20   S    
C4    C9    S    
O3    C4    A    
C14   C40   S    
C16   H13   S    
O6    V2    S    
O9    V2    S    
C36   H28   S    
H4    C7    S    
C5    Br1   S    
C17   C18   A    
C21   C28   S    
C6    C10   S    
C23   H18   S    
C25   C38   S    
C20   H16   S    
C24   H19   S    
O11   V4    S    
C28   H22   S    
O1    C2    A    
C21   C26   A    
C35   C36   S    
O5    V1    S    
O8    C3    A    
C8    H6    S    
C28   H23   S    
C29   C30   A    
C8    C9    S    
O4    V1    S    
C10   C12   S    
O3    V1    S    
V3    O20   S    
C15   C16   A    
C26   C27   S    
O15   C39   A    
C5    C6    S    
O7    V2    S    
C7    C11   S    
C34   C35   S    
C32   C33   A    
C30   C31   A    
C13   C18   A    
V1    O10   S    
O19   C40   A    
O13   V3    S    
O2    V1    S    
