data_mof_unit_47084.cif
_audit_creation_date              2012-12-11T16:28:30-0500
_audit_creation_method            fapswitch 2.2
_symmetry_space_group_name_H-M    P1
_symmetry_Int_Tables_number       1
_space_group_crystal_system       triclinic
_cell_length_a                    16.867645
_cell_length_b                    7.253171
_cell_length_c                    14.908777
_cell_angle_alpha                 89.999603
_cell_angle_beta                  94.574868
_cell_angle_gamma                 89.99935
_cell_volume                      1818.1867946

loop_
_atom_site_label
_atom_site_type_symbol
_atom_type_description
_atom_site_fract_x
_atom_site_fract_y
_atom_site_fract_z
_atom_type_partial_charge
O1    O     O_R   0.663460 0.361760 0.165970 -0.532736
O2    O     O_R   0.336540 0.638240 0.834030 -0.532736
O3    O     O_R   0.836540 0.861760 0.334030 -0.532738
O4    O     O_R   0.163460 0.138240 0.665970 -0.532738
O5    O     O_R   0.827100 0.689870 0.163730 -0.518592
O6    O     O_R   0.172900 0.310130 0.836270 -0.518592
O7    O     O_R   0.672900 0.189870 0.336270 -0.518590
O8    O     O_R   0.327100 0.810130 0.663730 -0.518590
C1    C     C_R   0.853783 0.523036 0.144204 0.726138
C2    C     C_R   0.146217 0.476964 0.855796 0.726138
C3    C     C_R   0.646216 0.023037 0.355795 0.726145
C4    C     C_R   0.353784 0.976963 0.644205 0.726145
O9    O     O_R   0.663490 0.691370 0.155500 -0.533070
O10   O     O_R   0.336510 0.308630 0.844500 -0.533070
O11   O     O_R   0.836510 0.191370 0.344500 -0.533070
O12   O     O_R   0.163490 0.808630 0.655500 -0.533070
O13   O     O_R   0.671770 0.863320 0.325740 -0.541471
O14   O     O_R   0.328230 0.136680 0.674260 -0.541471
O15   O     O_R   0.828230 0.363320 0.174260 -0.541467
O16   O     O_R   0.171770 0.636680 0.825740 -0.541467
C5    C     C_R   0.638634 0.523951 0.130258 0.681791
C6    C     C_R   0.361366 0.476049 0.869742 0.681791
C7    C     C_R   0.861362 0.023948 0.369745 0.681792
C8    C     C_R   0.138638 0.976052 0.630255 0.681792
O17   O     O_3   0.752910 0.528800 0.305860 -0.369856
O18   O     O_3   0.247090 0.471200 0.694140 -0.369856
O19   O     O_3   0.747090 0.028800 0.194140 -0.369852
O20   O     O_3   0.252910 0.971200 0.805860 -0.369852
V1    V     V_3+5 0.749460 0.803010 0.239640 1.484221
V2    V     V_3+5 0.250540 0.196990 0.760360 1.484221
V3    V     V_3+5 0.750540 0.303010 0.260360 1.484221
V4    V     V_3+5 0.249460 0.696990 0.739640 1.484220
C9    C     C_1   0.469025 0.994708 0.530341 0.026704
C10   C     C_1   0.530975 0.005291 0.469659 0.026704
C11   C     C_1   0.030975 0.494709 0.969659 0.026706
C12   C     C_1   0.969024 0.505291 0.030341 0.026706
C13   C     C_R   0.018844 0.094837 0.319046 -0.158077
C14   C     C_R   0.981156 0.905162 0.680954 -0.158077
C15   C     C_R   0.481147 0.594869 0.180947 -0.158085
C16   C     C_R   0.518853 0.405131 0.819053 -0.158085
C17   C     C_R   0.093905 0.107412 0.287658 -0.133262
C18   C     C_R   0.906095 0.892588 0.712342 -0.133262
C19   C     C_R   0.406083 0.607444 0.212330 -0.133248
C20   C     C_R   0.593917 0.392556 0.787670 -0.133248
C21   C     C_R   0.160315 0.048563 0.341111 -0.006050
C22   C     C_R   0.839685 0.951436 0.658889 -0.006050
C23   C     C_R   0.339676 0.548578 0.158876 -0.006051
C24   C     C_R   0.660324 0.451422 0.841124 -0.006051
C25   C     C_R   0.151920 0.984870 0.429222 -0.097369
C26   C     C_R   0.848080 0.015130 0.570777 -0.097369
C27   C     C_R   0.348078 0.484870 0.070769 -0.097383
C28   C     C_R   0.651922 0.515130 0.929231 -0.097383
C29   C     C_R   0.077481 0.002826 0.467851 0.023395
C30   C     C_R   0.922519 0.997174 0.532149 0.023396
C31   C     C_R   0.422518 0.502834 0.032144 0.023408
C32   C     C_R   0.577482 0.497166 0.967855 0.023408
C33   C     C_R   0.008746 0.040258 0.408500 0.071469
C34   C     C_R   0.991254 0.959742 0.591500 0.071469
C35   C     C_R   0.491250 0.540275 0.091497 0.071463
C36   C     C_R   0.508750 0.459725 0.908503 0.071463
C37   C     C_R   0.068682 0.976850 0.561558 -0.158128
C38   C     C_R   0.931318 0.023150 0.438441 -0.158128
C39   C     C_R   0.431320 0.476843 0.938439 -0.158130
C40   C     C_R   0.568679 0.523157 0.061560 -0.158130
C41   C     C_1   0.416462 0.986063 0.582006 -0.153681
C42   C     C_1   0.583538 0.013937 0.417994 -0.153681
C43   C     C_1   0.083539 0.486063 0.917995 -0.153698
C44   C     C_1   0.916461 0.513937 0.082005 -0.153698
H1    H     H_    0.968965 0.132201 0.272510 0.121286
H2    H     H_    0.031035 0.867799 0.727490 0.121286
H3    H     H_    0.531023 0.632242 0.227484 0.121281
H4    H     H_    0.468976 0.367758 0.772516 0.121281
C45   C     C_1   0.212272 0.859598 0.466906 0.275756
N1    N     N_1   0.260039 0.754497 0.493476 -0.328107
C46   C     C_1   0.787728 0.140402 0.533094 0.275756
N2    N     N_1   0.739961 0.245503 0.506524 -0.328107
C47   C     C_1   0.287739 0.359559 0.033091 0.275772
N3    N     N_1   0.239985 0.254430 0.006522 -0.328085
C48   C     C_1   0.712261 0.640440 0.966909 0.275772
N4    N     N_1   0.760015 0.745570 0.993478 -0.328085
H5    H     H_    0.099580 0.153759 0.219323 0.142184
H6    H     H_    0.900420 0.846240 0.780677 0.142184
H7    H     H_    0.400403 0.653801 0.280662 0.142189
H8    H     H_    0.599597 0.346198 0.719338 0.142189
C49   C     C_1   0.763793 0.955039 0.697807 0.330289
N5    N     N_1   0.703115 0.957814 0.728969 -0.352848
C50   C     C_1   0.236207 0.044961 0.302193 0.330289
N6    N     N_1   0.296885 0.042186 0.271031 -0.352848
C51   C     C_1   0.736217 0.455032 0.802210 0.330284
N7    N     N_1   0.796896 0.457813 0.771052 -0.352849
C52   C     C_1   0.263783 0.544967 0.197790 0.330284
N8    N     N_1   0.203103 0.542187 0.228948 -0.352849

loop_
_geom_bond_atom_site_label_1
_geom_bond_atom_site_label_2
_ccdc_geom_bond_type
O17   V3    S    
C50   N6    T    
C14   H2    S    
O1    C5    A    
C8    C37   S    
C16   C36   A    
C31   C35   A    
O19   V1    S    
C19   H7    S    
C45   N1    T    
O3    C7    A    
C11   C12   S    
C18   H6    S    
O15   V3    S    
C10   C42   T    
C9    C41   T    
C33   C38   A    
C47   N3    T    
O7    C3    A    
C35   C40   A    
C26   C30   A    
C36   C39   A    
O9    V1    S    
C21   C50   S    
C14   C18   A    
C13   H1    S    
C30   C34   A    
O4    C8    A    
O1    V3    S    
O13   V1    S    
O2    V4    S    
C18   C22   A    
O3    V1    S    
C5    C40   S    
C6    C39   S    
C14   C34   A    
C29   C37   A    
C1    O15   A    
C7    C38   S    
C2    O16   A    
C31   C39   A    
O2    C6    A    
C32   C40   A    
O14   V2    S    
C11   C43   T    
C28   C48   S    
C16   C20   A    
C3    C42   S    
C22   C49   S    
C34   C37   A    
O11   C7    A    
C15   C35   A    
O12   C8    A    
O10   V2    S    
O5    V1    S    
O7    V3    S    
O8    V4    S    
C52   N8    T    
C29   C33   A    
O18   V4    S    
C23   C27   A    
C30   C38   A    
C49   N5    T    
C32   C36   A    
C46   N2    T    
C27   C47   S    
O5    C1    A    
C21   C25   A    
O8    C4    A    
C17   H5    S    
C9    C10   S    
O9    C5    A    
O6    V2    S    
C24   C51   S    
C25   C45   S    
O16   V4    S    
C3    O13   A    
C17   C21   A    
C16   H4    S    
C23   C52   S    
C20   H8    S    
O6    C2    A    
C15   C19   A    
C12   C44   T    
O11   V3    S    
O12   V4    S    
C4    C41   S    
C22   C26   A    
O10   C6    A    
O20   V2    S    
C1    C44   S    
C2    C43   S    
C26   C46   S    
C25   C29   A    
C27   C31   A    
C13   C17   A    
O4    V2    S    
C48   N4    T    
C28   C32   A    
C24   C28   A    
C4    O14   A    
C15   H3    S    
C51   N7    T    
C19   C23   A    
C13   C33   A    
C20   C24   A    
