data_mof_unit_41371.cif
_audit_creation_date              2012-12-11T15:49:23-0500
_audit_creation_method            fapswitch 2.2
_symmetry_space_group_name_H-M    P1
_symmetry_Int_Tables_number       1
_space_group_crystal_system       triclinic
_cell_length_a                    8.243103
_cell_length_b                    18.994694
_cell_length_c                    27.036507
_cell_angle_alpha                 94.772064
_cell_angle_beta                  92.900143
_cell_angle_gamma                 85.513326
_cell_volume                      4201.50189232

loop_
_atom_site_label
_atom_site_type_symbol
_atom_type_description
_atom_site_fract_x
_atom_site_fract_y
_atom_site_fract_z
_atom_type_partial_charge
Ba1   Ba    Ba6+2 0.854000 0.466860 0.523710 1.638551
Ba2   Ba    Ba6+2 0.335820 0.533080 0.476290 1.636630
C1    C     C_3   0.707332 0.203987 0.658038 -0.366717
C2    C     C_R   0.908767 0.571302 0.176577 0.570142
C3    C     C_2   0.758859 0.548681 0.272078 -0.089631
C4    C     C_3   0.128577 0.312417 0.660017 0.337136
C5    C     C_3   0.742329 0.571579 0.326400 -0.050584
C6    C     C_1   0.981556 0.490694 0.343311 0.034728
C7    C     C_2   0.021177 0.487872 0.295755 -0.109245
C8    C     C_2   0.901651 0.516144 0.256505 0.192259
C9    C     C_R   0.019063 0.506471 0.102379 -0.080632
C10   C     C_R   0.050505 0.446623 0.129874 -0.035965
C11   C     C_R   0.122142 0.384384 0.106180 -0.061538
C12   C     C_3   0.667063 0.276396 0.638527 0.359165
C13   C     C_R   0.947130 0.568998 0.126068 -0.022114
C14   C     C_2   0.849593 0.527206 0.360241 -0.287217
C15   C     C_2   0.347400 0.478106 0.640564 -0.282110
C16   C     C_3   0.114686 0.290219 0.712274 -0.321630
C17   C     C_R   0.163958 0.436766 0.975894 0.028381
C18   C     C_R   0.072143 0.562977 0.973471 -0.005028
C19   C     C_R   0.137322 0.498643 0.949244 0.045584
C20   C     C_R   0.224780 0.373450 0.949751 -0.103046
C21   C     C_R   0.260753 0.371172 0.899977 -0.059018
C22   C     C_R   0.237862 0.431770 0.873498 -0.016372
C23   C     C_3   0.518565 0.631495 0.625820 0.294704
C24   C     C_R   0.176260 0.495967 0.897874 -0.115455
C25   C     C_R   0.154252 0.557138 0.870954 -0.048625
C26   C     C_R   0.191132 0.551743 0.819577 0.602192
C27   C     C_R   0.275139 0.428583 0.822940 0.573256
C28   C     C_3   0.187211 0.317781 0.419107 0.315328
C29   C     C_2   0.430347 0.449833 0.727594 -0.086386
C30   C     C_3   0.447736 0.429178 0.672958 -0.046909
C31   C     C_1   0.210848 0.511212 0.656888 0.031439
C32   C     C_2   0.169820 0.512599 0.704229 -0.106001
C33   C     C_2   0.288463 0.483192 0.743276 0.193417
C34   C     C_3   0.514446 0.648634 0.681710 -0.371075
C35   C     C_R   0.128539 0.439839 0.027393 0.019246
C36   C     C_R   0.058850 0.503790 0.051142 0.049722
C37   C     C_R   0.028114 0.565091 0.024208 0.029687
C38   C     C_R   0.160588 0.380986 0.056358 -0.101434
C39   C     C_R   0.913953 0.628417 0.098798 -0.069961
C40   C     C_3   0.196418 0.237931 0.407148 -0.383885
C41   C     C_R   0.055274 0.623646 0.946163 -0.131493
C42   C     C_R   0.096231 0.621729 0.896366 0.210666
C43   C     C_R   0.952593 0.626562 0.049185 -0.104107
C44   C     C_R   0.400703 0.299210 0.523455 -0.292361
C45   C     C_3   0.061577 0.686325 0.339469 0.372578
C46   C     C_R   0.538242 0.276550 0.496993 0.067733
C47   C     C_R   0.590247 0.204489 0.492057 -0.124530
C48   C     C_R   0.502503 0.154295 0.512818 -0.017981
C49   C     C_R   0.358988 0.177829 0.537613 -0.137809
C50   C     C_R   0.306978 0.250119 0.541830 0.011164
C51   C     C_R   0.548914 0.034113 0.545775 -0.076764
C52   C     C_3   0.012882 0.683046 0.580074 0.304563
C53   C     C_R   0.599785 0.962009 0.539886 -0.072965
C54   C     C_R   0.658828 0.931313 0.494446 0.060557
C55   C     C_R   0.668029 0.974812 0.455284 -0.079012
C56   C     C_3   0.070667 0.708358 0.286771 -0.015901
C57   C     C_R   0.617396 0.047027 0.461212 -0.075876
C58   C     C_R   0.556701 0.077522 0.506503 0.063203
C59   C     C_R   0.847316 0.827639 0.462491 -0.129377
C60   C     C_R   0.892229 0.754539 0.458215 0.009749
C61   C     C_R   0.659253 0.733254 0.504106 0.037549
C62   C     C_R   0.613159 0.805709 0.508643 -0.128776
C63   C     C_R   0.706159 0.853919 0.487735 -0.004144
C64   C     C_3   0.025676 0.763121 0.590011 -0.050465
C65   C     C_R   0.794130 0.707821 0.477268 -0.285261
C66   C     C_3   0.671388 0.381842 0.375934 0.301006
C67   C     C_3   0.524245 0.723402 0.359596 0.348284
C68   C     C_3   0.666064 0.365239 0.319900 -0.358320
C69   C     C_3   0.911033 0.784475 0.673135 -0.138001
C70   C     C_3   0.959890 0.798116 0.232190 -0.204291
C71   C     C_3   0.223389 0.725489 0.877444 -0.167329
C72   C     C_3   0.481606 0.795147 0.339276 -0.373092
C73   C     C_R   0.009581 0.450056 0.180480 0.596785
H1    H     H_    0.710898 0.274773 0.600205 0.075580
H2    H     H_    0.585098 0.428485 0.384770 0.079742
H3    H     H_    0.840036 0.189226 0.656986 0.149518
H4    H     H_    0.756176 0.320452 0.309764 0.132536
H5    H     H_    0.695303 0.412122 0.301227 0.071739
H6    H     H_    0.542281 0.350854 0.306688 0.133481
H7    H     H_    0.532206 0.286383 0.637422 -0.064037
H8    H     H_    0.641980 0.163566 0.634495 0.067644
H9    H     H_    0.394888 0.618869 0.611617 0.020401
H10   H     H_    0.605839 0.584639 0.618523 0.073514
H11   H     H_    0.425037 0.694329 0.690256 0.127650
H12   H     H_    0.276222 0.222949 0.375489 0.126496
H13   H     H_    0.478296 0.602230 0.699749 0.078072
H14   H     H_    0.636900 0.661829 0.696998 0.118499
H15   H     H_    0.668678 0.204566 0.696839 0.118956
H16   H     H_    0.118274 0.337475 0.739037 0.126661
H17   H     H_    0.141415 0.636871 0.342902 0.059101
H18   H     H_    0.934317 0.675918 0.346021 -0.079729
H19   H     H_    0.059530 0.661182 0.260173 0.085105
H20   H     H_    0.191601 0.728565 0.282407 0.123922
H21   H     H_    0.658952 0.713402 0.359479 -0.060433
H22   H     H_    0.484724 0.726067 0.398455 0.079773
H23   H     H_    0.246893 0.210458 0.439677 0.063619
H24   H     H_    0.548300 0.836214 0.361741 0.073781
H25   H     H_    0.349021 0.809799 0.341095 0.154111
H26   H     H_    0.049040 0.361843 0.656053 0.090723
H27   H     H_    0.517009 0.793521 0.300082 0.111825
H28   H     H_    0.141427 0.466297 0.285237 0.131952
H29   H     H_    0.149431 0.337505 0.126236 0.120722
H30   H     H_    0.522536 0.429561 0.753930 0.116703
H31   H     H_    0.306858 0.320892 0.882126 0.119480
H32   H     H_    0.244535 0.323799 0.966377 0.065843
H33   H     H_    0.217353 0.331077 0.041943 0.067507
H34   H     H_    0.072665 0.220397 0.397245 0.127162
H35   H     H_    0.665150 0.567499 0.245678 0.119860
H36   H     H_    0.856706 0.677193 0.115772 0.109782
H37   H     H_    0.014798 0.675003 0.962840 0.063731
H38   H     H_    0.257147 0.322585 0.655120 -0.053974
H39   H     H_    0.050433 0.535126 0.714915 0.127351
H40   H     H_    0.918586 0.674455 0.031379 0.063485
H41   H     H_    0.834728 0.538057 0.399856 0.083893
H42   H     H_    0.375583 0.476234 0.601686 0.081368
H43   H     H_    0.506856 0.824305 0.529289 0.072558
H44   H     H_    0.594120 0.930329 0.571165 0.064123
H45   H     H_    0.885379 0.671423 0.571173 -0.010742
H46   H     H_    0.505263 0.056130 0.581323 0.062507
H47   H     H_    0.698001 0.187735 0.471599 0.084968
H48   H     H_    0.710911 0.952650 0.419674 0.065664
H49   H     H_    0.997613 0.266485 0.715890 0.144358
H50   H     H_    0.622746 0.078730 0.429937 0.061780
H51   H     H_    0.925193 0.863750 0.448113 0.078590
H52   H     H_    0.284550 0.140097 0.551670 0.079238
H53   H     H_    0.830165 0.651659 0.474637 0.064370
H54   H     H_    0.359411 0.354826 0.526336 0.070996
H55   H     H_    0.216539 0.250939 0.721342 0.116129
H56   H     H_    0.087499 0.664607 0.547846 0.049477
H57   H     H_    0.311223 0.334557 0.427894 0.003489
H58   H     H_    0.110295 0.331189 0.451594 0.064940
H59   H     H_    0.781276 0.793543 0.605161 0.202263
H60   H     H_    0.879146 0.730123 0.678842 0.137438
H61   H     H_    0.824950 0.822841 0.693587 0.086354
H62   H     H_    0.036370 0.792446 0.688554 0.110724
H63   H     H_    0.826393 0.745576 0.278739 0.216941
H64   H     H_    0.858113 0.839423 0.228238 0.103551
H65   H     H_    0.957839 0.759879 0.198800 0.136531
H66   H     H_    0.076169 0.824362 0.234872 0.104989
H67   H     H_    0.016227 0.787710 0.554111 0.040373
H68   H     H_    0.975739 0.717733 0.881548 0.182234
H69   H     H_    0.204415 0.772223 0.855169 0.104640
H70   H     H_    0.330808 0.691991 0.863573 0.130286
H71   H     H_    0.247932 0.744152 0.916988 0.069046
H72   H     H_    0.147463 0.773952 0.607316 0.104676
H73   H     H_    0.796109 0.394066 0.388633 0.009850
N1    N     N_R   0.940402 0.512253 0.203784 -0.420488
N2    N     N_R   0.250780 0.488004 0.796067 -0.425551
N3    N     N_2   0.897394 0.796250 0.620860 -0.428414
N4    N     N_2   0.941777 0.762251 0.276476 -0.403793
N5    N     N_2   0.079280 0.686138 0.872496 -0.378313
O1    O     O_2   0.913240 0.537010 0.617740 -0.457573
O2    O     O_2   0.230128 0.749999 0.464470 -0.487362
O3    O     O_3   0.115051 0.740502 0.373345 -0.597321
O4    O     O_3   0.145240 0.536960 0.557560 -0.489539
O5    O     O_3   0.557280 0.416300 0.475860 -0.488573
O6    O     O_2   0.376710 0.670070 0.522470 -0.458691
O7    O     O_3   0.567096 0.690295 0.603756 -0.651407
O8    O     O_2   0.414215 0.533521 0.322325 -0.498965
O9    O     O_3   0.444514 0.670710 0.330101 -0.603369
O10   O     O_2   0.033392 0.397185 0.203437 -0.598193
O11   O     O_2   0.328495 0.372189 0.802741 -0.621595
O12   O     O_3   0.628655 0.322499 0.398273 -0.635706
O13   O     O_2   0.847866 0.626564 0.196351 -0.631098
O14   O     O_2   0.171433 0.603935 0.795867 -0.581511
O15   O     O_3   0.669960 0.410470 0.588880 -0.480860
O16   O     O_2   0.777365 0.465633 0.677636 -0.495897
O17   O     O_3   0.069264 0.649803 0.622521 -0.642554
O18   O     O_3   0.743938 0.328410 0.669530 -0.597196
O19   O     O_2   0.812980 0.329910 0.477500 -0.460336
O20   O     O_3   0.078660 0.374870 0.564770 -0.493069
O21   O     O_2   0.970190 0.248950 0.533347 -0.483962
O22   O     O_3   0.079130 0.258179 0.625480 -0.602481
O23   O     O_2   0.276450 0.462960 0.382230 -0.460772
O24   O     O_3   0.044470 0.462980 0.442430 -0.494382
O25   O     O_3   0.519740 0.589470 0.411120 -0.473029
O26   O     O_3   0.120762 0.350170 0.377393 -0.623722
O27   O     O_3   0.632420 0.583650 0.524140 -0.473090
O28   O     O_3   0.111040 0.625070 0.435230 -0.490653
P1    P     P_3+3 0.082480 0.557670 0.610090 0.988675
P2    P     P_3+3 0.635220 0.340300 0.462910 0.985806
P3    P     P_3+3 0.108182 0.282518 0.565799 0.943001
P4    P     P_3+3 0.107220 0.442270 0.389900 0.995266
P5    P     P_3+3 0.087469 0.717714 0.433469 0.946635
P6    P     P_3+3 0.661274 0.411304 0.653204 0.946578
P7    P     P_3+3 0.561105 0.671481 0.539228 0.941340
P8    P     P_3+3 0.529158 0.588304 0.346771 0.939740

loop_
_geom_bond_atom_site_label_1
_geom_bond_atom_site_label_2
_ccdc_geom_bond_type
C34   H14   S    
C53   C54   A    
C26   N2    Am   
C52   H45   S    
C48   C58   S    
C45   H17   S    
C52   O17   S    
C19   C24   A    
C67   H21   S    
C44   H54   S    
Ba1   P2    S    
C62   H43   S    
O23   P4    D    
C69   H62   S    
C53   H44   S    
C34   H13   S    
C2    N1    Am   
Ba1   O20   S    
C24   C25   A    
Ba2   O27   S    
C60   C65   A    
C1    H15   S    
C42   N5    S    
Ba1   O5    S    
C17   C19   A    
C40   H34   S    
C22   C24   A    
C32   C33   S    
C35   C38   A    
C40   H23   S    
C8    N1    S    
C69   H60   S    
C36   C37   A    
Ba1   O27   S    
H68   N5    S    
C45   O3    S    
C47   H47   S    
C20   H32   S    
C44   C50   A    
O24   P4    S    
C54   C55   A    
C73   O10   D    
Ba1   Ba2   S    
C4    H26   S    
C68   H6    S    
C22   C27   A    
C11   C38   A    
O27   P7    S    
C26   O14   D    
Ba2   O23   S    
C27   N2    Am   
C9    C13   A    
C25   C42   A    
C70   H64   S    
C69   N3    S    
C3    H35   S    
O20   P3    S    
Ba2   O6    S    
C70   N4    S    
C23   H9    S    
C21   C22   A    
C59   H51   S    
Ba2   O24   S    
C17   C35   A    
O5    P2    S    
C66   H73   S    
C15   H42   S    
C37   C43   A    
C66   O12   S    
C57   C58   A    
C6    C14   D    
O15   P6    S    
O17   P1    S    
C29   H30   S    
C27   O11   D    
C59   C60   A    
C15   C31   D    
C14   H41   S    
C51   C58   A    
C56   N4    S    
C48   C49   A    
C44   C46   A    
C51   C53   A    
C70   H66   S    
C4    C16   S    
C61   C65   A    
C68   H5    S    
C49   C50   A    
O12   P2    S    
C64   N3    S    
C17   C20   A    
C67   O9    S    
O16   P6    D    
O8    P8    D    
O21   P3    D    
C69   H61   S    
C3    C5    S    
O25   P8    S    
C6    C7    D    
C72   H25   S    
Ba1   O15   S    
H63   N4    S    
C21   H31   S    
C71   H70   S    
Ba2   O28   S    
C12   H1    S    
O6    P7    D    
C9    C36   A    
C56   H20   S    
C4    H38   S    
C35   C36   A    
C52   H56   S    
C55   H48   S    
C43   H40   S    
C29   C30   S    
Ba2   O5    S    
C28   H58   S    
O28   P5    S    
C23   O7    S    
C23   H10   S    
C31   C32   D    
C45   H18   S    
C67   C72   S    
C18   C19   A    
C11   H29   S    
C13   C39   A    
C64   H72   S    
C1    C12   S    
C64   H67   S    
C46   C47   A    
C33   N2    S    
C61   P7    S    
C41   C42   A    
C39   H36   S    
C29   C33   D    
C16   H55   S    
C57   H50   S    
O4    P1    S    
C16   H16   S    
C25   C26   A    
C18   C41   A    
C7    C8    S    
C66   H2    S    
C18   C37   A    
C5    C14   S    
C39   C43   A    
C30   P6    S    
C68   H4    S    
C5    P8    S    
C50   P3    S    
C12   O18   S    
O2    P5    D    
C46   P2    S    
Ba1   P1    S    
C72   H24   S    
C52   C64   S    
O3    P5    S    
C6    P4    S    
C32   H39   S    
C71   H71   S    
Ba1   O19   S    
C60   P5    S    
C72   H27   S    
C34   H11   S    
C62   C63   A    
C2    C13   A    
Ba1   O4    S    
C56   H19   S    
Ba2   P4    S    
C49   H52   S    
C3    C8    D    
C51   H46   S    
C65   H53   S    
C45   C56   S    
C1    H8    S    
O19   P2    D    
C28   O26   S    
C73   N1    Am   
Ba2   O4    S    
C28   H57   S    
H59   N3    S    
O1    P1    D    
C7    H28   S    
C41   H37   S    
C2    O13   D    
O26   P4    S    
Ba1   O1    S    
C55   C57   A    
C23   C34   S    
C61   C62   A    
C59   C63   A    
C38   H33   S    
C70   H65   S    
C10   C11   A    
C66   C68   S    
C47   C48   A    
C4    O22   S    
C10   C73   A    
C71   N5    S    
C31   P1    S    
C15   C30   S    
C12   H7    S    
C20   C21   A    
C28   C40   S    
C40   H12   S    
Ba2   O25   S    
C1    H3    S    
Ba1   O24   S    
O18   P6    S    
C71   H69   S    
O9    P8    S    
C54   C63   S    
C9    C10   A    
C16   H49   S    
O22   P3    S    
O7    P7    S    
C67   H22   S    
