data_mof_unit_61477.cif
_audit_creation_date              2013-03-05T16:01:05-0500
_audit_creation_method            fapswitch 2.2
_symmetry_space_group_name_H-M    P1
_symmetry_Int_Tables_number       1
_space_group_crystal_system       triclinic
_cell_length_a                    18.32741
_cell_length_b                    18.349278
_cell_length_c                    25.839082
_cell_angle_alpha                 90.090729
_cell_angle_beta                  89.99396
_cell_angle_gamma                 89.994103
_cell_volume                      8689.53640258

loop_
_atom_site_label
_atom_site_type_symbol
_atom_site_description
_atom_site_fract_x
_atom_site_fract_y
_atom_site_fract_z
_atom_type_partial_charge
Zn1   Zn    Zn3+2 0.086750 0.999990 0.706190 1.111707
Zn2   Zn    Zn3+2 0.913250 0.999990 0.706190 1.167201
Zn3   Zn    Zn3+2 0.913250 0.999990 0.293810 1.180134
Zn4   Zn    Zn3+2 0.086750 0.999990 0.293810 1.113584
Zn5   Zn    Zn3+2 0.586750 0.499990 0.206190 1.173563
Zn6   Zn    Zn3+2 0.413250 0.499990 0.206190 1.119650
Zn7   Zn    Zn3+2 0.413250 0.499990 0.793810 1.110285
Zn8   Zn    Zn3+2 0.586750 0.499990 0.793810 1.168731
Zn9   Zn    Zn3+2 0.000000 0.086770 0.793750 1.130525
Zn10  Zn    Zn3+2 1.000000 0.086770 0.206250 1.128252
Zn11  Zn    Zn3+2 0.500000 0.586770 0.293750 1.138406
Zn12  Zn    Zn3+2 0.500000 0.586770 0.706250 1.130096
Zn13  Zn    Zn3+2 0.000000 0.913230 0.793740 1.126913
Zn14  Zn    Zn3+2 1.000000 0.913230 0.206260 1.133762
Zn15  Zn    Zn3+2 0.500000 0.413230 0.293740 1.131894
Zn16  Zn    Zn3+2 0.500000 0.413230 0.706260 1.129236
O1    O     O_3   1.000000 0.000000 0.749970 -0.612784
O2    O     O_3   1.000000 0.000000 0.250030 -0.616913
O3    O     O_3   0.500000 0.500000 0.249970 -0.618226
O4    O     O_3   0.500000 0.500000 0.750030 -0.612965
O5    O     O_R   0.853810 0.085480 0.719360 -0.578336
O6    O     O_R   0.146190 0.085480 0.719360 -0.581382
O7    O     O_R   0.146190 0.085480 0.280640 -0.584396
O8    O     O_R   0.853810 0.085480 0.280640 -0.563858
O9    O     O_R   0.353810 0.585480 0.219360 -0.577024
O10   O     O_R   0.646190 0.585480 0.219360 -0.563292
O11   O     O_R   0.646190 0.585480 0.780640 -0.578206
O12   O     O_R   0.353810 0.585480 0.780640 -0.581549
O13   O     O_R   0.146170 0.914530 0.719320 -0.588186
O14   O     O_R   0.853830 0.914530 0.719320 -0.574413
O15   O     O_R   0.853830 0.914530 0.280680 -0.563683
O16   O     O_R   0.146170 0.914530 0.280680 -0.572156
O17   O     O_R   0.646170 0.414530 0.219320 -0.564643
O18   O     O_R   0.353830 0.414530 0.219320 -0.581229
O19   O     O_R   0.353830 0.414530 0.780680 -0.588301
O20   O     O_R   0.646170 0.414530 0.780680 -0.574062
O21   O     O_R   0.085450 0.146180 0.780600 -0.584110
O22   O     O_R   0.914550 0.146180 0.780600 -0.579070
O23   O     O_R   0.914550 0.146180 0.219400 -0.565694
O24   O     O_R   0.085450 0.146180 0.219400 -0.577931
O25   O     O_R   0.585450 0.646180 0.280600 -0.575612
O26   O     O_R   0.414550 0.646180 0.280600 -0.570797
O27   O     O_R   0.414550 0.646180 0.719400 -0.584777
O28   O     O_R   0.585450 0.646180 0.719400 -0.578836
O29   O     O_R   0.914560 0.853830 0.780620 -0.586560
O30   O     O_R   0.085440 0.853830 0.780620 -0.576938
O31   O     O_R   0.085440 0.853830 0.219380 -0.568586
O32   O     O_R   0.914560 0.853830 0.219380 -0.582169
O33   O     O_R   0.414560 0.353830 0.280620 -0.562549
O34   O     O_R   0.585440 0.353830 0.280620 -0.579950
O35   O     O_R   0.585440 0.353830 0.719380 -0.585859
O36   O     O_R   0.414560 0.353830 0.719380 -0.577479
O37   O     O_R   0.000000 0.060730 0.866830 -0.592517
O38   O     O_R   1.000000 0.060730 0.133170 -0.608776
O39   O     O_R   0.500000 0.560730 0.366830 -0.589054
O40   O     O_R   0.500000 0.560730 0.633170 -0.592694
O41   O     O_R   0.939250 0.000010 0.633130 -0.528571
O42   O     O_R   0.060750 0.000010 0.633130 -0.618606
O43   O     O_R   0.060750 0.000010 0.366870 -0.624897
O44   O     O_R   0.939250 0.000010 0.366870 -0.542248
O45   O     O_R   0.439250 0.500010 0.133130 -0.625954
O46   O     O_R   0.560750 0.500010 0.133130 -0.541698
O47   O     O_R   0.560750 0.500010 0.866870 -0.528736
O48   O     O_R   0.439250 0.500010 0.866870 -0.618559
O49   O     O_R   0.000000 0.939270 0.866820 -0.592295
O50   O     O_R   1.000000 0.939270 0.133180 -0.596275
O51   O     O_R   0.500000 0.439270 0.366820 -0.609857
O52   O     O_R   0.500000 0.439270 0.633180 -0.591510
C1    C     C_R   0.859909 0.140096 0.749991 0.985507
C2    C     C_R   0.140074 0.140121 0.749966 0.988951
C3    C     C_R   0.140070 0.140097 0.250063 0.980879
C4    C     C_R   0.859912 0.140074 0.250039 1.001329
C5    C     C_R   0.359922 0.640112 0.249977 0.993938
C6    C     C_R   0.640098 0.640096 0.249993 0.986904
C7    C     C_R   0.640118 0.640041 0.750006 0.988043
C8    C     C_R   0.359909 0.640075 0.750042 0.988288
C9    C     C_R   0.140103 0.859981 0.749985 0.989987
C10   C     C_R   0.859933 0.859937 0.749946 0.980314
C11   C     C_R   0.859940 0.859901 0.250043 0.985713
C12   C     C_R   0.140063 0.859910 0.250029 0.997823
C13   C     C_R   0.640047 0.359919 0.249921 0.982707
C14   C     C_R   0.359934 0.359940 0.249950 1.003183
C15   C     C_R   0.359921 0.359924 0.750017 0.987442
C16   C     C_R   0.640049 0.359895 0.750045 0.981885
C17   C     C_R   0.000164 0.000135 0.890752 0.949963
C18   C     C_R   0.000181 0.999811 0.109218 0.915879
C19   C     C_R   0.500262 0.500179 0.390781 0.917806
C20   C     C_R   0.500175 0.499867 0.609249 0.953852
C21   C     C_R   0.000014 0.000059 0.608765 0.979316
C22   C     C_R   0.000010 0.999964 0.391240 0.972211
C23   C     C_R   0.499990 0.499964 0.108761 0.974935
C24   C     C_R   0.499986 0.500058 0.891235 0.978885
C25   C     C_3   0.955471 0.069029 0.530075 0.677678
C26   C     C_3   0.962405 0.928474 0.530768 0.669506
C27   C     C_3   0.955587 0.930922 0.469954 0.669709
C28   C     C_3   0.962306 0.071496 0.469263 0.664583
C29   C     C_3   0.544736 0.431119 0.029889 0.672849
C30   C     C_3   0.537357 0.571659 0.030905 0.660416
C31   C     C_3   0.544214 0.569221 0.970086 0.675888
C32   C     C_3   0.537924 0.428637 0.969072 0.670673
H1    H     H_    0.104452 0.058612 0.538685 0.304849
H2    H     H_    0.115602 0.964415 0.547527 0.299519
H3    H     H_    0.104539 0.941537 0.461317 0.305965
H4    H     H_    0.115545 0.035751 0.452470 0.293473
H5    H     H_    0.395742 0.441066 0.038548 0.297984
H6    H     H_    0.384281 0.535229 0.047608 0.300500
H7    H     H_    0.395283 0.558152 0.961450 0.305885
H8    H     H_    0.384569 0.463909 0.952386 0.298255
C33   C     C_3   0.079107 0.005339 0.529392 -0.490427
C34   C     C_3   0.079114 0.994778 0.470611 -0.493590
C35   C     C_3   0.420911 0.494423 0.029377 -0.499580
C36   C     C_3   0.420872 0.504990 0.970620 -0.488522
C37   C     C_3   0.999652 0.000960 0.551032 -0.432810
C38   C     C_3   0.999653 0.999057 0.448983 -0.420220
C39   C     C_3   0.500350 0.499055 0.051016 -0.417698
C40   C     C_3   0.500346 0.500961 0.948972 -0.432213
C41   C     C_R   0.207899 0.761581 0.794523 0.554016
C42   C     C_R   0.792088 0.761541 0.794446 0.542721
C43   C     C_R   0.820580 0.732961 0.233092 0.552508
C44   C     C_R   0.207319 0.760740 0.205725 0.564914
C45   C     C_R   0.679263 0.232899 0.266489 0.558144
C46   C     C_R   0.320624 0.233014 0.266747 0.565569
C47   C     C_R   0.292370 0.261087 0.705580 0.552750
C48   C     C_R   0.707777 0.261205 0.705577 0.543025
C49   C     C_R   0.732749 0.179445 0.266582 0.566460
C50   C     C_R   0.267147 0.179566 0.266831 0.545508
C51   C     C_R   0.238885 0.207620 0.705566 0.547143
C52   C     C_R   0.761288 0.207760 0.705556 0.555678
C53   C     C_R   0.261311 0.708019 0.794524 0.548228
C54   C     C_R   0.738652 0.708020 0.794459 0.555281
C55   C     C_R   0.767114 0.679508 0.233074 0.567625
C56   C     C_R   0.260819 0.707300 0.205703 0.559329
C57   C     C_R   0.803765 0.196198 0.250028 -0.522804
C58   C     C_R   0.196188 0.196256 0.250115 -0.517697
C59   C     C_R   0.196177 0.196278 0.749956 -0.517323
C60   C     C_R   0.803768 0.196208 0.750018 -0.528937
C61   C     C_R   0.303771 0.696216 0.750054 -0.518489
C62   C     C_R   0.696314 0.696112 0.749958 -0.528949
C63   C     C_R   0.696245 0.696203 0.250039 -0.516993
C64   C     C_R   0.303808 0.696252 0.249986 -0.517405
C65   C     C_R   0.820650 0.267042 0.233360 0.565485
C66   C     C_R   0.179338 0.267071 0.233362 0.557748
C67   C     C_R   0.207539 0.239054 0.794344 0.542111
C68   C     C_R   0.792124 0.238709 0.794505 0.552105
C69   C     C_R   0.292228 0.738613 0.705593 0.543737
C70   C     C_R   0.708055 0.738309 0.705423 0.552870
C71   C     C_R   0.679503 0.766985 0.267057 0.561634
C72   C     C_R   0.292693 0.739294 0.294281 0.556713
C73   C     C_R   0.238803 0.792145 0.705583 0.546582
C74   C     C_R   0.761481 0.791857 0.705417 0.558068
C75   C     C_R   0.732963 0.820440 0.267064 0.566869
C76   C     C_R   0.239191 0.792737 0.294301 0.563512
C77   C     C_R   0.767168 0.320497 0.233273 0.563894
C78   C     C_R   0.232820 0.320520 0.233274 0.546905
C79   C     C_R   0.261032 0.292504 0.794363 0.545516
C80   C     C_R   0.738618 0.292167 0.794525 0.557807
C81   C     C_R   0.196309 0.803918 0.750035 -0.520987
C82   C     C_R   0.803792 0.803795 0.749934 -0.524688
C83   C     C_R   0.803822 0.803759 0.250067 -0.522194
C84   C     C_R   0.196195 0.803781 0.250018 -0.522620
C85   C     C_R   0.696163 0.303759 0.249862 -0.524922
C86   C     C_R   0.303788 0.303815 0.249958 -0.517474
C87   C     C_R   0.303767 0.303823 0.749985 -0.519216
C88   C     C_R   0.696156 0.303738 0.750052 -0.525517
C89   C     C_R   0.051392 0.956473 0.972956 0.201326
C90   C     C_R   0.049899 0.955291 0.026846 0.182364
C91   C     C_R   0.449112 0.456689 0.473027 0.209059
C92   C     C_R   0.450142 0.455789 0.526943 0.191329
C93   C     C_R   0.999236 0.999077 0.053490 -0.294663
C94   C     C_R   0.001065 0.000694 0.946440 -0.294939
C95   C     C_R   0.501054 0.499336 0.553562 -0.295875
C96   C     C_R   0.499442 0.500876 0.446509 -0.291566
C97   C     C_R   0.949354 0.043790 0.026964 0.205181
C98   C     C_R   0.950589 0.044766 0.973052 0.188990
C99   C     C_R   0.551950 0.542935 0.527055 0.201003
C100  C     C_R   0.550612 0.544048 0.473148 0.196670
N1    N     N_R   0.976700 0.139352 0.553665 0.210694
O53   O     O_R   0.936941 0.196696 0.544543 -0.192829
O54   O     O_R   0.030782 0.145381 0.586028 -0.375698
N2    N     N_R   0.002189 0.863410 0.549348 0.185823
O55   O     O_R   0.972343 0.821275 0.583863 -0.249745
O56   O     O_R   0.065960 0.845573 0.531135 -0.329890
N3    N     N_R   0.976953 0.860624 0.446377 0.205926
O57   O     O_R   0.937343 0.803202 0.455558 -0.195947
O58   O     O_R   0.031012 0.854681 0.413979 -0.373274
N4    N     N_R   0.002013 0.136611 0.450699 0.183102
O59   O     O_R   0.972142 0.178714 0.416177 -0.265042
O60   O     O_R   0.065734 0.154532 0.468943 -0.342656
N5    N     N_R   0.523710 0.360726 0.053309 0.207207
O61   O     O_R   0.563584 0.303482 0.043991 -0.196243
O62   O     O_R   0.469703 0.354548 0.085713 -0.396206
N6    N     N_R   0.497336 0.636593 0.049614 0.186538
O63   O     O_R   0.526991 0.678816 0.084248 -0.262846
O64   O     O_R   0.433530 0.654225 0.031411 -0.322611
N7    N     N_R   0.522668 0.639454 0.946656 0.209897
O65   O     O_R   0.562165 0.696968 0.955914 -0.192793
O66   O     O_R   0.468552 0.645257 0.914314 -0.373588
N8    N     N_R   0.498438 0.363400 0.950346 0.185973
O67   O     O_R   0.528472 0.321399 0.915732 -0.251257
O68   O     O_R   0.434752 0.345283 0.968523 -0.339947
F1    F     F_    0.882399 0.059086 0.542632 -0.459267
F2    F     F_    0.892048 0.924178 0.550871 -0.459382
F3    F     F_    0.882503 0.940752 0.457396 -0.469379
F4    F     F_    0.891950 0.075716 0.449162 -0.478276
F5    F     F_    0.617776 0.441279 0.042464 -0.469323
F6    F     F_    0.607685 0.576193 0.051026 -0.478373
F7    F     F_    0.617331 0.559595 0.957511 -0.459135
F8    F     F_    0.608302 0.424642 0.948963 -0.459660
F9    F     F_    0.168878 0.773107 0.838487 -0.504449
F10   F     F_    0.831007 0.773130 0.838437 -0.522457
F11   F     F_    0.889082 0.714808 0.217662 -0.514105
F12   F     F_    0.167743 0.771414 0.161949 -0.496412
F13   F     F_    0.610608 0.214694 0.281495 -0.497089
F14   F     F_    0.389220 0.214843 0.281909 -0.498685
F15   F     F_    0.331653 0.272117 0.661701 -0.504380
F16   F     F_    0.668709 0.272446 0.661632 -0.521609
F17   F     F_    0.714426 0.110962 0.281674 -0.491234
F18   F     F_    0.285440 0.111137 0.282065 -0.521731
F19   F     F_    0.227794 0.168304 0.661672 -0.520502
F20   F     F_    0.772653 0.168687 0.661583 -0.498486
F21   F     F_    0.272605 0.669085 0.838476 -0.518566
F22   F     F_    0.727200 0.669241 0.838462 -0.498756
F23   F     F_    0.785330 0.611080 0.217627 -0.493097
F24   F     F_    0.271626 0.667713 0.161893 -0.515682
F25   F     F_    0.889295 0.285243 0.218327 -0.494692
F26   F     F_    0.110733 0.285243 0.218223 -0.501749
F27   F     F_    0.168228 0.228062 0.838217 -0.529033
F28   F     F_    0.831177 0.227437 0.838450 -0.498137
F29   F     F_    0.331299 0.727162 0.661645 -0.526190
F30   F     F_    0.669176 0.726645 0.661421 -0.499655
F31   F     F_    0.611014 0.785130 0.282520 -0.509784
F32   F     F_    0.332268 0.728589 0.338066 -0.515640
F33   F     F_    0.227526 0.831073 0.661625 -0.526964
F34   F     F_    0.772942 0.830640 0.661418 -0.486973
F35   F     F_    0.714743 0.888863 0.282519 -0.492147
F36   F     F_    0.228378 0.832322 0.338112 -0.514808
F37   F     F_    0.785497 0.388975 0.218173 -0.492260
F38   F     F_    0.214529 0.388955 0.218051 -0.521190
F39   F     F_    0.272110 0.331817 0.838261 -0.529844
F40   F     F_    0.727249 0.331239 0.838496 -0.487077
N9    N     N_R   0.105379 0.914645 0.945416 0.262924
O69   O     O_R   0.115794 0.846265 0.956442 -0.181586
O70   O     O_R   0.146213 0.945501 0.910550 -0.336890
N10   N     N_R   0.103397 0.913783 0.054536 0.238337
O71   O     O_R   0.087247 0.849033 0.071456 -0.192579
O72   O     O_R   0.170686 0.936167 0.056221 -0.285061
N11   N     N_R   0.394012 0.416696 0.445391 0.247676
O73   O     O_R   0.350974 0.450083 0.413137 -0.344906
O74   O     O_R   0.388591 0.346423 0.450789 -0.226329
N12   N     N_R   0.396022 0.415004 0.554680 0.254105
O75   O     O_R   0.347262 0.448860 0.582320 -0.330853
O76   O     O_R   0.401033 0.344397 0.557533 -0.186212
N13   N     N_R   0.894562 0.084354 0.054557 0.248817
O77   O     O_R   0.887645 0.154164 0.047424 -0.215900
O78   O     O_R   0.852075 0.051700 0.087548 -0.349327
N14   N     N_R   0.897037 0.086206 0.945291 0.255295
O79   O     O_R   0.904790 0.156328 0.940412 -0.180830
O80   O     O_R   0.846283 0.052860 0.919206 -0.326284
N15   N     N_R   0.606246 0.584302 0.554627 0.263464
O81   O     O_R   0.617568 0.652459 0.543372 -0.176168
O82   O     O_R   0.646529 0.553196 0.589698 -0.336159
N16   N     N_R   0.604874 0.584593 0.445461 0.230649
O83   O     O_R   0.672140 0.562001 0.444951 -0.291093
O84   O     O_R   0.589383 0.648917 0.427441 -0.230206

loop_
_geom_bond_atom_site_label_1
_geom_bond_atom_site_label_2
_geom_bond_distance
_ccdc_geom_bond_type
C44   F12   1.358235 S    
H4    C34   1.109914 S    
C76   C84   1.404334 A    
C46   C50   1.386602 A    
C89   C90   1.392953 A    
O24   C3    1.281692 A    
C47   F15   1.358443 S    
O36   C15   1.281204 A    
C18   C93   1.440113 S    
C90   N10   1.433537 S    
H7    C36   1.108297 S    
Zn14  O2    1.951514 S    
C35   C36   1.530874 S    
C32   C40   1.583448 S    
Zn16  O35   1.938003 S    
C27   N3    1.478408 S    
C64   C72   1.404384 A    
C3    C58   1.455996 S    
C32   F8    1.392394 S    
Zn2   O41   1.946966 S    
C51   F19   1.358537 S    
Zn13  O49   1.947101 S    
C97   C98   1.393346 A    
C80   F40   1.358561 S    
C22   C38   1.492177 S    
Zn15  O3    1.954434 S    
Zn6   O3    1.951374 S    
Zn11  O3    1.951663 S    
C42   F10   1.358478 S    
Zn8   O4    1.951375 S    
O41   C21   1.279221 A    
Zn11  O26   1.938395 S    
H3    C34   1.108300 S    
O32   C11   1.281317 A    
C61   C69   1.404506 A    
C76   F36   1.358546 S    
C51   C59   1.404355 A    
Zn12  O27   1.937732 S    
C49   F17   1.358508 S    
C55   F23   1.358519 S    
C52   C60   1.404244 A    
C70   F30   1.358557 S    
Zn13  O30   1.937342 S    
C12   C84   1.455635 S    
Zn6   O9    1.939379 S    
O16   C12   1.281322 A    
C27   C38   1.584655 S    
N12   O76   1.301041 A    
C31   N7    1.478399 S    
C52   F20   1.358576 S    
O27   C8    1.281575 A    
C75   C83   1.404444 A    
N10   O71   1.300794 A    
Zn3   O2    1.951180 S    
Zn10  O24   1.937970 S    
N9    O69   1.301174 A    
Zn8   O20   1.938549 S    
Zn15  O34   1.937342 S    
N5    O62   1.301458 A    
C69   F29   1.358487 S    
O10   C6    1.280930 A    
O25   C6    1.280842 A    
C70   C74   1.387223 A    
Zn14  O31   1.938003 S    
C71   F31   1.358491 S    
C10   C82   1.456066 S    
C92   C95   1.407411 A    
C56   C64   1.404272 A    
O29   C10   1.282007 A    
C97   N13   1.438333 S    
C29   N5    1.478368 S    
N1    O54   1.301480 A    
N14   O80   1.301105 A    
O47   C24   1.279225 A    
C43   C55   1.386510 A    
O23   C4    1.281492 A    
C28   F4    1.392344 S    
N8    O67   1.301740 A    
C26   F2    1.392390 S    
C29   C39   1.584696 S    
C25   F1    1.390045 S    
C49   C57   1.404216 A    
C34   C38   1.561919 S    
C27   F3    1.390015 S    
O9    C5    1.280962 A    
C16   C88   1.455665 S    
C33   C37   1.561923 S    
C48   C52   1.386849 A    
Zn4   O2    1.951375 S    
Zn3   O44   1.947063 S    
C59   C67   1.404345 A    
H5    C35   1.108283 S    
O22   C1    1.280914 A    
C79   F39   1.358546 S    
Zn1   O6    1.939600 S    
C91   C92   1.393381 A    
C20   C95   1.439010 S    
C56   F24   1.358551 S    
O21   C2    1.280894 A    
N14   O79   1.300834 A    
Zn2   O1    1.951374 S    
C48   C88   1.404349 A    
O37   C17   1.273002 A    
C28   C38   1.583487 S    
Zn3   O8    1.940291 S    
C26   C27   1.577083 S    
Zn9   O37   1.948568 S    
Zn7   O19   1.938772 S    
O31   C12   1.281297 A    
O11   C7    1.282094 A    
Zn1   O13   1.939459 S    
C26   C37   1.583430 S    
N2    O56   1.301502 A    
C66   F26   1.358521 S    
C41   C53   1.387089 A    
H6    C35   1.109930 S    
N11   O74   1.301016 A    
O8    C4    1.282088 A    
C65   F25   1.358524 S    
Zn10  O2    1.954584 S    
C21   C37   1.491922 S    
C72   C76   1.386718 A    
C100  N16   1.433860 S    
C41   C81   1.404596 A    
O7    C3    1.282057 A    
C54   F22   1.358560 S    
C55   C63   1.404406 A    
C53   F21   1.358527 S    
C31   C40   1.584608 S    
N13   O78   1.301382 A    
Zn4   O7    1.940431 S    
C25   N1    1.478409 S    
Zn14  O32   1.938128 S    
N7    O65   1.301673 A    
C14   C86   1.455922 S    
C79   C87   1.404304 A    
N12   O75   1.301139 A    
C74   F34   1.358540 S    
C95   C99   1.407472 A    
C77   F37   1.358511 S    
C99   N15   1.439632 S    
C73   F33   1.358538 S    
Zn7   O12   1.940291 S    
C46   F14   1.358526 S    
Zn5   O17   1.939459 S    
Zn10  O23   1.937732 S    
N9    O70   1.301474 A    
O43   C22   1.278899 A    
C45   F13   1.358519 S    
O33   C14   1.281921 A    
C68   C80   1.386952 A    
O28   C7    1.281553 A    
C71   C75   1.386469 A    
N3    O57   1.301677 A    
C45   C49   1.386641 A    
Zn15  O51   1.947101 S    
C42   C54   1.387004 A    
C28   N4    1.479581 S    
C58   C66   1.404607 A    
C47   C87   1.404392 A    
Zn13  O1    1.954434 S    
C67   C79   1.386809 A    
C99   C100  1.393310 A    
Zn10  O38   1.947101 S    
Zn16  O4    1.951514 S    
C75   F35   1.358522 S    
O46   C23   1.279338 A    
Zn12  O4    1.954584 S    
Zn2   O5    1.939379 S    
Zn9   O21   1.938517 S    
Zn14  O50   1.948568 S    
O13   C9    1.282414 A    
C25   C37   1.584593 S    
C66   C78   1.386657 A    
Zn3   O15   1.938772 S    
C24   C40   1.491944 S    
C94   C98   1.407329 A    
Zn4   O16   1.938549 S    
Zn6   O18   1.939601 S    
O45   C23   1.278891 A    
C90   C93   1.406989 A    
C72   F32   1.358485 S    
C63   C71   1.404434 A    
C30   N6    1.479616 S    
C91   C96   1.406972 A    
O17   C13   1.282358 A    
Zn7   O4    1.951180 S    
C1    C60   1.455534 S    
C54   C62   1.404089 A    
C2    C59   1.455759 S    
O52   C20   1.273154 A    
C42   C82   1.404552 A    
C89   N9    1.439594 S    
O48   C24   1.278894 A    
N4    O60   1.301501 A    
N15   O81   1.301115 A    
O12   C8    1.282049 A    
C47   C51   1.386929 A    
C36   C40   1.561914 S    
O5    C1    1.280944 A    
Zn11  O39   1.948568 S    
N2    O55   1.301738 A    
Zn6   O45   1.946966 S    
O38   C18   1.276863 A    
C48   F16   1.358479 S    
H8    C36   1.109934 S    
C89   C94   1.407243 A    
N10   O72   1.300596 A    
C15   C87   1.455707 S    
O26   C5    1.280924 A    
O19   C15   1.281258 A    
C29   C32   1.577024 S    
C74   C82   1.404245 A    
C43   C83   1.404432 A    
C44   C56   1.386624 A    
C13   C85   1.455840 S    
C78   C86   1.404270 A    
C8    C61   1.455860 S    
C30   F6    1.392337 S    
Zn16  O36   1.938128 S    
C67   F27   1.358485 S    
N15   O82   1.301450 A    
C7    C62   1.455848 S    
O50   C18   1.272636 A    
O30   C9    1.281846 A    
N8    O68   1.301496 A    
N11   O73   1.301419 A    
O15   C11   1.281194 A    
N16   O83   1.300649 A    
Zn5   O3    1.951180 S    
C5    C64   1.455563 S    
O44   C22   1.279343 A    
C25   C28   1.577033 S    
C92   N12   1.435006 S    
C6    C63   1.455697 S    
C78   F38   1.358471 S    
C43   F11   1.358483 S    
C17   C94   1.439028 S    
C46   C86   1.404609 A    
Zn2   O14   1.939601 S    
C62   C70   1.404583 A    
Zn16  O52   1.948568 S    
N6    O63   1.301719 A    
N3    O58   1.301476 A    
C60   C68   1.404333 A    
O49   C17   1.275751 A    
Zn1   O42   1.947064 S    
C80   C88   1.404330 A    
Zn13  O29   1.937582 S    
C65   C77   1.386593 A    
C4    C57   1.455757 S    
N13   O77   1.300632 A    
C73   C81   1.404100 A    
O20   C16   1.281311 A    
C91   N11   1.437664 S    
C19   C96   1.440071 S    
Zn4   O43   1.946965 S    
C41   F9    1.358561 S    
Zn9   O22   1.938395 S    
Zn12  O40   1.947101 S    
N6    O64   1.301503 A    
C23   C39   1.492156 S    
Zn5   O46   1.947064 S    
Zn11  O25   1.938517 S    
C30   C39   1.583414 S    
Zn9   O1    1.951663 S    
Zn15  O33   1.937582 S    
O34   C13   1.281973 A    
O39   C19   1.272665 A    
N5    O61   1.301678 A    
C98   N14   1.434497 S    
O42   C21   1.278886 A    
Zn7   O48   1.947063 S    
C26   N2    1.479590 S    
O40   C20   1.275566 A    
N1    O53   1.301675 A    
Zn8   O47   1.946965 S    
Zn5   O10   1.939600 S    
O14   C10   1.282463 A    
C96   C100  1.406909 A    
N16   O84   1.300867 A    
C53   C61   1.404207 A    
Zn1   O1    1.951180 S    
C50   C58   1.404298 A    
C11   C83   1.455772 S    
Zn12  O28   1.937970 S    
C30   C31   1.577084 S    
C31   F7    1.390034 S    
C44   C84   1.404363 A    
Zn8   O11   1.940431 S    
C93   C97   1.407285 A    
C68   F28   1.358418 S    
H2    C33   1.109929 S    
C35   C39   1.561915 S    
C57   C65   1.404609 A    
O18   C14   1.282485 A    
C29   F5    1.390024 S    
N4    O59   1.301723 A    
C33   C34   1.530869 S    
H1    C33   1.108297 S    
O35   C16   1.281319 A    
O6    C2    1.280896 A    
C77   C85   1.404251 A    
C69   C73   1.386869 A    
C45   C85   1.404613 A    
C50   F18   1.358475 S    
O51   C19   1.276810 A    
C9    C81   1.455733 S    
N7    O66   1.301472 A    
C32   N8    1.479588 S    
