data_mof_unit_63927.cif
_audit_creation_date              2012-12-10T20:14:36-0500
_audit_creation_method            fapswitch 2.2
_symmetry_space_group_name_H-M    P1
_symmetry_Int_Tables_number       1
_space_group_crystal_system       triclinic
_cell_length_a                    35.435357
_cell_length_b                    35.458667
_cell_length_c                    21.933671
_cell_angle_alpha                 89.924215
_cell_angle_beta                  90.251527
_cell_angle_gamma                 90.100932
_cell_volume                      27559.1176166

loop_
_atom_site_label
_atom_site_type_symbol
_atom_type_description
_atom_site_fract_x
_atom_site_fract_y
_atom_site_fract_z
_atom_type_partial_charge
C1    C     C_R   0.073330 0.500035 0.500245 0.846938
C2    C     C_R   0.499913 0.926679 0.499827 0.847481
C3    C     C_R   0.926677 0.499963 0.500290 0.847150
C4    C     C_R   0.500047 0.073336 0.500204 0.846815
C5    C     C_R   0.573333 0.000036 0.000251 0.846865
C6    C     C_R   0.999912 0.426677 0.999816 0.847410
C7    C     C_R   0.426674 0.999963 0.000302 0.847062
C8    C     C_R   0.000047 0.573339 0.000207 0.846741
C9    C     C_R   0.307326 0.496218 0.508776 -0.098281
C10   C     C_R   0.492503 0.692959 0.507956 -0.093407
C11   C     C_R   0.692757 0.504961 0.510412 -0.098422
C12   C     C_R   0.503206 0.307313 0.508832 -0.095323
C13   C     C_R   0.807364 0.996149 0.008896 -0.098158
C14   C     C_R   0.992221 0.192931 0.008123 -0.093367
C15   C     C_R   0.192703 0.005003 0.010632 -0.098428
C16   C     C_R   0.003284 0.807354 0.008972 -0.095348
C17   C     C_1   0.266704 0.496978 0.509177 -0.041089
C18   C     C_1   0.492771 0.733527 0.507488 -0.039331
C19   C     C_1   0.733426 0.503864 0.510277 -0.041834
C20   C     C_1   0.502622 0.266687 0.509571 -0.039585
C21   C     C_1   0.766730 0.996955 0.009301 -0.041056
C22   C     C_1   0.992542 0.233508 0.007568 -0.039266
C23   C     C_1   0.233394 0.003841 0.010508 -0.041737
C24   C     C_1   0.002656 0.766715 0.009687 -0.039431
C25   C     C_1   0.232845 0.497681 0.508119 -0.085973
C26   C     C_1   0.493948 0.767336 0.506705 -0.087449
C27   C     C_1   0.767267 0.503013 0.508698 -0.085620
C28   C     C_1   0.502046 0.232836 0.508779 -0.086887
C29   C     C_1   0.732867 0.997672 0.008218 -0.085944
C30   C     C_1   0.993764 0.267319 0.006725 -0.087384
C31   C     C_1   0.267240 0.002987 0.008868 -0.085586
C32   C     C_1   0.002065 0.732860 0.008847 -0.086839
C33   C     C_R   0.172734 0.517341 0.551777 -0.155615
C34   C     C_R   0.515198 0.827120 0.550767 -0.155179
C35   C     C_R   0.827546 0.482937 0.551914 -0.154633
C36   C     C_R   0.482941 0.172343 0.552424 -0.155318
C37   C     C_R   0.826272 0.519808 0.458166 -0.156060
C38   C     C_R   0.478248 0.826808 0.456816 -0.155140
C39   C     C_R   0.173583 0.480583 0.457946 -0.155485
C40   C     C_R   0.519443 0.173904 0.458607 -0.154617
C41   C     C_R   0.672739 0.017342 0.051829 -0.155560
C42   C     C_R   0.015104 0.327091 0.050738 -0.155120
C43   C     C_R   0.327549 0.982920 0.052005 -0.154549
C44   C     C_R   0.982946 0.672353 0.052448 -0.155250
C45   C     C_R   0.326240 0.019793 0.958263 -0.156069
C46   C     C_R   0.978161 0.326817 0.956783 -0.155154
C47   C     C_R   0.673604 0.980580 0.958006 -0.155479
C48   C     C_R   0.019449 0.673920 0.958634 -0.154608
C49   C     C_R   0.133320 0.518402 0.549392 -0.200311
C50   C     C_R   0.517265 0.866480 0.548490 -0.201059
C51   C     C_R   0.866929 0.481643 0.549442 -0.200966
C52   C     C_R   0.482071 0.132958 0.549920 -0.199377
C53   C     C_R   0.865656 0.519099 0.456253 -0.200717
C54   C     C_R   0.479731 0.866159 0.455092 -0.200207
C55   C     C_R   0.134179 0.481058 0.456121 -0.201526
C56   C     C_R   0.519161 0.134513 0.456662 -0.201450
C57   C     C_R   0.633323 0.018405 0.049424 -0.200278
C58   C     C_R   0.017225 0.366450 0.048453 -0.201089
C59   C     C_R   0.366933 0.981633 0.049502 -0.200923
C60   C     C_R   0.982071 0.632967 0.049933 -0.199351
C61   C     C_R   0.365626 0.019092 0.956321 -0.200641
C62   C     C_R   0.979698 0.366169 0.955052 -0.200092
C63   C     C_R   0.634198 0.981057 0.956161 -0.201466
C64   C     C_R   0.019162 0.634527 0.956679 -0.201375
C65   C     C_R   0.114176 0.500061 0.501699 -0.007921
C66   C     C_R   0.499394 0.885867 0.500768 -0.008293
C67   C     C_R   0.885853 0.499976 0.501720 -0.008088
C68   C     C_R   0.500278 0.114162 0.502146 -0.008529
C69   C     C_R   0.614185 0.000061 0.001724 -0.007988
C70   C     C_R   0.999382 0.385859 0.000728 -0.008353
C71   C     C_R   0.385843 0.999972 0.001768 -0.008171
C72   C     C_R   0.000278 0.614170 0.002156 -0.008598
C73   C     C_R   0.192673 0.498523 0.505983 0.157125
C74   C     C_R   0.495722 0.807473 0.504881 0.157602
C75   C     C_R   0.807407 0.501904 0.506262 0.157006
C76   C     C_R   0.501517 0.192651 0.506633 0.157019
C77   C     C_R   0.692689 0.998521 0.006049 0.157077
C78   C     C_R   0.995602 0.307461 0.004858 0.157527
C79   C     C_R   0.307388 0.001882 0.006374 0.156938
C80   C     C_R   0.001525 0.692668 0.006665 0.156953
C81   C     C_R   0.499114 0.573078 0.500195 0.912610
C82   C     C_R   0.573050 0.500098 0.500355 0.919123
C83   C     C_R   0.500177 0.426988 0.500259 0.914323
C84   C     C_R   0.426996 0.499921 0.499952 0.910225
C85   C     C_R   0.999102 0.073076 0.000221 0.913469
C86   C     C_R   0.073042 0.000143 0.000372 0.920518
C87   C     C_R   0.000238 0.926994 0.000278 0.915281
C88   C     C_R   0.927002 0.999860 0.999961 0.911026
C89   C     C_R   0.000063 0.500001 0.379868 0.874951
C90   C     C_R   0.499931 0.000022 0.379844 0.874690
C91   C     C_R   0.999985 0.499997 0.620372 0.874070
C92   C     C_R   0.500063 0.000047 0.620374 0.874988
C93   C     C_R   0.500063 0.000001 0.879869 0.874979
C94   C     C_R   0.999931 0.500022 0.879843 0.874683
C95   C     C_R   0.499985 0.999997 0.120373 0.874059
C96   C     C_R   0.000063 0.500047 0.120373 0.875000
C97   C     C_R   0.944122 0.541778 0.313140 -0.147126
C98   C     C_R   0.541905 0.056133 0.313787 -0.147185
C99   C     C_R   0.056054 0.458259 0.313850 -0.148037
C100  C     C_R   0.457635 0.944119 0.313203 -0.148379
C101  C     C_R   0.050557 0.549214 0.688562 -0.148472
C102  C     C_R   0.451187 0.050572 0.687944 -0.148393
C103  C     C_R   0.949277 0.450896 0.687811 -0.148571
C104  C     C_R   0.549089 0.949618 0.688512 -0.148565
C105  C     C_R   0.444101 0.041750 0.813147 -0.147113
C106  C     C_R   0.041917 0.556125 0.813785 -0.147180
C107  C     C_R   0.556076 0.958289 0.813857 -0.148026
C108  C     C_R   0.957621 0.444129 0.813200 -0.148385
C109  C     C_R   0.550547 0.049225 0.188564 -0.148475
C110  C     C_R   0.951213 0.550594 0.187937 -0.148398
C111  C     C_R   0.449289 0.950882 0.187815 -0.148578
C112  C     C_R   0.049060 0.449594 0.188505 -0.148564
C113  C     C_R   0.919746 0.566012 0.281774 -0.149647
C114  C     C_R   0.566168 0.080624 0.282749 -0.149956
C115  C     C_R   0.080480 0.434093 0.282798 -0.149201
C116  C     C_R   0.433426 0.919649 0.281821 -0.148551
C117  C     C_R   0.070971 0.576502 0.720328 -0.146455
C118  C     C_R   0.423900 0.070883 0.719379 -0.147127
C119  C     C_R   0.928713 0.423658 0.719288 -0.147878
C120  C     C_R   0.576376 0.929289 0.720328 -0.147292
C121  C     C_R   0.419711 0.065972 0.781782 -0.149644
C122  C     C_R   0.066185 0.580608 0.782746 -0.149950
C123  C     C_R   0.580517 0.934136 0.782807 -0.149188
C124  C     C_R   0.933406 0.419666 0.781817 -0.148543
C125  C     C_R   0.570954 0.076519 0.220331 -0.146454
C126  C     C_R   0.923938 0.570920 0.219371 -0.147137
C127  C     C_R   0.428731 0.923639 0.219292 -0.147882
C128  C     C_R   0.076335 0.429249 0.220318 -0.147306
C129  C     C_R   0.974904 0.524093 0.218326 0.081675
C130  C     C_R   0.524009 0.025386 0.218638 0.081434
C131  C     C_R   0.025360 0.476058 0.218625 0.081664
C132  C     C_R   0.475772 0.974713 0.218288 0.081701
C133  C     C_R   0.021855 0.527187 0.782660 0.080020
C134  C     C_R   0.473042 0.021867 0.782350 0.080040
C135  C     C_R   0.977816 0.473012 0.782353 0.079585
C136  C     C_R   0.527153 0.978205 0.782685 0.080008
C137  C     C_R   0.474892 0.024081 0.718330 0.081683
C138  C     C_R   0.024014 0.525380 0.718636 0.081429
C139  C     C_R   0.525374 0.976071 0.718629 0.081674
C140  C     C_R   0.975766 0.474719 0.718286 0.081697
C141  C     C_R   0.521849 0.027191 0.282662 0.080016
C142  C     C_R   0.973054 0.521880 0.282347 0.080053
C143  C     C_R   0.477823 0.973006 0.282355 0.079580
C144  C     C_R   0.027140 0.478191 0.282681 0.080018
C145  C     C_R   0.000146 0.500095 0.186614 -0.215634
C146  C     C_R   0.499942 0.000021 0.186624 -0.215348
C147  C     C_R   0.999815 0.500091 0.813987 -0.208784
C148  C     C_R   0.500078 0.000009 0.814014 -0.208786
C149  C     C_R   0.500147 0.000095 0.686617 -0.215651
C150  C     C_R   0.999942 0.500022 0.686622 -0.215335
C151  C     C_R   0.499816 0.000091 0.313988 -0.208773
C152  C     C_R   0.000078 0.500009 0.314012 -0.208804
C153  C     C_R   0.327386 0.521284 0.548028 0.192207
C154  C     C_R   0.514339 0.673503 0.553273 0.181582
C155  C     C_R   0.672931 0.481348 0.552476 0.191131
C156  C     C_R   0.480801 0.327392 0.552060 0.186831
C157  C     C_R   0.673686 0.529305 0.468038 0.180441
C158  C     C_R   0.471304 0.673710 0.461953 0.179779
C159  C     C_R   0.326026 0.471106 0.467828 0.179883
C160  C     C_R   0.526208 0.326045 0.464292 0.179745
C161  C     C_R   0.827446 0.021119 0.048329 0.192138
C162  C     C_R   0.013771 0.173459 0.053920 0.181022
C163  C     C_R   0.172846 0.981562 0.053021 0.191019
C164  C     C_R   0.981088 0.827461 0.052552 0.186589
C165  C     C_R   0.173629 0.029363 0.968124 0.180455
C166  C     C_R   0.971198 0.173679 0.961832 0.179754
C167  C     C_R   0.826060 0.971018 0.967901 0.179907
C168  C     C_R   0.026244 0.826082 0.964233 0.179848
C169  C     C_R   0.367105 0.524352 0.541390 0.150092
C170  C     C_R   0.518613 0.633551 0.548313 0.159186
C171  C     C_R   0.633149 0.477719 0.545833 0.149629
C172  C     C_R   0.477340 0.367165 0.545738 0.151973
C173  C     C_R   0.633625 0.526644 0.463929 0.148176
C174  C     C_R   0.474273 0.633906 0.459436 0.138308
C175  C     C_R   0.365920 0.473638 0.463536 0.143871
C176  C     C_R   0.524303 0.366055 0.461435 0.144175
C177  C     C_R   0.867157 0.024245 0.041591 0.149672
C178  C     C_R   0.018229 0.133497 0.049018 0.159695
C179  C     C_R   0.133074 0.977854 0.046252 0.149082
C180  C     C_R   0.977535 0.867229 0.046169 0.151719
C181  C     C_R   0.133515 0.026841 0.964087 0.149445
C182  C     C_R   0.974182 0.133867 0.959436 0.138838
C183  C     C_R   0.865980 0.973483 0.963651 0.144376
C184  C     C_R   0.024428 0.866121 0.961475 0.144885
C185  C     C_R   0.385804 0.499827 0.500327 -0.243940
C186  C     C_R   0.497916 0.614444 0.501683 -0.251490
C187  C     C_R   0.614281 0.500618 0.501795 -0.245297
C188  C     C_R   0.499964 0.385798 0.501271 -0.247083
C189  C     C_R   0.885830 0.999759 0.000374 -0.244222
C190  C     C_R   0.997799 0.114430 0.001889 -0.252943
C191  C     C_R   0.114243 0.000672 0.001895 -0.245995
C192  C     C_R   0.000043 0.885826 0.001376 -0.247886
H1    H     H_    0.102013 0.418976 0.307197 0.133046
H2    H     H_    0.418122 0.898125 0.305996 0.132508
H3    H     H_    0.898204 0.581113 0.305835 0.133077
H4    H     H_    0.581337 0.102168 0.307087 0.132972
H5    H     H_    0.909275 0.405378 0.695023 0.132787
H6    H     H_    0.594631 0.909877 0.696358 0.132952
H7    H     H_    0.090469 0.594827 0.696335 0.132575
H8    H     H_    0.405663 0.090324 0.695149 0.133005
H9    H     H_    0.602059 0.919032 0.807207 0.133048
H10   H     H_    0.918095 0.398146 0.805991 0.132504
H11   H     H_    0.398160 0.081059 0.805843 0.133080
H12   H     H_    0.081360 0.602150 0.807084 0.132974
H13   H     H_    0.409299 0.905353 0.195029 0.132794
H14   H     H_    0.094578 0.409827 0.196348 0.132959
H15   H     H_    0.590448 0.094849 0.196339 0.132577
H16   H     H_    0.905711 0.590370 0.195140 0.133010
H17   H     H_    0.939351 0.538902 0.361571 0.140933
H18   H     H_    0.539127 0.060807 0.362259 0.141088
H19   H     H_    0.060727 0.461017 0.362367 0.140874
H20   H     H_    0.460302 0.939553 0.361745 0.140869
H21   H     H_    0.056494 0.546783 0.640479 0.147489
H22   H     H_    0.453660 0.056576 0.639860 0.147206
H23   H     H_    0.943456 0.453236 0.639597 0.147642
H24   H     H_    0.546615 0.943635 0.640390 0.147974
H25   H     H_    0.439333 0.038871 0.861579 0.140917
H26   H     H_    0.039138 0.560801 0.862256 0.141105
H27   H     H_    0.560745 0.961048 0.862376 0.140852
H28   H     H_    0.960287 0.439562 0.861741 0.140870
H29   H     H_    0.556486 0.046796 0.140482 0.147499
H30   H     H_    0.953688 0.556591 0.139852 0.147183
H31   H     H_    0.443465 0.953221 0.139601 0.147648
H32   H     H_    0.046581 0.443615 0.140380 0.147963
H33   H     H_    0.187466 0.530895 0.588906 0.130605
H34   H     H_    0.528443 0.812176 0.587892 0.130219
H35   H     H_    0.812976 0.469392 0.589125 0.130168
H36   H     H_    0.469399 0.186794 0.589554 0.130579
H37   H     H_    0.810727 0.534087 0.422811 0.132059
H38   H     H_    0.463620 0.811669 0.421251 0.129582
H39   H     H_    0.188964 0.466422 0.422466 0.131860
H40   H     H_    0.533447 0.189564 0.423106 0.129857
H41   H     H_    0.687464 0.030896 0.088966 0.130597
H42   H     H_    0.028324 0.312133 0.087873 0.130237
H43   H     H_    0.312993 0.969371 0.089229 0.130168
H44   H     H_    0.969407 0.686801 0.089584 0.130565
H45   H     H_    0.310682 0.034070 0.922924 0.132020
H46   H     H_    0.963511 0.311697 0.921223 0.129566
H47   H     H_    0.688990 0.966415 0.922536 0.131839
H48   H     H_    0.033456 0.689581 0.923140 0.129816
H49   H     H_    0.117954 0.532550 0.584888 0.127701
H50   H     H_    0.531809 0.881622 0.584122 0.127868
H51   H     H_    0.882451 0.467411 0.584858 0.127682
H52   H     H_    0.467999 0.117333 0.585350 0.127295
H53   H     H_    0.880156 0.533001 0.419382 0.126083
H54   H     H_    0.466089 0.881004 0.418318 0.125833
H55   H     H_    0.119542 0.467178 0.419292 0.126096
H56   H     H_    0.532944 0.120134 0.419738 0.126114
H57   H     H_    0.617951 0.032554 0.084911 0.127698
H58   H     H_    0.031781 0.381576 0.084090 0.127864
H59   H     H_    0.382467 0.967404 0.084905 0.127673
H60   H     H_    0.967998 0.617340 0.085360 0.127280
H61   H     H_    0.380112 0.032998 0.919438 0.126074
H62   H     H_    0.966071 0.381027 0.918278 0.125811
H63   H     H_    0.619568 0.967174 0.919327 0.126087
H64   H     H_    0.032945 0.620151 0.919752 0.126110
O1    O     O_R   0.055450 0.468680 0.499980 -0.619985
O2    O     O_R   0.468680 0.944550 0.499980 -0.619853
O3    O     O_R   0.944550 0.531320 0.499980 -0.619797
O4    O     O_R   0.531320 0.055450 0.499980 -0.620091
O5    O     O_R   0.944550 0.468680 0.500020 -0.621710
O6    O     O_R   0.531320 0.944550 0.500020 -0.621668
O7    O     O_R   0.055450 0.531320 0.500020 -0.621532
O8    O     O_R   0.468680 0.055450 0.500020 -0.621502
O9    O     O_R   0.555450 0.968680 0.999980 -0.619954
O10   O     O_R   0.968680 0.444550 0.999980 -0.619826
O11   O     O_R   0.444550 0.031320 0.999980 -0.619767
O12   O     O_R   0.031320 0.555450 0.999980 -0.620070
O13   O     O_R   0.444550 0.968680 0.000020 -0.621677
O14   O     O_R   0.031320 0.444550 0.000020 -0.621647
O15   O     O_R   0.555450 0.031320 0.000020 -0.621510
O16   O     O_R   0.968680 0.555450 0.000020 -0.621472
O17   O     O_R   0.000010 0.468680 0.408370 -0.620621
O18   O     O_R   0.468680 0.999990 0.408370 -0.621100
O19   O     O_R   0.999990 0.531320 0.408370 -0.620514
O20   O     O_R   0.531320 0.000010 0.408370 -0.620653
O21   O     O_R   0.999990 0.468680 0.591630 -0.622548
O22   O     O_R   0.531320 0.999990 0.591630 -0.622556
O23   O     O_R   0.000010 0.531320 0.591630 -0.622626
O24   O     O_R   0.468680 0.000010 0.591630 -0.622248
O25   O     O_R   0.500010 0.968680 0.908370 -0.620598
O26   O     O_R   0.968680 0.499990 0.908370 -0.621100
O27   O     O_R   0.499990 0.031320 0.908370 -0.620494
O28   O     O_R   0.031320 0.500010 0.908370 -0.620652
O29   O     O_R   0.499990 0.968680 0.091630 -0.622551
O30   O     O_R   0.031320 0.499990 0.091630 -0.622538
O31   O     O_R   0.500010 0.031320 0.091630 -0.622629
O32   O     O_R   0.968680 0.500010 0.091630 -0.622237
O33   O     O_R   0.500050 0.555340 0.448290 -0.600770
O34   O     O_R   0.555340 0.499950 0.448290 -0.603507
O35   O     O_R   0.499950 0.444660 0.448290 -0.602995
O36   O     O_R   0.444660 0.500050 0.448290 -0.610214
O37   O     O_R   0.499950 0.555340 0.551710 -0.614430
O38   O     O_R   0.444660 0.499950 0.551710 -0.629058
O39   O     O_R   0.500050 0.444660 0.551710 -0.624466
O40   O     O_R   0.555340 0.500050 0.551710 -0.624609
O41   O     O_R   0.000050 0.055340 0.948290 -0.599990
O42   O     O_R   0.055340 0.999950 0.948290 -0.603354
O43   O     O_R   0.999950 0.944660 0.948290 -0.602588
O44   O     O_R   0.944660 0.000050 0.948290 -0.609900
O45   O     O_R   0.999950 0.055340 0.051710 -0.614250
O46   O     O_R   0.944660 0.999950 0.051710 -0.629405
O47   O     O_R   0.000050 0.944660 0.051710 -0.624613
O48   O     O_R   0.055340 0.000050 0.051710 -0.624915
Zn1   Zn    Zn3+2 0.000000 0.458180 0.500000 0.955403
Zn2   Zn    Zn3+2 0.458180 0.000000 0.500000 0.955725
Zn3   Zn    Zn3+2 0.000000 0.541820 0.500000 0.955394
Zn4   Zn    Zn3+2 0.541820 0.000000 0.500000 0.955605
Zn5   Zn    Zn3+2 0.500000 0.958180 0.000000 0.955447
Zn6   Zn    Zn3+2 0.958180 0.500000 0.000000 0.955757
Zn7   Zn    Zn3+2 0.500000 0.041820 0.000000 0.955424
Zn8   Zn    Zn3+2 0.041820 0.500000 0.000000 0.955632
Zn9   Zn    Zn3+2 0.500000 0.500000 0.430910 0.954421
Zn10  Zn    Zn3+2 0.500000 0.500000 0.569090 0.916178
Zn11  Zn    Zn3+2 0.000000 0.000000 0.930910 0.955141
Zn12  Zn    Zn3+2 0.000000 0.000000 0.069090 0.915978
N1    N     N_2   0.306877 0.540051 0.596436 -0.295860
H65   H     H_    0.277888 0.541452 0.592581 0.228497
C193  C     C_3   0.322463 0.569921 0.634079 -0.732480
H66   H     H_    0.301244 0.578803 0.668240 0.211777
H67   H     H_    0.328649 0.595232 0.605960 0.249043
H68   H     H_    0.346868 0.559769 0.661404 0.255277
N2    N     N_2   0.528284 0.694846 0.604966 -0.295283
H69   H     H_    0.526840 0.723824 0.602601 0.230800
C194  C     C_3   0.558811 0.682195 0.644245 -0.746706
H70   H     H_    0.565070 0.704130 0.678963 0.213669
H71   H     H_    0.585155 0.678416 0.617684 0.246945
H72   H     H_    0.550516 0.657205 0.671586 0.251858
N3    N     N_2   0.693724 0.465195 0.603131 -0.296027
H73   H     H_    0.722716 0.464378 0.600079 0.229155
C195  C     C_3   0.678774 0.436715 0.643800 -0.737915
H74   H     H_    0.700209 0.429825 0.679154 0.212827
H75   H     H_    0.673231 0.410087 0.618593 0.248681
H76   H     H_    0.654169 0.447403 0.669694 0.253950
N4    N     N_2   0.465174 0.306785 0.603315 -0.295814
H77   H     H_    0.463285 0.277910 0.599374 0.229215
C196  C     C_3   0.438054 0.322239 0.645667 -0.736399
H78   H     H_    0.431413 0.300855 0.681122 0.213183
H79   H     H_    0.411017 0.328593 0.621968 0.248743
H80   H     H_    0.449929 0.346557 0.671222 0.252076
N5    N     N_2   0.695643 0.555427 0.431766 -0.293003
H81   H     H_    0.723871 0.557255 0.443127 0.234580
C197  C     C_3   0.681715 0.593004 0.418343 -0.770164
H82   H     H_    0.704311 0.609840 0.396305 0.221165
H83   H     H_    0.673446 0.607629 0.460897 0.239355
H84   H     H_    0.658635 0.592284 0.384415 0.262101
N6    N     N_2   0.448566 0.694842 0.418847 -0.295687
H85   H     H_    0.448982 0.723869 0.421925 0.231622
C198  C     C_3   0.411354 0.681050 0.400581 -0.760831
H86   H     H_    0.394401 0.704376 0.380841 0.218154
H87   H     H_    0.395689 0.670294 0.440660 0.241705
H88   H     H_    0.413841 0.659741 0.363816 0.258495
N7    N     N_2   0.303928 0.444696 0.432233 -0.293328
H89   H     H_    0.275762 0.442847 0.443387 0.234328
C199  C     C_3   0.318113 0.407140 0.419045 -0.771374
H90   H     H_    0.295055 0.389474 0.399948 0.220413
H91   H     H_    0.328105 0.393359 0.461487 0.240043
H92   H     H_    0.339753 0.408041 0.382923 0.264392
N8    N     N_2   0.549826 0.304018 0.424082 -0.295066
H93   H     H_    0.549958 0.275199 0.430561 0.233026
C200  C     C_3   0.587329 0.317050 0.407242 -0.765007
H94   H     H_    0.603180 0.293828 0.385224 0.219583
H95   H     H_    0.603418 0.325958 0.448245 0.241676
H96   H     H_    0.585795 0.339572 0.372358 0.257827
N9    N     N_2   0.806965 0.039694 0.096962 -0.295915
H97   H     H_    0.777990 0.041230 0.093047 0.228488
C201  C     C_3   0.822661 0.069185 0.135231 -0.732500
H98   H     H_    0.801472 0.077864 0.169589 0.211875
H99   H     H_    0.828943 0.094705 0.107650 0.249247
H100  H     H_    0.847042 0.058730 0.162312 0.254888
N10   N     N_2   0.027202 0.194802 0.105942 -0.295293
H101  H     H_    0.025670 0.223768 0.103622 0.230813
C202  C     C_3   0.057343 0.182185 0.146047 -0.746053
H102  H     H_    0.063205 0.204114 0.180968 0.213456
H103  H     H_    0.083979 0.178431 0.120213 0.247050
H104  H     H_    0.048853 0.157193 0.173232 0.251023
N11   N     N_2   0.193593 0.965729 0.103993 -0.296106
H105  H     H_    0.222569 0.964761 0.100897 0.229134
C203  C     C_3   0.178508 0.937842 0.145547 -0.737614
H106  H     H_    0.199907 0.931309 0.181154 0.212909
H107  H     H_    0.172849 0.910919 0.121203 0.248919
H108  H     H_    0.153918 0.948923 0.171043 0.253296
N12   N     N_2   0.965794 0.806892 0.104117 -0.295871
H109  H     H_    0.963814 0.778035 0.100198 0.229233
C204  C     C_3   0.939220 0.822428 0.147254 -0.736266
H110  H     H_    0.932943 0.801066 0.182933 0.213285
H111  H     H_    0.911927 0.828869 0.124366 0.248914
H112  H     H_    0.951416 0.846737 0.172434 0.251411
N13   N     N_2   0.195661 0.055422 0.931813 -0.293043
H113  H     H_    0.223910 0.057134 0.943115 0.234541
C205  C     C_3   0.181876 0.093032 0.918366 -0.768838
H114  H     H_    0.204425 0.109670 0.895832 0.221159
H115  H     H_    0.173828 0.107810 0.960911 0.239525
H116  H     H_    0.158595 0.092418 0.884806 0.261140
N14   N     N_2   0.948600 0.194811 0.918496 -0.295693
H117  H     H_    0.949063 0.223837 0.921526 0.231610
C206  C     C_3   0.911397 0.181099 0.899916 -0.760495
H118  H     H_    0.894626 0.204413 0.879736 0.218178
H119  H     H_    0.895521 0.170531 0.939905 0.241721
H120  H     H_    0.913926 0.159630 0.863402 0.257868
N15   N     N_2   0.803919 0.944636 0.932303 -0.293412
H121  H     H_    0.775743 0.942859 0.943434 0.234320
C207  C     C_3   0.818006 0.907052 0.919100 -0.770821
H122  H     H_    0.794955 0.889527 0.899654 0.220465
H123  H     H_    0.827806 0.893155 0.961560 0.240062
H124  H     H_    0.839795 0.907890 0.883221 0.263841
N16   N     N_2   0.049749 0.804006 0.923888 -0.295061
H125  H     H_    0.049774 0.775179 0.930274 0.232964
C208  C     C_3   0.087264 0.816908 0.906864 -0.764046
H126  H     H_    0.102906 0.793706 0.884405 0.219570
H127  H     H_    0.103531 0.825630 0.947805 0.241807
H128  H     H_    0.085778 0.839596 0.872266 0.257043
N17   N     N_2   0.388980 0.548528 0.580420 -0.290398
H129  H     H_    0.403784 0.537026 0.615799 0.246722
C209  C     C_3   0.397829 0.586842 0.563309 -0.805165
H130  H     H_    0.402064 0.604518 0.604337 0.233718
H131  H     H_    0.374710 0.599722 0.536093 0.241841
H132  H     H_    0.425912 0.586786 0.541526 0.250565
N18   N     N_2   0.539468 0.611688 0.592272 -0.272898
H133  H     H_    0.526613 0.604233 0.631890 0.237676
C210  C     C_3   0.579430 0.606101 0.588400 -0.802463
H134  H     H_    0.593016 0.606484 0.633831 0.225372
H135  H     H_    0.593685 0.627471 0.560574 0.240884
H136  H     H_    0.584755 0.576784 0.573075 0.252925
N19   N     N_2   0.611056 0.455557 0.587734 -0.284192
H137  H     H_    0.598617 0.468482 0.623760 0.244010
C211  C     C_3   0.603552 0.416121 0.578266 -0.805321
H138  H     H_    0.602058 0.400839 0.622227 0.230184
H139  H     H_    0.625717 0.402348 0.550994 0.242307
H140  H     H_    0.574442 0.413194 0.559954 0.252263
N20   N     N_2   0.455950 0.389324 0.588290 -0.283978
H141  H     H_    0.469451 0.401488 0.624133 0.244430
C212  C     C_3   0.416629 0.398079 0.579529 -0.801349
H142  H     H_    0.402296 0.401711 0.623756 0.229569
H143  H     H_    0.401585 0.375436 0.554813 0.240211
H144  H     H_    0.414540 0.426588 0.558963 0.254659
N21   N     N_2   0.612437 0.551249 0.425538 -0.290717
H145  H     H_    0.611702 0.547782 0.379335 0.234282
C213  C     C_3   0.592600 0.582327 0.452656 -0.759093
H146  H     H_    0.582681 0.602799 0.417794 0.229508
H147  H     H_    0.612522 0.597585 0.482646 0.235571
H148  H     H_    0.567953 0.572137 0.477737 0.255640
N22   N     N_2   0.455203 0.613301 0.412099 -0.279819
H149  H     H_    0.464327 0.616440 0.367786 0.232550
C214  C     C_3   0.421884 0.590955 0.425232 -0.753586
H150  H     H_    0.407346 0.582317 0.382764 0.225236
H151  H     H_    0.401435 0.608121 0.450483 0.233527
H152  H     H_    0.429501 0.564953 0.449609 0.262412
N23   N     N_2   0.386062 0.451017 0.420861 -0.287354
H153  H     H_    0.384501 0.457266 0.375256 0.233282
C215  C     C_3   0.407884 0.418949 0.441306 -0.755283
H154  H     H_    0.416830 0.401198 0.402455 0.227500
H155  H     H_    0.389889 0.400947 0.469921 0.236774
H156  H     H_    0.433413 0.428354 0.465300 0.257713
N24   N     N_2   0.547156 0.386797 0.419492 -0.285278
H157  H     H_    0.541429 0.385820 0.373670 0.233039
C216  C     C_3   0.579937 0.406900 0.441513 -0.753427
H158  H     H_    0.598637 0.415515 0.403503 0.227300
H159  H     H_    0.596641 0.387501 0.470174 0.234620
H160  H     H_    0.571665 0.432626 0.465955 0.255998
N25   N     N_2   0.889098 0.048233 0.080928 -0.290258
H161  H     H_    0.903796 0.036555 0.116188 0.247006
C217  C     C_3   0.897984 0.086643 0.064494 -0.805278
H162  H     H_    0.902251 0.104045 0.105816 0.233408
H163  H     H_    0.874896 0.099740 0.037540 0.241988
H164  H     H_    0.926087 0.086714 0.042744 0.250796
N26   N     N_2   0.038708 0.111604 0.093480 -0.271434
H165  H     H_    0.025497 0.104452 0.132996 0.237329
C218  C     C_3   0.078677 0.106113 0.091093 -0.803064
H166  H     H_    0.091691 0.106590 0.136904 0.224712
H167  H     H_    0.093331 0.127308 0.063594 0.241141
H168  H     H_    0.084322 0.076778 0.076200 0.252742
N27   N     N_2   0.110886 0.955985 0.088582 -0.283797
H169  H     H_    0.098619 0.969201 0.124371 0.244262
C219  C     C_3   0.103348 0.916485 0.080210 -0.805788
H170  H     H_    0.101801 0.901654 0.124554 0.229750
H171  H     H_    0.125436 0.902370 0.053337 0.242633
H172  H     H_    0.074224 0.913398 0.062005 0.252472
N28   N     N_2   0.956455 0.889463 0.089134 -0.283442
H173  H     H_    0.970229 0.901399 0.124806 0.244561
C220  C     C_3   0.917078 0.898245 0.081506 -0.801652
H174  H     H_    0.903213 0.901903 0.126109 0.229065
H175  H     H_    0.901730 0.875679 0.057207 0.240470
H176  H     H_    0.914774 0.926777 0.061060 0.254890
N29   N     N_2   0.112240 0.052009 0.926784 -0.291524
H177  H     H_    0.110987 0.049244 0.880539 0.234629
C221  C     C_3   0.092872 0.082839 0.955300 -0.760101
H178  H     H_    0.083128 0.104094 0.921432 0.229458
H179  H     H_    0.113078 0.097310 0.985919 0.235526
H180  H     H_    0.068228 0.072600 0.980248 0.255057
N30   N     N_2   0.954851 0.113149 0.912449 -0.280010
H181  H     H_    0.963692 0.116137 0.867965 0.232543
C222  C     C_3   0.921503 0.091038 0.926305 -0.753281
H182  H     H_    0.906539 0.082470 0.884161 0.225351
H183  H     H_    0.901419 0.108418 0.951963 0.233696
H184  H     H_    0.929149 0.065013 0.950626 0.261813
N31   N     N_2   0.886217 0.950455 0.921683 -0.288001
H185  H     H_    0.884917 0.956232 0.875932 0.233435
C223  C     C_3   0.907730 0.918467 0.943171 -0.755445
H186  H     H_    0.916576 0.900136 0.904931 0.227707
H187  H     H_    0.889486 0.901026 0.972335 0.236965
H188  H     H_    0.933268 0.927934 0.967066 0.256978
N32   N     N_2   0.047723 0.886932 0.920236 -0.285938
H189  H     H_    0.042419 0.886366 0.874305 0.233288
C224  C     C_3   0.080394 0.906697 0.943311 -0.753863
H190  H     H_    0.099710 0.915117 0.905948 0.227458
H191  H     H_    0.096497 0.887055 0.972527 0.234761
H192  H     H_    0.072105 0.932454 0.967619 0.255320

loop_
_geom_bond_atom_site_label_1
_geom_bond_atom_site_label_2
_ccdc_geom_bond_type
C205  H116  S    
O14   Zn8   S    
C211  H138  S    
C5    O9    A    
C103  H23   S    
C6    O14   A    
C113  H3    S    
N19   H137  S    
C85   O45   A    
C136  C148  A    
C10   C154  A    
C196  H78   S    
O11   Zn7   S    
N21   H145  S    
C96   C145  S    
C56   H56   S    
O18   Zn2   S    
C114  H4    S    
C182  N30   S    
O4    Zn4   S    
C35   H35   S    
C15   C163  A    
C207  H123  S    
C33   H33   S    
C44   H44   S    
C98   C114  A    
C130  C146  A    
C60   C72   A    
C154  C170  A    
C216  H158  S    
C130  C141  A    
O47   Zn12  S    
C155  N3    S    
C158  C174  A    
C106  C133  A    
C101  H21   S    
C3    O5    A    
C177  C189  A    
C18   C26   T    
C40   H40   S    
C129  C145  A    
O37   Zn10  S    
C117  H7    S    
C94   O26   A    
C61   C71   A    
C143  C151  A    
C37   C75   A    
N17   C209  S    
C89   O17   A    
C112  H32   S    
C42   C58   A    
C84   C185  S    
C95   C146  S    
C128  H14   S    
C108  C124  A    
C27   C75   S    
C183  C189  A    
C55   C65   A    
C176  C188  A    
N32   C224  S    
C88   C189  S    
C200  H96   S    
C165  N13   S    
O29   Zn5   S    
C5    O15   A    
N2    H69   S    
C88   O46   A    
C104  H24   S    
C202  H104  S    
N4    C196  S    
O3    Zn3   S    
C58   C70   A    
C129  C142  A    
C20   C28   T    
C218  H166  S    
C21   C29   T    
C40   C76   A    
C158  N6    S    
C23   C31   T    
C24   C32   T    
C107  C136  A    
C32   C80   S    
O23   Zn3   S    
C199  H90   S    
C153  N1    S    
N14   H117  S    
C212  H144  S    
C12   C20   S    
C13   C21   S    
C221  H179  S    
O12   Zn8   S    
C107  H27   S    
C33   C73   A    
N26   C218  S    
C46   C62   A    
C86   O48   A    
C222  H183  S    
C35   C51   A    
N13   H113  S    
C216  H160  S    
O9    Zn5   S    
C57   H57   S    
N12   H109  S    
C196  H80   S    
C109  H29   S    
C11   C157  A    
C180  N28   S    
C218  H168  S    
C61   H61   S    
C34   H34   S    
C181  N29   S    
C165  C181  A    
C49   H49   S    
O35   Zn9   S    
C17   C25   T    
C206  H119  S    
C127  H13   S    
C132  C146  A    
O20   Zn4   S    
N9    H97   S    
C47   C63   A    
C2    O6    A    
C41   H41   S    
C10   C18   S    
C3    O3    A    
C156  C172  A    
C201  H100  S    
C112  C131  A    
C92   O22   A    
C214  H150  S    
C45   H45   S    
C97   C142  A    
N22   C214  S    
C159  N7    S    
N4    H77   S    
C179  C191  A    
N8    H93   S    
N24   C216  S    
C90   O20   A    
C182  C190  A    
N31   C223  S    
C208  H126  S    
C87   C192  S    
C204  H111  S    
C193  H67   S    
O45   Zn12  S    
C198  H86   S    
C87   O47   A    
N18   H133  S    
C166  C182  A    
C209  H130  S    
C118  H8    S    
N15   H121  S    
N20   C212  S    
C99   H19   S    
N25   H161  S    
C16   C164  A    
C37   H37   S    
C211  H139  S    
C62   C70   A    
C97   H17   S    
C213  H147  S    
C184  N32   S    
C122  H12   S    
C110  C129  A    
N1    C193  S    
C194  H71   S    
C170  N18   S    
C89   C152  S    
C85   O41   A    
C63   C69   A    
C6    O10   A    
O34   Zn9   S    
C1    C65   S    
C209  H131  S    
C133  C147  A    
C14   C166  A    
C10   C158  A    
C36   C52   A    
C11   C155  A    
C215  H156  S    
C116  H2    S    
C9    C153  A    
C1    O7    A    
N3    C195  S    
O5    Zn1   S    
C12   C156  A    
C169  N17   S    
C177  N25   S    
C178  N26   S    
N5    C197  S    
C224  H191  S    
O40   Zn10  S    
C123  H9    S    
C210  H136  S    
C121  H11   S    
C108  C135  A    
C4    C68   S    
C156  N4    S    
C203  H108  S    
C113  C126  A    
N23   C215  S    
C56   C68   A    
O30   Zn8   S    
C125  H15   S    
C115  C128  A    
N2    C194  S    
C102  C137  A    
C92   O24   A    
C214  H152  S    
C91   O23   A    
C117  C122  A    
O31   Zn7   S    
N29   H177  S    
C50   C66   A    
C96   O30   A    
N20   H141  S    
C84   O36   A    
C4    O8    A    
C106  C122  A    
C220  H174  S    
C90   O18   A    
C51   C67   A    
C208  H128  S    
C7    O11   A    
N19   C211  S    
C110  C126  A    
C47   H47   S    
C199  H91   S    
C198  H88   S    
C135  C147  A    
C197  H83   S    
C59   H59   S    
C83   C188  S    
C92   C149  S    
C196  H79   S    
C81   C186  S    
C163  N11   S    
C89   O19   A    
C38   C74   A    
C109  C125  A    
C205  H115  S    
C173  C187  A    
O33   Zn9   S    
C22   C30   T    
O46   Zn12  S    
C162  N10   S    
C51   H51   S    
C2    C66   S    
C81   O33   A    
N32   H189  S    
C54   C66   A    
N27   C219  S    
C172  N20   S    
C14   C22   S    
C8    O16   A    
C43   H43   S    
C103  C140  A    
C163  C179  A    
C95   O31   A    
C131  C145  A    
C46   H46   S    
C25   C73   S    
N16   C208  S    
C53   C67   A    
C195  H76   S    
N11   C203  S    
C215  H154  S    
O19   Zn3   S    
C133  C138  A    
C29   C77   S    
C4    O4    A    
N23   H153  S    
C221  H178  S    
C15   C165  A    
O6    Zn4   S    
O1    Zn1   S    
N17   H129  S    
N30   C222  S    
C36   H36   S    
N28   H173  S    
C100  C116  A    
C107  C123  A    
C166  N14   S    
C134  C137  A    
O21   Zn1   S    
N7    H89   S    
C203  H106  S    
C200  H95   S    
C11   C19   S    
C210  H134  S    
C104  C120  A    
N18   C210  S    
O25   Zn5   S    
C202  H103  S    
C99   C115  A    
C178  C190  A    
O27   Zn7   S    
C48   C64   A    
C84   O38   A    
C33   C49   A    
N10   H101  S    
C220  H176  S    
C93   C148  S    
C142  C152  A    
C91   O21   A    
C5    C69   S    
N7    C199  S    
C102  H22   S    
C39   C55   A    
C201  H98   S    
C168  N16   S    
C126  H16   S    
C40   C56   A    
C116  C127  A    
C36   C76   A    
C217  H164  S    
C120  H6    S    
C184  C192  A    
O48   Zn12  S    
C88   O44   A    
C164  C180  A    
C120  C123  A    
C8    O12   A    
C132  C143  A    
N21   C213  S    
N24   H157  S    
C222  H182  S    
C216  H159  S    
C223  H187  S    
C136  C139  A    
C48   H48   S    
C1    O1    A    
C218  H167  S    
C135  C140  A    
C103  C119  A    
C8    C72   S    
C99   C144  A    
C44   C80   A    
C207  H124  S    
C173  N21   S    
C206  H120  S    
N6    H85   S    
C46   C78   A    
C85   C190  S    
C95   O29   A    
O39   Zn10  S    
C139  C149  A    
C217  H162  S    
C124  H10   S    
O15   Zn7   S    
C14   C162  A    
C213  H146  S    
C175  C185  A    
C38   C54   A    
C223  H188  S    
C170  C186  A    
C86   C191  S    
C45   C79   A    
C111  H31   S    
C12   C160  A    
C13   C161  A    
O41   Zn11  S    
C34   C74   A    
C106  H26   S    
C110  H30   S    
O8    Zn2   S    
C134  C148  A    
O22   Zn4   S    
C204  H110  S    
C6    C70   S    
C83   O35   A    
C119  H5    S    
C90   C151  S    
C100  C143  A    
C91   C150  S    
C101  C138  A    
C104  C139  A    
C101  C117  A    
C169  C185  A    
N9    C201  S    
C160  N8    S    
C41   C57   A    
C86   O42   A    
C219  H172  S    
C41   C77   A    
C181  C191  A    
C60   H60   S    
C44   C60   A    
C45   C61   A    
C96   O32   A    
C221  H180  S    
C54   H54   S    
C194  H70   S    
O16   Zn6   S    
C112  C128  A    
C164  N12   S    
C203  H107  S    
O7    Zn3   S    
C193  H66   S    
C108  H28   S    
C144  C152  A    
C222  H184  S    
C153  C169  A    
N13   C205  S    
C176  N24   S    
C206  H118  S    
C179  N27   S    
C131  C144  A    
C157  C173  A    
C105  C134  A    
C215  H155  S    
C197  H82   S    
C174  N22   S    
C42   H42   S    
N3    H73   S    
C16   C24   S    
C207  H122  S    
C195  H74   S    
C93   O25   A    
O28   Zn8   S    
C205  H114  S    
C38   H38   S    
C119  C124  A    
C138  C150  A    
C98   H18   S    
C35   C75   A    
C224  H190  S    
C49   C65   A    
C172  C188  A    
C52   H52   S    
C7    C71   S    
C13   C167  A    
C219  H171  S    
C9    C159  A    
O44   Zn11  S    
C43   C79   A    
C223  H186  S    
N31   H185  S    
C214  H151  S    
C81   O37   A    
C82   O34   A    
C26   C74   S    
O38   Zn10  S    
C83   O39   A    
C63   H63   S    
N10   C202  S    
N16   H125  S    
C208  H127  S    
O2    Zn2   S    
C52   C68   A    
O43   Zn11  S    
C204  H112  S    
C167  N15   S    
C39   C73   A    
C115  H1    S    
C193  H68   S    
C198  H87   S    
C159  C175  A    
C160  C176  A    
C137  C149  A    
O10   Zn6   S    
C154  N2    S    
O26   Zn6   S    
O32   Zn6   S    
N15   C207  S    
O13   Zn5   S    
N25   C217  S    
O24   Zn2   S    
C211  H140  S    
C167  C183  A    
C34   C50   A    
C162  C178  A    
C7    O13   A    
C201  H99   S    
O36   Zn9   S    
C180  C192  A    
C213  H148  S    
O17   Zn1   S    
C219  H170  S    
C114  C125  A    
C183  N31   S    
C168  C184  A    
N27   H169  S    
C175  N23   S    
C118  C121  A    
C194  H72   S    
N12   C204  S    
C39   H39   S    
N6    C198  S    
N26   H165  S    
N30   H181  S    
C209  H132  S    
C105  C121  A    
N8    C200  S    
C195  H75   S    
N11   H105  S    
C9    C17   S    
C2    O2    A    
C42   C78   A    
C98   C141  A    
C111  C127  A    
C58   H58   S    
C47   C77   A    
C97   C113  A    
C140  C150  A    
C93   O27   A    
C19   C27   T    
C141  C151  A    
C94   O28   A    
C94   C147  S    
C62   H62   S    
C224  H192  S    
C3    C67   S    
C50   H50   S    
C102  C118  A    
O42   Zn11  S    
N28   C220  S    
C31   C79   S    
C157  N5    S    
C43   C59   A    
C212  H143  S    
C200  H94   S    
C105  H25   S    
C171  C187  A    
C82   C187  S    
C87   O43   A    
C48   C80   A    
C171  N19   S    
C37   C53   A    
N22   H149  S    
N29   C221  S    
C82   O40   A    
C202  H102  S    
C174  C186  A    
N14   C206  S    
C100  H20   S    
C16   C168  A    
C15   C23   S    
C220  H175  S    
C64   C72   A    
N1    H65   S    
C53   H53   S    
C161  N9    S    
C30   C78   S    
C155  C171  A    
C111  C132  A    
C199  H92   S    
C210  H135  S    
C212  H142  S    
C197  H84   S    
C109  C130  A    
C217  H163  S    
N5    H81   S    
C55   H55   S    
C57   C69   A    
C161  C177  A    
C59   C71   A    
C64   H64   S    
C28   C76   S    
