data_mof_unit_67787.cif
_audit_creation_date              2013-03-05T15:41:21-0500
_audit_creation_method            fapswitch 2.2
_symmetry_space_group_name_H-M    P1
_symmetry_Int_Tables_number       1
_space_group_crystal_system       triclinic
_cell_length_a                    7.774502
_cell_length_b                    8.605188
_cell_length_c                    10.643863
_cell_angle_alpha                 90.700836
_cell_angle_beta                  85.35837
_cell_angle_gamma                 93.44541
_cell_volume                      708.447934074

loop_
_atom_site_label
_atom_site_type_symbol
_atom_site_description
_atom_site_fract_x
_atom_site_fract_y
_atom_site_fract_z
_atom_type_partial_charge
O1    O     O_R   0.389250 0.738570 0.508370 -0.654497
O2    O     O_R   0.678390 0.711620 0.486510 -0.623269
C1    C     C_R   0.545845 0.794145 0.500112 0.865333
O3    O     O_R   0.355430 0.513500 0.696140 -0.624500
O4    O     O_R   0.644580 0.486550 0.674270 -0.628434
C2    C     C_R   0.502379 0.504715 0.741987 0.829372
Zn1   Zn    Zn3+2 0.306940 0.517990 0.514600 0.988344
Zn2   Zn    Zn3+2 0.693060 0.482010 0.485400 0.985640
O5    O     O_R   0.321610 0.288380 0.513490 -0.571479
O6    O     O_R   0.610750 0.261430 0.491630 -0.557254
O7    O     O_R   0.355420 0.513450 0.325730 -0.614678
O8    O     O_R   0.644570 0.486500 0.303860 -0.675159
C3    C     C_R   0.455280 0.205497 0.505619 0.960024
C4    C     C_R   0.500476 0.508582 0.258270 0.867606
C5    C     C_3   0.362363 0.621320 0.935421 -0.205946
H1    H     H_    0.234234 0.579106 0.904543 0.152568
C6    C     C_3   0.347179 0.608982 0.081175 -0.182556
H2    H     H_    0.225146 0.539115 0.109101 0.110862
H3    H     H_    0.327825 0.306345 0.912172 0.197590
H4    H     H_    0.366118 0.284834 0.120392 0.201013
C7    C     C_3   0.462571 0.346175 0.930485 -0.418937
C8    C     C_3   0.687107 0.574884 0.918677 -0.200946
C9    C     C_3   0.505487 0.512424 0.878514 0.031120
H5    H     H_    0.721810 0.688433 0.871791 0.139487
C10   C     C_3   0.501524 0.517565 0.121848 0.041386
C11   C     C_3   0.481460 0.347450 0.072403 -0.533832
C12   C     C_3   0.677848 0.595465 0.063844 0.317514
H6    H     H_    0.786188 0.536269 0.102619 0.067522
H7    H     H_    0.549422 0.261064 0.883401 0.192177
H8    H     H_    0.596230 0.283241 0.092245 0.186525
C13   C     C_2   0.572426 0.956242 0.514477 0.302346
C14   C     C_2   0.434775 0.042218 0.506981 -0.498989
H9    H     H_    0.305763 0.991597 0.495424 0.166536
N1    N     N_2   0.950330 0.457950 0.465890 0.091843
N2    N     N_2   0.049670 0.542050 0.534110 -0.088701
H10   H     H_    0.992100 0.636506 0.575619 0.145749
O9    O     O_3   0.739433 0.017864 0.527771 -0.571543
C15   C     C_3   0.777730 0.002137 0.654402 0.139784
H11   H     H_    0.735275 0.885142 0.693595 0.100844
H12   H     H_    0.714576 0.093168 0.713827 0.155050
C16   C     C_3   0.972247 0.022743 0.661337 -0.759137
H13   H     H_    0.019938 0.141560 0.631050 0.304288
H14   H     H_    0.005912 0.005331 0.759127 0.195149
H15   H     H_    0.036371 0.935095 0.599482 0.236540
O10   O     O_3   0.014590 0.320530 0.434609 -0.479122
C17   C     C_3   0.975908 0.285549 0.310901 0.270185
H16   H     H_    0.016326 0.384989 0.246971 0.085929
H17   H     H_    0.835957 0.254640 0.306305 0.170329
C18   C     C_3   0.076234 0.146535 0.267063 -0.871360
H18   H     H_    0.015679 0.038958 0.312378 0.274118
H19   H     H_    0.079418 0.134986 0.163484 0.205180
H20   H     H_    0.211445 0.162569 0.293235 0.267097
C19   C     C_1   0.392449 0.783030 0.887707 0.182475
N3    N     N_1   0.414836 0.909070 0.850606 -0.265317
C20   C     C_1   0.330426 0.760631 0.147538 0.274792
N4    N     N_1   0.318784 0.878643 0.199687 -0.227402
C21   C     C_1   0.827747 0.471087 0.878702 0.110367
N5    N     N_1   0.937145 0.389959 0.847730 -0.217104
O11   O     O_3   0.688737 0.755352 0.097987 -0.607308
C22   C     C_3   0.858211 0.823718 0.074563 0.107506
H21   H     H_    0.944739 0.755343 0.009238 0.108019
H22   H     H_    0.918950 0.836758 0.165214 0.167223
C23   C     C_3   0.845865 0.983336 0.017298 -0.833234
H23   H     H_    0.784508 0.062581 0.088321 0.251527
H24   H     H_    0.976655 0.032759 0.984650 0.209500
H25   H     H_    0.766268 0.973669 0.935327 0.254247

loop_
_geom_bond_atom_site_label_1
_geom_bond_atom_site_label_2
_geom_bond_distance
_ccdc_geom_bond_type
O4    Zn2   2.015474 S    
C1    C13   1.406060 S    
C20   N4    1.156151 T    
C23   H24   1.109065 S    
C5    C6    1.550765 S    
O9    C15   1.413480 S    
C10   C12   1.572387 S    
C16   H13   1.109026 S    
C6    C20   1.483855 S    
C3    C14   1.404632 S    
C13   C14   1.345142 D    
Zn2   O8    1.999704 S    
C18   H20   1.109360 S    
C6    C10   1.565892 S    
C14   H9    1.084916 S    
C8    C21   1.485657 S    
C5    C9    1.576539 S    
C6    H2    1.113601 S    
C23   H25   1.109294 S    
O11   C22   1.414749 S    
N1    O10   1.339131 S    
C12   O11   1.418090 S    
C19   N3    1.157268 T    
C22   H22   1.109636 S    
Zn1   O7    2.015473 S    
C16   H14   1.107683 S    
C17   C18   1.515478 S    
C21   N5    1.157487 T    
O4    C2    1.286550 A    
H4    C11   1.109001 S    
O3    Zn1   1.999705 S    
C2    C9    1.455968 S    
C5    C19   1.485924 S    
O3    C2    1.284747 A    
H3    C7    1.114076 S    
C7    C11   1.529299 S    
O8    C4    1.281552 A    
O6    C3    1.271802 A    
C11   H8    1.112951 S    
O2    C1    1.283914 A    
C8    C12   1.549465 S    
C7    C9    1.547922 S    
C4    C10   1.454401 S    
C15   H11   1.115613 S    
N1    N2    1.287710 D    
C16   H15   1.109404 S    
C8    H5    1.111319 S    
C22   C23   1.520901 S    
C5    H1    1.113037 S    
C17   H17   1.109282 S    
C13   O9    1.390037 S    
Zn1   N2    2.016947 S    
C15   C16   1.519664 S    
Zn2   O6    1.966473 S    
C18   H18   1.110416 S    
C18   H19   1.104149 S    
C12   H6    1.119032 S    
Zn1   O5    1.985794 S    
O5    C3    1.291982 A    
C17   H16   1.114131 S    
Zn2   N1    2.016946 S    
O1    Zn1   1.966474 S    
C10   C11   1.552812 S    
O10   C17   1.399417 S    
C7    H7    1.113178 S    
O7    C4    1.289576 A    
C15   H12   1.112927 S    
C8    C9    1.570427 S    
O2    Zn2   1.985794 S    
C23   H23   1.110025 S    
C22   H21   1.115369 S    
O1    C1    1.277628 A    
N2    H10   1.029141 S    
