data_mof_unit_51690.cif
_audit_creation_date              2012-12-10T17:44:25-0500
_audit_creation_method            fapswitch 2.2
_symmetry_space_group_name_H-M    P1
_symmetry_Int_Tables_number       1
_space_group_crystal_system       triclinic
_cell_length_a                    13.843452
_cell_length_b                    14.979669
_cell_length_c                    17.246312
_cell_angle_alpha                 86.889912
_cell_angle_beta                  85.469671
_cell_angle_gamma                 89.396264
_cell_volume                      3559.87831841

loop_
_atom_site_label
_atom_site_type_symbol
_atom_type_description
_atom_site_fract_x
_atom_site_fract_y
_atom_site_fract_z
_atom_type_partial_charge
C1    C     C_R   0.498826 0.671219 0.500128 0.837318
C2    C     C_R   0.500538 0.328493 0.500194 0.894580
C3    C     C_R   0.538374 0.178443 0.560270 0.407057
C4    C     C_R   0.442238 0.817334 0.444957 0.404781
C5    C     C_R   0.499699 0.230815 0.499969 -0.329844
C6    C     C_R   0.492671 0.768364 0.501824 -0.296463
C7    C     C_R   0.452164 0.190378 0.442184 0.362194
C8    C     C_R   0.525403 0.809906 0.565765 0.346013
C9    C     C_R   0.431558 0.097937 0.450199 -0.121847
C10   C     C_R   0.505831 0.901567 0.574331 -0.107432
C11   C     C_R   0.467660 0.046337 0.512657 -0.152533
C12   C     C_R   0.465794 0.952513 0.513151 -0.150333
C13   C     C_R   0.512466 0.087962 0.571825 -0.053935
C14   C     C_R   0.426834 0.910053 0.451487 -0.032850
C15   C     C_R   0.374630 0.055794 0.398267 0.323921
C16   C     C_R   0.523667 0.944045 0.643015 0.316829
C17   C     C_R   0.373639 0.961523 0.397943 0.340888
C18   C     C_R   0.532514 0.037763 0.640387 0.330284
C19   C     C_R   0.210814 0.542365 0.439536 0.507370
C20   C     C_R   0.789150 0.457301 0.560708 0.417532
C21   C     C_R   0.201008 0.455194 0.559512 0.548943
C22   C     C_R   0.799610 0.548454 0.443644 0.559177
C23   C     C_R   0.486650 0.501945 0.649618 0.924673
C24   C     C_R   0.513293 0.502414 0.349569 0.854664
C25   C     C_R   0.097707 0.463641 0.565469 -0.214690
C26   C     C_R   0.902538 0.535926 0.436235 -0.252307
C27   C     C_R   0.051650 0.499856 0.500686 -0.122098
C28   C     C_R   0.948502 0.499645 0.500866 -0.093813
C29   C     C_R   0.108502 0.538802 0.436553 -0.170519
C30   C     C_R   0.891035 0.464036 0.565832 -0.159452
C31   C     C_R   0.038975 0.436899 0.633953 0.295225
C32   C     C_R   0.960818 0.564894 0.368477 0.281201
C33   C     C_R   0.937270 0.435449 0.633840 0.461173
C34   C     C_R   0.061019 0.575291 0.371822 0.494365
C35   C     C_R   0.476351 0.512048 0.733546 -0.236963
C36   C     C_R   0.523344 0.505444 0.263501 -0.350214
C37   C     C_R   0.519131 0.448214 0.782570 0.247991
C38   C     C_R   0.456977 0.459491 0.222632 0.351408
C39   C     C_R   0.509798 0.457476 0.863925 0.267501
C40   C     C_R   0.470004 0.458879 0.140571 0.273393
C41   C     C_R   0.452824 0.527961 0.895315 -0.059834
C42   C     C_R   0.542505 0.513597 0.099178 -0.258922
C43   C     C_R   0.401347 0.585747 0.846025 0.324749
C44   C     C_R   0.616314 0.546987 0.141362 0.359371
C45   C     C_R   0.416853 0.580916 0.764734 0.235980
C46   C     C_R   0.604152 0.547731 0.221960 0.289771
C47   C     C_2   0.452746 0.544201 0.979915 0.441464
C48   C     C_2   0.538035 0.540383 0.014228 0.394808
Cu1   Cu    Cu3+1 0.402580 0.500010 0.500000 1.018140
Cu2   Cu    Cu3+1 0.597420 0.499990 0.500000 0.977894
N1    N     N_R   0.256180 0.500070 0.500030 -0.274685
N2    N     N_R   0.743820 0.499930 0.499970 -0.274652
O1    O     O_R   0.417720 0.629750 0.499980 -0.607084
O2    O     O_R   0.582280 0.370250 0.500020 -0.624624
O3    O     O_R   0.582260 0.629730 0.499990 -0.561034
O4    O     O_R   0.417740 0.370270 0.500010 -0.564080
O5    O     O_R   0.408190 0.500030 0.613590 -0.547023
O6    O     O_R   0.591810 0.499970 0.386410 -0.563888
O7    O     O_R   0.572730 0.500000 0.613600 -0.563415
O8    O     O_R   0.427270 0.500000 0.386400 -0.505288
O9    O     O_3   0.566774 0.376423 0.749337 -0.681134
H1    H     H_    0.563021 0.324308 0.787259 0.358131
O10   O     O_3   0.382182 0.413343 0.264574 -0.660123
H2    H     H_    0.337358 0.389829 0.228768 0.375342
O11   O     O_3   0.264136 0.586157 0.378976 -0.676307
H3    H     H_    0.314140 0.620108 0.401814 0.365090
O12   O     O_3   0.736848 0.409878 0.619713 -0.684432
H4    H     H_    0.680532 0.384780 0.598026 0.390367
O13   O     O_3   0.246526 0.401807 0.614041 -0.580394
C49   C     C_3   0.251018 0.311499 0.592353 0.111539
H5    H     H_    0.324252 0.285770 0.603914 0.181972
H6    H     H_    0.241804 0.303184 0.529349 0.117486
C50   C     C_3   0.178327 0.252414 0.642713 -0.333403
H7    H     H_    0.181428 0.266964 0.704965 0.275947
H8    H     H_    0.103995 0.266220 0.625159 0.232476
C51   C     C_3   0.200515 0.153176 0.633845 -0.940945
H9    H     H_    0.195812 0.135730 0.572604 0.249442
H10   H     H_    0.146928 0.112454 0.671406 0.271764
H11   H     H_    0.274199 0.136313 0.651723 0.265331
O14   O     O_3   0.755889 0.616271 0.400524 -0.571138
C52   C     C_3   0.795075 0.700179 0.416573 0.079093
H12   H     H_    0.870032 0.708350 0.389978 0.161583
H13   H     H_    0.796511 0.706940 0.480085 0.118469
C53   C     C_3   0.735550 0.776904 0.382641 -0.341228
H14   H     H_    0.727304 0.766440 0.320457 0.243643
H15   H     H_    0.663316 0.778330 0.414627 0.204576
C54   C     C_3   0.783851 0.867223 0.388685 -0.948871
H16   H     H_    0.796304 0.878907 0.450112 0.247232
H17   H     H_    0.736268 0.921400 0.366553 0.260699
H18   H     H_    0.854311 0.869912 0.353119 0.268917
O15   O     O_3   0.077750 0.415491 0.703837 -0.715247
H19   H     H_    0.131490 0.457419 0.708891 0.355379
O16   O     O_3   0.922557 0.585751 0.298115 -0.686696
H20   H     H_    0.861466 0.552310 0.296672 0.384476
O17   O     O_3   0.885023 0.402554 0.701149 -0.539634
C55   C     C_3   0.842948 0.473669 0.743472 0.156220
H21   H     H_    0.779927 0.445905 0.780635 0.199134
H22   H     H_    0.813434 0.527989 0.705407 0.127346
C56   C     C_3   0.914573 0.511852 0.796262 -0.375666
H23   H     H_    0.947496 0.456404 0.830883 0.272007
H24   H     H_    0.972975 0.548271 0.760083 0.221751
C57   C     C_3   0.864446 0.576670 0.851705 -0.923489
H25   H     H_    0.831778 0.633031 0.818192 0.262873
H26   H     H_    0.918103 0.603919 0.888606 0.273201
H27   H     H_    0.807176 0.541543 0.890111 0.289931
O18   O     O_3   0.111443 0.622333 0.310559 -0.538129
C58   C     C_3   0.111085 0.714648 0.325757 0.123074
H28   H     H_    0.187406 0.737325 0.322217 0.211933
H29   H     H_    0.079099 0.730805 0.385041 0.083941
C59   C     C_3   0.057058 0.768245 0.264492 -0.320854
H30   H     H_    0.084120 0.749086 0.205337 0.243551
H31   H     H_    0.978564 0.752858 0.272852 0.249266
C60   C     C_3   0.070439 0.868599 0.270368 -0.949467
H32   H     H_    0.044907 0.889154 0.329495 0.260038
H33   H     H_    0.027823 0.905680 0.227040 0.265972
H34   H     H_    0.148009 0.886406 0.258074 0.274372
O19   O     O_3   0.673608 0.591348 0.257995 -0.645055
H35   H     H_    0.639770 0.624291 0.300090 0.336017
O20   O     O_3   0.374475 0.645604 0.717816 -0.741301
H36   H     H_    0.412183 0.652143 0.666719 0.342252
O21   O     O_3   0.623314 0.557073 0.967861 -0.622058
C61   C     C_3   0.640824 0.650611 0.959448 0.053074
H37   H     H_    0.718737 0.660645 0.967336 0.214666
H38   H     H_    0.599643 0.690448 0.004193 0.135999
C62   C     C_3   0.620665 0.687792 0.877915 -0.411606
H39   H     H_    0.647598 0.639982 0.834059 0.231664
H40   H     H_    0.541610 0.696815 0.874906 0.219728
C63   C     C_3   0.668754 0.778390 0.858732 -0.881012
H41   H     H_    0.639316 0.827925 0.900203 0.260119
H42   H     H_    0.654141 0.802569 0.798903 0.293399
H43   H     H_    0.748431 0.772783 0.861573 0.252761
O22   O     O_3   0.364821 0.553649 0.023729 -0.563588
C64   C     C_3   0.350212 0.644071 0.043050 0.103254
H44   H     H_    0.283048 0.668488 0.017435 0.215879
H45   H     H_    0.409785 0.690351 0.019835 0.106061
C65   C     C_3   0.334651 0.651081 0.131213 -0.336625
H46   H     H_    0.276406 0.604680 0.155464 0.279317
H47   H     H_    0.402298 0.632680 0.158549 0.192541
C66   C     C_3   0.306818 0.746388 0.151290 -0.911321
H48   H     H_    0.363275 0.794052 0.126171 0.253409
H49   H     H_    0.300006 0.750962 0.215365 0.283530
H50   H     H_    0.236664 0.765606 0.127944 0.257683
O23   O     O_3   0.342598 0.651134 0.878526 -0.764823
H51   H     H_    0.304448 0.681441 0.838547 0.371487
O24   O     O_3   0.701130 0.581649 0.105884 -0.675207
H52   H     H_    0.728313 0.536043 0.070584 0.354521
O25   O     O_3   0.413209 0.402343 0.103062 -0.691906
H53   H     H_    0.448818 0.386882 0.053470 0.367661
O26   O     O_3   0.555064 0.398634 0.914081 -0.728039
H54   H     H_    0.617102 0.378855 0.887581 0.344777
O27   O     O_3   0.605661 0.213750 0.605352 -0.535297
C67   C     C_3   0.700006 0.206182 0.566824 0.109670
H55   H     H_    0.749393 0.247278 0.597359 0.211652
H56   H     H_    0.702691 0.233498 0.505294 0.115534
C68   C     C_3   0.741452 0.110463 0.570440 -0.379243
H57   H     H_    0.736282 0.082847 0.631682 0.257694
H58   H     H_    0.700754 0.066882 0.534629 0.199313
C69   C     C_3   0.847394 0.109110 0.538756 -0.933285
H59   H     H_    0.854282 0.137366 0.477721 0.262605
H60   H     H_    0.874864 0.039162 0.539853 0.260022
H61   H     H_    0.892186 0.148813 0.574833 0.271486
O28   O     O_3   0.402118 0.773898 0.385987 -0.566577
C70   C     C_3   0.474326 0.749518 0.327904 0.070466
H62   H     H_    0.445049 0.693556 0.297372 0.165712
H63   H     H_    0.540958 0.723841 0.352698 0.077783
C71   C     C_3   0.499054 0.826959 0.267850 -0.346908
H64   H     H_    0.431624 0.854891 0.245414 0.260411
H65   H     H_    0.536251 0.880627 0.295851 0.205140
C72   C     C_3   0.564144 0.796486 0.198445 -0.903349
H66   H     H_    0.634548 0.771383 0.217151 0.280776
H67   H     H_    0.578032 0.853771 0.155563 0.256467
H68   H     H_    0.528876 0.742708 0.169319 0.254970
O29   O     O_3   0.430765 0.242231 0.376528 -0.562464
C73   C     C_3   0.497862 0.223405 0.312710 0.157500
H69   H     H_    0.466983 0.251277 0.258980 0.205856
H70   H     H_    0.507696 0.150463 0.305061 0.130968
C74   C     C_3   0.596949 0.266302 0.319191 -0.423839
H71   H     H_    0.586797 0.336104 0.335981 0.248265
H72   H     H_    0.635710 0.229001 0.364910 0.198880
C75   C     C_3   0.659408 0.265986 0.242276 -0.867284
H73   H     H_    0.671054 0.196426 0.224103 0.253315
H74   H     H_    0.730890 0.296113 0.249458 0.267281
H75   H     H_    0.624032 0.305943 0.196144 0.260289
O30   O     O_3   0.573725 0.758838 0.620375 -0.592351
C76   C     C_3   0.673448 0.780929 0.613045 0.118684
H76   H     H_    0.686541 0.839247 0.647687 0.182013
H77   H     H_    0.700427 0.798392 0.551796 0.112256
C77   C     C_3   0.732625 0.701749 0.643631 -0.342185
H78   H     H_    0.702115 0.679013 0.702708 0.228193
H79   H     H_    0.728122 0.645292 0.604996 0.233625
C78   C     C_3   0.838690 0.727231 0.647578 -0.976599
H80   H     H_    0.869828 0.755361 0.590251 0.251878
H81   H     H_    0.881863 0.667417 0.664108 0.257352
H82   H     H_    0.844710 0.777580 0.691894 0.270223
O31   O     O_3   0.324752 0.105552 0.343963 -0.615771
C79   C     C_3   0.239567 0.142881 0.380400 0.138018
H83   H     H_    0.221811 0.204454 0.345369 0.193138
H84   H     H_    0.248918 0.164287 0.440186 0.125277
C80   C     C_3   0.154723 0.077874 0.381579 -0.407099
H85   H     H_    0.146895 0.056979 0.321545 0.239102
H86   H     H_    0.169065 0.017502 0.419344 0.235274
C81   C     C_3   0.060015 0.120654 0.412372 -0.924773
H87   H     H_    0.064919 0.140098 0.473173 0.262880
H88   H     H_    0.000539 0.071702 0.411441 0.265839
H89   H     H_    0.042921 0.180730 0.375197 0.265063
O32   O     O_3   0.536680 0.894989 0.711906 -0.635972
C82   C     C_3   0.446400 0.863182 0.746290 0.121718
H90   H     H_    0.460854 0.801188 0.781850 0.205513
H91   H     H_    0.395565 0.844167 0.702954 0.160481
C83   C     C_3   0.398630 0.932025 0.799879 -0.395793
H92   H     H_    0.451264 0.952786 0.840795 0.236342
H93   H     H_    0.377076 0.991971 0.764332 0.231387
C84   C     C_3   0.309008 0.893903 0.846812 -0.884128
H94   H     H_    0.256326 0.870049 0.807328 0.260668
H95   H     H_    0.273688 0.946663 0.882164 0.263378
H96   H     H_    0.329834 0.837654 0.886826 0.269288
O33   O     O_3   0.319140 0.918485 0.347592 -0.722528
H97   H     H_    0.297148 0.961470 0.307003 0.339503
O34   O     O_3   0.557970 0.082024 0.704104 -0.685906
H98   H     H_    0.578223 0.038449 0.744977 0.347707

loop_
_geom_bond_atom_site_label_1
_geom_bond_atom_site_label_2
_ccdc_geom_bond_type
C25   C31   A    
C69   H60   S    
C54   H16   S    
C26   C32   A    
O16   H20   S    
C27   C29   A    
C58   H29   S    
C50   H7    S    
C20   O12   S    
C43   O23   S    
O17   C55   S    
C53   C54   S    
O25   H53   S    
C63   H41   S    
C52   H12   S    
C39   C41   A    
C20   C30   A    
O29   C73   S    
C23   O7    A    
Cu2   O2    S    
Cu1   O8    S    
C81   H88   S    
C13   C18   A    
C77   C78   S    
Cu2   O7    S    
C65   H46   S    
C35   C37   A    
C51   H10   S    
O28   C70   S    
C16   O32   S    
C65   C66   S    
C66   H50   S    
C76   H77   S    
C68   H58   S    
O18   C58   S    
O23   H51   S    
C55   C56   S    
Cu1   O5    S    
O30   C76   S    
C57   H27   S    
C77   H79   S    
C72   H66   S    
C80   C81   S    
C1    O1    A    
C73   H69   S    
C69   H61   S    
C57   H25   S    
C59   H30   S    
C70   H62   S    
C44   C46   A    
O22   C64   S    
C74   H72   S    
C81   H89   S    
C55   H22   S    
C4    C14   A    
C82   C83   S    
Cu2   N2    S    
C58   H28   S    
C51   H11   S    
C36   C46   A    
C49   H5    S    
C3    C13   A    
C75   H75   S    
C60   H34   S    
C15   O31   S    
C8    O30   S    
C40   C42   A    
C32   O16   S    
O27   C67   S    
C80   H85   S    
C68   C69   S    
C71   H65   S    
C41   C43   A    
C14   C17   A    
C71   H64   S    
O13   C49   S    
C42   C44   A    
C79   C80   S    
C18   O34   S    
C33   O17   S    
C52   H13   S    
C75   H74   S    
O24   H52   S    
C73   H70   S    
C84   H95   S    
C66   H48   S    
C68   H57   S    
C81   H87   S    
C82   H90   S    
C34   O18   S    
C24   O6    A    
C70   C71   S    
C53   H14   S    
C4    C6    A    
C2    O2    A    
O34   H98   S    
C5    C7    A    
O32   C82   S    
O14   C52   S    
C76   C77   S    
C6    C8    A    
O31   C79   S    
Cu1   N1    S    
O33   H97   S    
C84   H94   S    
C29   C34   A    
O12   H4    S    
C46   O19   S    
C21   O13   S    
C77   H78   S    
Cu2   O6    S    
C78   H81   S    
C66   H49   S    
C62   C63   S    
C64   H44   S    
C9    C11   A    
C47   C48   D    
C73   C74   S    
C67   C68   S    
C24   O8    A    
C74   C75   S    
C55   H21   S    
C49   C50   S    
C31   C33   A    
C44   O24   S    
C41   C47   S    
C42   C48   S    
C51   H9    S    
C57   H26   S    
C43   C45   A    
C59   C60   S    
C80   H86   S    
O21   C61   S    
C60   H32   S    
C10   C12   A    
C2    O4    A    
C64   C65   S    
C23   O5    A    
C65   H47   S    
C56   H24   S    
C67   H56   S    
Cu1   Cu2   S    
C83   H93   S    
C54   H17   S    
C69   H59   S    
C50   C51   S    
C4    O28   S    
C2    C5    S    
O11   H3    S    
C50   H8    S    
C61   H38   S    
C35   C45   A    
C63   H43   S    
C21   N1    A    
C52   C53   S    
C17   O33   S    
C75   H73   S    
C22   N2    A    
C38   O10   S    
C72   H67   S    
C84   H96   S    
C78   H80   S    
C7    C9    A    
C21   C25   A    
C1    C6    S    
C30   C33   A    
C70   H63   S    
C3    O27   S    
C8    C10   A    
C31   O15   S    
C12   C14   A    
C79   H83   S    
C3    C5    A    
C63   H42   S    
C37   O9    S    
O20   H36   S    
C15   C17   A    
C25   C27   A    
C83   C84   S    
C39   O26   S    
C26   C28   A    
Cu2   O3    S    
C24   C36   S    
C56   H23   S    
C47   O22   S    
C20   N2    A    
C61   C62   S    
C28   C30   A    
C9    C15   A    
C78   H82   S    
C22   O14   S    
C82   H91   S    
C37   C39   A    
Cu1   O4    S    
C10   C16   A    
O19   H35   S    
C38   C40   A    
C11   C13   A    
C45   O20   S    
C76   H76   S    
C62   H39   S    
Cu1   O1    S    
C7    O29   S    
C36   C38   A    
C58   C59   S    
C19   O11   S    
C83   H92   S    
C1    O3    A    
O9    H1    S    
C23   C35   S    
C59   H31   S    
C79   H84   S    
O10   H2    S    
C19   N1    A    
C56   C57   S    
C67   H55   S    
C71   C72   S    
C16   C18   A    
C74   H71   S    
C22   C26   A    
C54   H18   S    
C27   C28   A    
C62   H40   S    
C64   H45   S    
C53   H15   S    
C49   H6    S    
C72   H68   S    
C48   O21   S    
C61   H37   S    
O26   H54   S    
C40   O25   S    
O15   H19   S    
C11   C12   A    
C32   C34   A    
C60   H33   S    
C19   C29   A    
