data_mof_unit_31972.cif
_audit_creation_date              2012-12-11T16:36:25-0500
_audit_creation_method            fapswitch 2.2
_symmetry_space_group_name_H-M    P1
_symmetry_Int_Tables_number       1
_space_group_crystal_system       monoclinic
_cell_length_a                    25.799211
_cell_length_b                    7.235062
_cell_length_c                    23.389989
_cell_angle_alpha                 90.0
_cell_angle_beta                  104.265266
_cell_angle_gamma                 90.0
_cell_volume                      4231.32662533

loop_
_atom_site_label
_atom_site_type_symbol
_atom_type_description
_atom_site_fract_x
_atom_site_fract_y
_atom_site_fract_z
_atom_type_partial_charge
O1    O     O_R   0.438720 0.630760 0.439780 -0.536198
O2    O     O_R   0.061280 0.869240 0.060220 -0.536198
O3    O     O_R   0.561280 0.130760 0.560220 -0.536198
O4    O     O_R   0.938720 0.369240 0.939780 -0.536198
O5    O     O_R   0.546380 0.956770 0.446270 -0.540341
O6    O     O_R   0.953620 0.543230 0.053730 -0.540342
O7    O     O_R   0.453620 0.456770 0.553730 -0.540342
O8    O     O_R   0.046380 0.043230 0.946270 -0.540342
C1    C     C_R   0.562395 0.791787 0.434182 0.677538
C2    C     C_R   0.937605 0.708212 0.065818 0.677539
C3    C     C_R   0.437605 0.291787 0.565818 0.677539
C4    C     C_R   0.062395 0.208212 0.934182 0.677540
O9    O     O_R   0.438210 0.960230 0.432810 -0.538457
O10   O     O_R   0.061790 0.539770 0.067190 -0.538457
O11   O     O_R   0.561790 0.460230 0.567190 -0.538457
O12   O     O_R   0.938210 0.039770 0.932810 -0.538457
O13   O     O_R   0.452340 0.134240 0.546660 -0.537687
O14   O     O_R   0.047660 0.365760 0.953340 -0.537687
O15   O     O_R   0.547660 0.634240 0.453340 -0.537687
O16   O     O_R   0.952340 0.865760 0.046660 -0.537687
C5    C     C_R   0.420058 0.791627 0.414950 0.686388
C6    C     C_R   0.079942 0.708373 0.085050 0.686388
C7    C     C_R   0.579942 0.291627 0.585050 0.686388
C8    C     C_R   0.920058 0.208373 0.914950 0.686387
O17   O     O_3   0.504760 0.798440 0.537370 -0.378530
O18   O     O_3   0.995240 0.701560 0.962630 -0.378530
O19   O     O_3   0.495240 0.298440 0.462630 -0.378530
O20   O     O_3   0.004760 0.201560 0.037370 -0.378530
V1    V     V_3+5 0.499120 0.071860 0.493070 1.370381
V2    V     V_3+5 0.000880 0.428140 0.006930 1.370381
V3    V     V_3+5 0.500880 0.571860 0.506930 1.370381
V4    V     V_3+5 0.999120 0.928140 0.993070 1.370381
C9    C     C_R   0.706168 0.108538 0.687557 -0.181227
C10   C     C_R   0.793832 0.391462 0.812443 -0.181227
C11   C     C_R   0.293832 0.608538 0.312443 -0.181227
C12   C     C_R   0.206168 0.891462 0.187556 -0.181228
H1    H     H_    0.728588 0.982996 0.689531 0.121708
H2    H     H_    0.771412 0.517004 0.810469 0.121708
H3    H     H_    0.271412 0.482996 0.310469 0.121708
H4    H     H_    0.228588 0.017004 0.189531 0.121708
C13   C     C_R   0.660364 0.125386 0.641827 -0.202617
C14   C     C_R   0.839636 0.374613 0.858173 -0.202617
C15   C     C_R   0.339636 0.625386 0.358173 -0.202617
C16   C     C_R   0.160364 0.874613 0.141827 -0.202617
H5    H     H_    0.652462 0.019057 0.608176 0.136041
H6    H     H_    0.847538 0.480943 0.891823 0.136041
H7    H     H_    0.347538 0.519057 0.391824 0.136041
H8    H     H_    0.152462 0.980942 0.108176 0.136041
C17   C     C_R   0.626356 0.278377 0.638139 -0.081961
C18   C     C_R   0.873644 0.221622 0.861861 -0.081961
C19   C     C_R   0.373644 0.778377 0.361861 -0.081961
C20   C     C_R   0.126356 0.721622 0.138139 -0.081961
C21   C     C_R   0.634998 0.400168 0.687795 0.042880
C22   C     C_R   0.865002 0.099832 0.812205 0.042880
C23   C     C_R   0.365002 0.900168 0.312205 0.042880
C24   C     C_R   0.134998 0.599832 0.187795 0.042880
C25   C     C_R   0.678798 0.364910 0.737812 0.082028
C26   C     C_R   0.821202 0.135090 0.762188 0.082028
C27   C     C_R   0.321202 0.864909 0.262188 0.082028
C28   C     C_R   0.178798 0.635091 0.237812 0.082028
C29   C     C_R   0.721368 0.246822 0.730516 0.047030
C30   C     C_R   0.778632 0.253178 0.769484 0.047030
C31   C     C_R   0.278632 0.746822 0.269484 0.047030
C32   C     C_R   0.221368 0.753178 0.230516 0.047030
C33   C     C_R   0.386174 0.112447 0.625943 -0.163796
C34   C     C_R   0.113826 0.387553 0.874056 -0.163796
C35   C     C_R   0.613826 0.612447 0.374056 -0.163796
C36   C     C_R   0.886174 0.887553 0.125944 -0.163797
H9    H     H_    0.403373 0.984677 0.614989 0.123017
H10   H     H_    0.096627 0.515323 0.885010 0.123017
H11   H     H_    0.596627 0.484678 0.385010 0.123017
H12   H     H_    0.903373 0.015322 0.114990 0.123017
C37   C     C_R   0.350035 0.104332 0.661761 -0.146051
C38   C     C_R   0.149965 0.395668 0.838239 -0.146051
C39   C     C_R   0.649965 0.604332 0.338239 -0.146052
C40   C     C_R   0.850035 0.895668 0.161761 -0.146052
H13   H     H_    0.340814 0.970890 0.677760 0.100814
H14   H     H_    0.159186 0.529109 0.822240 0.100814
H15   H     H_    0.659185 0.470891 0.322239 0.100814
H16   H     H_    0.840815 0.029109 0.177761 0.100814
C41   C     C_R   0.326663 0.266443 0.677336 0.096787
C42   C     C_R   0.173337 0.233557 0.822664 0.096787
C43   C     C_R   0.673337 0.766443 0.322664 0.096787
C44   C     C_R   0.826663 0.733557 0.177336 0.096787
C45   C     C_R   0.340732 0.437009 0.656514 -0.150101
C46   C     C_R   0.159267 0.062991 0.843486 -0.150101
C47   C     C_R   0.659268 0.937009 0.343486 -0.150101
C48   C     C_R   0.840732 0.562991 0.156514 -0.150102
H17   H     H_    0.323015 0.564386 0.666931 0.101628
H18   H     H_    0.176985 0.935614 0.833069 0.101628
H19   H     H_    0.676986 0.064385 0.333069 0.101628
H20   H     H_    0.823014 0.435614 0.166931 0.101628
C49   C     C_R   0.376884 0.445210 0.620755 -0.168617
C50   C     C_R   0.123116 0.054790 0.879245 -0.168617
C51   C     C_R   0.623116 0.945210 0.379245 -0.168618
C52   C     C_R   0.876884 0.554790 0.120755 -0.168618
H21   H     H_    0.386281 0.579026 0.605151 0.124531
H22   H     H_    0.113719 0.920974 0.894849 0.124531
H23   H     H_    0.613720 0.079026 0.394849 0.124531
H24   H     H_    0.886280 0.420974 0.105151 0.124531
C53   C     C_R   0.399965 0.283021 0.604792 -0.046672
C54   C     C_R   0.100035 0.216979 0.895208 -0.046671
C55   C     C_R   0.600035 0.783021 0.395208 -0.046671
C56   C     C_R   0.899965 0.716979 0.104792 -0.046670
C57   C     C_R   0.287338 0.393466 0.757739 -0.153097
C58   C     C_R   0.212662 0.106533 0.742261 -0.153097
C59   C     C_R   0.712662 0.893467 0.242261 -0.153097
C60   C     C_R   0.787337 0.606533 0.257738 -0.153097
H25   H     H_    0.316424 0.504318 0.765217 0.108729
H26   H     H_    0.183576 0.995682 0.734783 0.108729
H27   H     H_    0.683576 0.004319 0.234783 0.108729
H28   H     H_    0.816424 0.495681 0.265217 0.108729
C61   C     C_R   0.250350 0.385872 0.792542 -0.153254
C62   C     C_R   0.249650 0.114127 0.707458 -0.153254
C63   C     C_R   0.749650 0.885873 0.207458 -0.153253
C64   C     C_R   0.750350 0.614127 0.292542 -0.153254
H29   H     H_    0.252026 0.490960 0.825905 0.108395
H30   H     H_    0.247974 0.009040 0.674095 0.108395
H31   H     H_    0.747975 0.990961 0.174096 0.108395
H32   H     H_    0.752025 0.509039 0.325904 0.108395
C65   C     C_R   0.212510 0.242295 0.785282 0.082033
C66   C     C_R   0.287490 0.257705 0.714718 0.082033
C67   C     C_R   0.787490 0.742295 0.214718 0.082033
C68   C     C_R   0.712510 0.757705 0.285282 0.082033
C69   C     C_3   0.598714 0.565962 0.688903 -0.369933
C70   C     C_3   0.543143 0.509002 0.695944 -0.278860
C71   C     C_3   0.507766 0.677841 0.696356 -0.749370
H33   H     H_    0.526652 0.772278 0.733023 0.217234
H34   H     H_    0.501171 0.753384 0.653853 0.239659
H35   H     H_    0.468400 0.633133 0.702692 0.212314
H36   H     H_    0.522992 0.416302 0.659644 0.188979
H37   H     H_    0.546793 0.431559 0.737684 0.178093
H38   H     H_    0.617404 0.661689 0.725306 0.158611
H39   H     H_    0.595408 0.651669 0.648906 0.199087
C72   C     C_3   0.901286 0.934037 0.811097 -0.369933
C73   C     C_3   0.956856 0.990998 0.804056 -0.278860
C74   C     C_3   0.992234 0.822158 0.803644 -0.749370
H40   H     H_    0.998828 0.746615 0.846147 0.239659
H41   H     H_    0.973348 0.727721 0.766976 0.217234
H42   H     H_    0.031600 0.866867 0.797308 0.212314
H43   H     H_    0.953207 0.068441 0.762316 0.178092
H44   H     H_    0.977008 0.083698 0.840356 0.188979
H45   H     H_    0.904592 0.848331 0.851094 0.199087
H46   H     H_    0.882596 0.838311 0.774694 0.158611
C75   C     C_3   0.401286 0.065962 0.311097 -0.369933
C76   C     C_3   0.456857 0.009002 0.304057 -0.278860
C77   C     C_3   0.492235 0.177841 0.303644 -0.749371
H47   H     H_    0.473349 0.272278 0.266977 0.217234
H48   H     H_    0.498829 0.253384 0.346147 0.239659
H49   H     H_    0.531600 0.133132 0.297308 0.212315
H50   H     H_    0.477008 0.916301 0.340356 0.188979
H51   H     H_    0.453207 0.931558 0.262316 0.178092
H52   H     H_    0.382597 0.161689 0.274694 0.158611
H53   H     H_    0.404592 0.151669 0.351094 0.199087
C78   C     C_3   0.098714 0.434038 0.188903 -0.369934
C79   C     C_3   0.043143 0.490999 0.195943 -0.278860
C80   C     C_3   0.007765 0.322160 0.196356 -0.749371
H54   H     H_    0.001171 0.246617 0.153853 0.239659
H55   H     H_    0.026651 0.227722 0.233023 0.217234
H56   H     H_    0.968400 0.366869 0.202692 0.212315
H57   H     H_    0.046793 0.568442 0.237684 0.178093
H58   H     H_    0.022992 0.583700 0.159644 0.188978
H59   H     H_    0.095408 0.348332 0.148906 0.199088
H60   H     H_    0.117403 0.338311 0.225306 0.158611
C81   C     C_3   0.670886 0.406745 0.799548 -0.374014
C82   C     C_3   0.679190 0.235586 0.839939 -0.293206
C83   C     C_3   0.667446 0.279193 0.899355 -0.778271
H61   H     H_    0.694574 0.389917 0.922282 0.232194
H62   H     H_    0.625272 0.324413 0.893122 0.227409
H63   H     H_    0.673931 0.153481 0.927456 0.218247
H64   H     H_    0.652029 0.123058 0.818197 0.191890
H65   H     H_    0.720810 0.183974 0.848426 0.207864
H66   H     H_    0.694697 0.525790 0.820882 0.157689
H67   H     H_    0.629314 0.450559 0.796678 0.183060
C84   C     C_3   0.829114 0.093255 0.700452 -0.374013
C85   C     C_3   0.820810 0.264414 0.660061 -0.293206
C86   C     C_3   0.832554 0.220806 0.600645 -0.778271
H68   H     H_    0.874728 0.175587 0.606878 0.227409
H69   H     H_    0.805426 0.110083 0.577718 0.232194
H70   H     H_    0.826069 0.346519 0.572544 0.218247
H71   H     H_    0.779190 0.316026 0.651573 0.207864
H72   H     H_    0.847971 0.376942 0.681802 0.191891
H73   H     H_    0.870686 0.049441 0.703322 0.183060
H74   H     H_    0.805303 0.974209 0.679118 0.157689
C87   C     C_3   0.329114 0.906745 0.200452 -0.374014
C88   C     C_3   0.320810 0.735585 0.160060 -0.293206
C89   C     C_3   0.332554 0.779192 0.100645 -0.778270
H75   H     H_    0.305426 0.889916 0.077718 0.232194
H76   H     H_    0.374728 0.824411 0.106878 0.227409
H77   H     H_    0.326069 0.653480 0.072544 0.218247
H78   H     H_    0.347971 0.623057 0.181803 0.191891
H79   H     H_    0.279190 0.683974 0.151573 0.207864
H80   H     H_    0.305303 0.025790 0.179118 0.157689
H81   H     H_    0.370687 0.950558 0.203322 0.183060
C90   C     C_3   0.170886 0.593256 0.299548 -0.374013
C91   C     C_3   0.179190 0.764415 0.339939 -0.293206
C92   C     C_3   0.167446 0.720808 0.399355 -0.778271
H82   H     H_    0.125272 0.675588 0.393122 0.227409
H83   H     H_    0.194575 0.610084 0.422282 0.232194
H84   H     H_    0.173931 0.846520 0.427456 0.218247
H85   H     H_    0.220810 0.816027 0.348426 0.207864
H86   H     H_    0.152029 0.876943 0.318197 0.191890
H87   H     H_    0.129314 0.549442 0.296678 0.183060
H88   H     H_    0.194697 0.474210 0.320882 0.157689

loop_
_geom_bond_atom_site_label_1
_geom_bond_atom_site_label_2
_ccdc_geom_bond_type
C69   H39   S    
O17   V3    S    
C43   C47   A    
C48   C52   A    
C26   C30   A    
C70   C71   S    
C47   H19   S    
O19   V1    S    
O13   V1    S    
C34   C54   A    
O1    C5    A    
O3    C7    A    
C77   H47   S    
C10   C14   A    
C33   C53   A    
C87   H81   S    
O15   V3    S    
C40   C44   A    
C75   C76   S    
C35   C55   A    
C72   C73   S    
C83   H62   S    
C44   C67   S    
C82   H65   S    
C74   H41   S    
O5    C1    A    
C81   C82   S    
C60   H28   S    
C58   C62   A    
C57   C61   A    
C79   C80   S    
C77   H48   S    
O10   V2    S    
C23   C27   A    
C22   C26   A    
O4    C8    A    
C51   H23   S    
C7    C17   S    
C90   H87   S    
C50   H22   S    
C81   H66   S    
C34   C38   A    
O1    V3    S    
C33   C37   A    
O2    V4    S    
C14   H6    S    
C13   C17   A    
C88   H78   S    
O3    V1    S    
O12   V4    S    
C89   H77   S    
C73   H44   S    
C46   C50   A    
C45   C49   A    
C1    O15   A    
C80   H54   S    
C3    O13   A    
C26   C84   S    
C2    O16   A    
C86   H69   S    
C47   C51   A    
O2    C6    A    
O14   V2    S    
C43   C68   S    
C76   H50   S    
C11   C15   A    
C64   H32   S    
C42   C65   S    
C19   C23   A    
O16   V4    S    
O8    C4    A    
C75   H52   S    
C16   C20   A    
O11   C7    A    
C79   H58   S    
C82   H64   S    
O12   C8    A    
O10   C6    A    
C82   C83   S    
C92   H82   S    
C59   C68   A    
C38   C42   A    
C24   C78   S    
C37   C41   A    
C51   C55   A    
O7    C3    A    
C83   H63   S    
O5    V1    S    
C8    C18   S    
C85   H71   S    
C74   H42   S    
O7    V3    S    
C20   C24   A    
O8    V4    S    
C48   H20   S    
C12   H4    S    
C77   H49   S    
C63   C67   A    
C46   H18   S    
C49   C53   A    
C83   H61   S    
C21   C25   A    
O18   V4    S    
C73   C74   S    
C90   H88   S    
C78   H59   S    
C81   H67   S    
C42   C46   A    
C9    H1    S    
C90   C91   S    
C36   H12   S    
C44   C48   A    
C92   H84   S    
C11   H3    S    
C71   H34   S    
C4    C54   S    
C73   H43   S    
C84   C85   S    
C70   H37   S    
C1    C55   S    
C86   H70   S    
C69   H38   S    
O9    C5    A    
C3    C53   S    
C18   C22   A    
C92   H83   S    
C25   C29   A    
C59   C63   A    
C62   H30   S    
C21   C69   S    
C14   C18   A    
C61   H29   S    
C75   H53   S    
C9    C29   A    
C85   C86   S    
O6    V2    S    
C79   H57   S    
C80   H56   S    
C63   H31   S    
C52   C56   A    
C69   C70   S    
C76   H51   S    
C12   C16   A    
C35   C39   A    
C60   C67   A    
C91   H86   S    
C71   H33   S    
C10   C30   A    
C49   H21   S    
C5    C19   S    
C84   H73   S    
C76   C77   S    
C58   H26   S    
O9    V1    S    
C33   H9    S    
C57   H25   S    
C72   H46   S    
C45   H17   S    
C64   C68   A    
C10   H2    S    
C59   H27   S    
C40   H16   S    
C87   H80   S    
C91   C92   S    
O6    C2    A    
O11   V3    S    
C78   H60   S    
C36   C40   A    
C61   C65   A    
C74   H40   S    
C27   C31   A    
C41   C66   S    
C28   C32   A    
C9    C13   A    
C60   C64   A    
O20   V2    S    
C88   C89   S    
C71   H35   S    
C89   H75   S    
C13   H5    S    
C39   C43   A    
C87   C88   S    
C34   H10   S    
C15   H7    S    
C70   H36   S    
C15   C19   A    
C17   C21   A    
C22   C72   S    
C52   H24   S    
C58   C65   A    
C2    C56   S    
C72   H45   S    
C57   C66   A    
C27   C87   S    
C6    C20   S    
C35   H11   S    
C88   H79   S    
C29   C30   S    
O4    V2    S    
C89   H76   S    
C23   C75   S    
C85   H72   S    
C31   C32   S    
C62   C66   A    
C24   C28   A    
C25   C81   S    
C50   C54   A    
C80   H55   S    
C86   H68   S    
C38   H14   S    
C4    O14   A    
C78   C79   S    
C37   H13   S    
C11   C31   A    
C36   C56   A    
C91   H85   S    
C12   C32   A    
C39   H15   S    
C41   C45   A    
C16   H8    S    
C28   C90   S    
C84   H74   S    
