data_mof_unit_15266.cif
_audit_creation_date              2013-03-05T15:45:16-0500
_audit_creation_method            fapswitch 2.2
_symmetry_space_group_name_H-M    P1
_symmetry_Int_Tables_number       1
_space_group_crystal_system       triclinic
_cell_length_a                    8.251327
_cell_length_b                    12.687594
_cell_length_c                    19.046557
_cell_angle_alpha                 94.880432
_cell_angle_beta                  93.980616
_cell_angle_gamma                 97.928693
_cell_volume                      1961.08767961

loop_
_atom_site_label
_atom_site_type_symbol
_atom_site_description
_atom_site_fract_x
_atom_site_fract_y
_atom_site_fract_z
_atom_type_partial_charge
P1    P     P_3+3 0.986780 0.745970 0.554690 0.500510
O1    O     O_2   0.160820 0.763040 0.533820 -0.349542
O2    O     O_3   0.890970 0.628600 0.535400 -0.364306
O3    O     O_3   0.385950 0.698560 0.408070 -0.382823
O4    O     O_2   0.301616 0.885412 0.453782 -0.393477
O5    O     O_3   0.026738 0.795218 0.644580 -0.634552
O6    O     O_3   0.384352 0.876446 0.324695 -0.534949
H1    H     H_    0.335853 0.720805 0.275926 0.133956
C1    C     C_3   0.396649 0.834542 0.199408 -0.065101
H2    H     H_    0.316566 0.770107 0.164094 0.102981
H3    H     H_    0.332735 0.906960 0.201663 0.184801
P2    P     P_3+3 0.341450 0.417130 0.341310 0.479090
P3    P     P_3+3 0.932748 0.639032 0.280963 0.463771
O7    O     O_2   0.172860 0.449730 0.330520 -0.365701
O8    O     O_3   0.962080 0.644700 0.373110 -0.396805
O9    O     O_2   0.064954 0.578121 0.249371 -0.397698
O10   O     O_3   0.307556 0.278197 0.322294 -0.545009
O11   O     O_3   0.977422 0.768980 0.255870 -0.497924
C2    C     C_3   0.939115 0.841580 0.310520 0.462810
H4    H     H_    0.035347 0.849301 0.355732 0.130834
H5    H     H_    0.816852 0.815109 0.330090 0.019519
C3    C     C_3   0.934853 0.951174 0.283325 -0.848082
H6    H     H_    0.955528 0.014468 0.328736 0.203245
H7    H     H_    0.030215 0.965836 0.245165 0.266623
C4    C     C_3   0.753566 0.309452 0.319822 0.229607
H8    H     H_    0.630690 0.324167 0.334932 0.105420
H9    H     H_    0.845302 0.382620 0.333996 0.091364
C5    C     C_3   0.746567 0.280736 0.239650 -0.101494
H10   H     H_    0.732499 0.353534 0.212336 0.064250
H11   H     H_    0.864429 0.253936 0.226051 0.147720
Ba1   Ba    Ba6+2 0.160910 0.552960 0.466220 1.577004
C6    C     C_3   0.962784 0.721997 0.690207 0.809608
C7    C     C_3   0.939863 0.782511 0.761239 -0.972081
H12   H     H_    0.055358 0.836576 0.781455 0.276980
H13   H     H_    0.908757 0.724221 0.800706 0.251262
H14   H     H_    0.838652 0.831455 0.755355 0.236661
C8    C     C_3   0.252831 0.227696 0.380672 0.351153
H15   H     H_    0.120674 0.232913 0.383445 0.089936
H16   H     H_    0.323394 0.261528 0.431334 0.132927
C9    C     C_3   0.275346 0.110907 0.368648 -0.804977
H17   H     H_    0.223830 0.079337 0.314451 0.265298
H18   H     H_    0.214044 0.062720 0.408090 0.216656
H19   H     H_    0.408088 0.103980 0.371925 0.282159
P4    P     P_3+3 0.823520 0.254020 0.445250 0.470807
O12   O     O_2   0.649470 0.236890 0.466160 -0.368653
O13   O     O_3   0.919320 0.371390 0.464540 -0.383641
O14   O     O_3   0.424350 0.301430 0.591880 -0.397021
O15   O     O_3   0.800856 0.223548 0.353456 -0.555670
P5    P     P_3+3 0.867086 0.343923 0.717349 0.549010
O16   O     O_3   0.382770 0.553920 0.582990 -0.359994
O17   O     O_3   0.848220 0.355290 0.626830 -0.370493
O18   O     O_2   0.742537 0.410018 0.750851 -0.366891
O19   O     O_3   0.796130 0.210400 0.728728 -0.480083
Ba2   Ba    Ba6+2 0.649260 0.447030 0.533730 1.604055
P6    P     P_3+3 0.428348 0.837894 0.409333 0.450045
C10   C     C_3   0.421193 0.797125 0.273858 0.236840
H20   H     H_    0.549558 0.779508 0.284299 0.063424
O20   O     O_3   0.427530 0.446070 0.416950 -0.405477
C11   C     C_3   0.496912 0.772988 0.650061 0.432365
H21   H     H_    0.623377 0.778770 0.631611 -0.006010
H22   H     H_    0.404968 0.743067 0.605110 0.151286
C12   C     C_3   0.463319 0.883624 0.676759 -0.881899
H23   H     H_    0.551360 0.915995 0.722991 0.259456
H24   H     H_    0.476257 0.937359 0.633462 0.246427
H25   H     H_    0.337088 0.880036 0.694823 0.278106
P7    P     P_3+3 0.456851 0.572579 0.673268 0.545997
O21   O     O_2   0.637430 0.550200 0.669460 -0.400610
O22   O     O_3   0.484399 0.708146 0.706394 -0.511499
H26   H     H_    0.813221 0.956758 0.255553 0.300499
C13   C     C_3   0.857654 0.145754 0.675856 0.560634
H27   H     H_    0.782591 0.145801 0.624988 0.123602
H28   H     H_    0.987438 0.175603 0.667551 -0.030692
C14   C     C_3   0.849782 0.031168 0.695894 -0.997779
H29   H     H_    0.766728 0.976020 0.656114 0.229406
H30   H     H_    0.972614 0.003945 0.695401 0.247556
H31   H     H_    0.807031 0.024801 0.749819 0.291238
P8    P     P_3+3 0.380824 0.162444 0.591671 0.431236
C15   C     C_3   0.374919 0.196037 0.726508 0.452573
H32   H     H_    0.241246 0.196427 0.714818 0.003599
O23   O     O_2   0.502864 0.114140 0.544962 -0.392569
O24   O     O_3   0.436222 0.127587 0.676138 -0.512725
H33   H     H_    0.441438 0.279008 0.727898 0.119504
H34   H     H_    0.313650 0.189729 0.835181 0.205184
C16   C     C_3   0.399557 0.156705 0.799376 -0.863597
H35   H     H_    0.528397 0.183197 0.822102 0.291695
H36   H     H_    0.373238 0.067840 0.795576 0.262390
C17   C     C_R   0.075452 0.183230 0.526863 -0.533249
C18   C     C_R   0.730392 0.816582 0.476640 -0.523463
C19   C     C_R   0.703543 0.996540 0.448825 -0.174917
C20   C     C_R   0.638237 0.888625 0.447627 0.236598
C21   C     C_R   0.887772 0.849899 0.509468 0.252827
C22   C     C_R   0.951955 0.962189 0.515567 -0.049338
C23   C     C_R   0.858771 0.036599 0.483942 -0.085041
C24   C     C_R   0.922654 0.148917 0.490037 0.255974
C25   C     C_R   0.168969 0.111350 0.555372 0.208458
C26   C     C_R   0.106024 0.002607 0.551905 -0.192046
H37   H     H_    0.630021 0.048494 0.423605 0.189423
H38   H     H_    0.179855 0.950519 0.577008 0.192146
H39   H     H_    0.126424 0.266995 0.530368 0.172856
H40   H     H_    0.675942 0.733656 0.475686 0.175985
C27   C     C_R   0.618145 0.539772 0.298251 -0.554072
C28   C     C_R   0.462961 0.484226 0.276361 0.321015
C29   C     C_R   0.410249 0.468547 0.204120 -0.240053
C30   C     C_R   0.513181 0.508145 0.153430 0.007289
C31   C     C_R   0.672310 0.560391 0.176489 -0.164206
C32   C     C_R   0.724560 0.575242 0.248747 0.249870
C33   C     C_R   0.492279 0.576386 0.033381 -0.149777
C34   C     C_R   0.436170 0.564044 0.961767 -0.121246
C35   C     C_R   0.345356 0.467076 0.931053 0.199376
C36   C     C_R   0.313505 0.382728 0.973839 -0.062113
C37   C     C_R   0.365577 0.396131 0.046043 -0.118707
C38   C     C_R   0.456091 0.493265 0.076696 0.132725
C39   C     C_R   0.124983 0.403563 0.829338 0.220277
C40   C     C_R   0.081805 0.388265 0.755523 0.114530
C41   C     C_R   0.347769 0.482144 0.732833 0.387910
C42   C     C_R   0.393171 0.495597 0.805438 -0.242025
C43   C     C_R   0.286685 0.453631 0.854333 -0.125982
C44   C     C_R   0.199346 0.418228 0.708398 -0.445072
H41   H     H_    0.509927 0.542537 0.823929 0.161394
H42   H     H_    0.462307 0.630975 0.930594 0.148174
H43   H     H_    0.562173 0.651960 0.055001 0.189959
H44   H     H_    0.290027 0.424739 0.187645 0.157864
H45   H     H_    0.247684 0.306458 0.951280 0.139832
H46   H     H_    0.336477 0.329945 0.077624 0.158750
H47   H     H_    0.755426 0.588545 0.138432 0.171520
H48   H     H_    0.166211 0.403809 0.652029 0.189914
H49   H     H_    0.659692 0.550636 0.353885 0.180020
N1    N     N_R   0.611054 0.195588 0.214553 0.288753
O25   O     O_R   0.555492 0.185507 0.148134 -0.342925
O26   O     O_R   0.569458 0.117700 0.253162 -0.340062
N2    N     N_R   0.077291 0.645720 0.700013 0.204626
O27   O     O_R   0.191798 0.665102 0.752368 -0.432573
O28   O     O_R   0.095372 0.580584 0.645600 -0.410668
H50   H     H_    0.842285 0.680603 0.668109 0.047446
N3    N     N_R   0.553831 0.858819 0.168443 0.248136
O29   O     O_R   0.648473 0.785281 0.159824 -0.439382
O30   O     O_R   0.591493 0.950002 0.142334 -0.290751
N4    N     N_R   0.003056 0.375854 0.877880 0.238629
O31   O     O_R   0.993943 0.439177 0.934808 -0.384925
O32   O     O_R   0.907346 0.284142 0.868234 -0.362938

loop_
_geom_bond_atom_site_label_1
_geom_bond_atom_site_label_2
_geom_bond_distance
_ccdc_geom_bond_type
P7    O22   1.759489 S    
C23   C24   1.441591 A    
C14   H29   1.112969 S    
C34   H42   1.083167 S    
O5    C6    1.400899 S    
C25   C26   1.399884 A    
O6    P6    1.752637 S    
O7    Ba1   2.810765 S    
N1    O25   1.304857 A    
H1    C10   1.121279 S    
C35   C43   1.495102 S    
N3    O29   1.303866 A    
C42   C43   1.411275 A    
C4    C5    1.534638 S    
C18   H40   1.083685 S    
C12   H23   1.113168 S    
P3    O11   1.753142 S    
Ba1   O20   2.907389 S    
C5    H10   1.113628 S    
C2    H5    1.117819 S    
C16   H36   1.113551 S    
O11   C2    1.412337 S    
P6    C20   1.839244 S    
C11   O22   1.407425 S    
O2    Ba2   2.827880 S    
C41   C42   1.397178 A    
C17   C24   1.394600 A    
P1    Ba1   3.391943 S    
C7    H14   1.112445 S    
C34   C35   1.407003 A    
P1    O1    1.508403 D    
C33   C38   1.406200 A    
C36   C37   1.401013 A    
C12   H24   1.115377 S    
C27   H49   1.082129 S    
C9    H19   1.108734 S    
C37   C38   1.407332 A    
C26   H38   1.077446 S    
P5    O17   1.740313 S    
Ba1   O13   2.827274 S    
C17   C25   1.393640 A    
P2    O10   1.748681 S    
C33   C34   1.398318 A    
C13   H27   1.113203 S    
C1    H2    1.119419 S    
C3    H26   1.115513 S    
P2    O20   1.552690 S    
C41   C44   1.398839 A    
C9    H18   1.113361 S    
P5    C40   1.860299 S    
C11   H21   1.118906 S    
P1    C21   1.881688 S    
C14   H30   1.115327 S    
O6    C10   1.415008 S    
O19   C13   1.410615 S    
C30   C31   1.409471 A    
P4    O13   1.587205 S    
C17   H39   1.082387 S    
C22   C26   1.412707 A    
C11   H22   1.108044 S    
P7    C41   1.868730 S    
P1    O5    1.764419 S    
C27   C28   1.391773 A    
C2    C3    1.528560 S    
C16   H35   1.115033 S    
C21   C22   1.441818 A    
C30   C38   1.492151 S    
C15   H32   1.110745 S    
O10   C8    1.400672 S    
Ba2   O21   2.810808 S    
C4    H8    1.108714 S    
P8    C25   1.843189 S    
C19   H37   1.075656 S    
O1    Ba1   2.859884 S    
P1    O2    1.587234 S    
P2    C28   1.837426 S    
C8    H15   1.106165 S    
P4    Ba2   3.392630 S    
C36   H45   1.080677 S    
C1    H3    1.119954 S    
C15   H33   1.115330 S    
H34   C16   1.115132 S    
C18   C21   1.395295 A    
P8    O24   1.751435 S    
P5    O18   1.550581 D    
O13   Ba2   2.899265 S    
C13   C14   1.528157 S    
C7    H12   1.118365 S    
C1    C10   1.542191 S    
O16   Ba2   2.906419 S    
O2    Ba1   2.898336 S    
O16   P7    1.769514 S    
C4    O15   1.397146 S    
C40   C44   1.402848 A    
N4    O32   1.304362 A    
O14   Ba2   2.787648 S    
C39   C43   1.427222 A    
C1    N3    1.466871 S    
C9    H17   1.108354 S    
C18   C20   1.392278 A    
O12   Ba2   2.860510 S    
P3    O8    1.748938 S    
O3    P6    1.751885 S    
C14   H31   1.114639 S    
C3    H7    1.115367 S    
C4    H9    1.114786 S    
C10   H20   1.120263 S    
C33   H43   1.081135 S    
Ba1   O16   2.778816 S    
N2    O27   1.308024 A    
P4    O12   1.508770 D    
C39   C40   1.416390 A    
Ba2   O20   2.778316 S    
P8    O23   1.543684 D    
C27   C32   1.393085 A    
N3    O30   1.304771 A    
C11   C12   1.520277 S    
C12   H25   1.115653 S    
C37   H46   1.083968 S    
C3    H6    1.116062 S    
O4    P6    1.543918 D    
P2    O7    1.510614 D    
P3    C32   1.835233 S    
N2    O28   1.299647 A    
N1    O26   1.303935 A    
O8    Ba1   2.768673 S    
C8    C9    1.518790 S    
C31   C32   1.402348 A    
C42   H41   1.079701 S    
C31   H47   1.081124 S    
O17   Ba2   2.769201 S    
C6    C7    1.534436 S    
C2    H4    1.118434 S    
C5    H11   1.113427 S    
P2    Ba1   3.369270 S    
P4    O15   1.749522 S    
C35   C36   1.406751 A    
C6    H50   1.096259 S    
C15   O24   1.406173 S    
P5    O19   1.751041 S    
C22   C23   1.441545 A    
C7    H13   1.116645 S    
P7    O21   1.560205 D    
Ba1   Ba2   4.556931 S    
C19   C23   1.410614 A    
C28   C29   1.403012 A    
O3    Ba1   2.788294 S    
P4    C24   1.890144 S    
N4    O31   1.306350 A    
C15   C16   1.524223 S    
C8    H16   1.112175 S    
P3    O9    1.547226 D    
C29   C30   1.408737 A    
O14   P8    1.749991 S    
C39   N4    1.441339 S    
C13   H28   1.112245 S    
C44   H48   1.083015 S    
C19   C20   1.398200 A    
C29   H44   1.080022 S    
C6    N2    1.456946 S    
C5    N1    1.466478 S    
