data_mof_unit_66906.cif
_audit_creation_date              2013-03-05T15:57:26-0500
_audit_creation_method            fapswitch 2.2
_symmetry_space_group_name_H-M    P1
_symmetry_Int_Tables_number       1
_space_group_crystal_system       triclinic
_cell_length_a                    17.922591
_cell_length_b                    19.677889
_cell_length_c                    8.815779
_cell_angle_alpha                 90.235329
_cell_angle_beta                  100.675716
_cell_angle_gamma                 89.902926
_cell_volume                      3055.29599999

loop_
_atom_site_label
_atom_site_type_symbol
_atom_site_description
_atom_site_fract_x
_atom_site_fract_y
_atom_site_fract_z
_atom_type_partial_charge
P1    P     P_3+3 0.834140 0.419320 0.003900 0.449147
P2    P     P_3+3 0.834140 0.580680 0.503900 0.476411
P3    P     P_3+3 0.334140 0.919320 0.003900 0.468396
P4    P     P_3+3 0.334140 0.080680 0.503900 0.457691
O1    O     O_2   0.841960 0.394640 0.833410 -0.371844
O2    O     O_2   0.841960 0.605360 0.333410 -0.362842
O3    O     O_2   0.341960 0.894640 0.833410 -0.392411
O4    O     O_2   0.341960 0.105360 0.333410 -0.310338
O5    O     O_3   0.907950 0.463080 0.102990 -0.427987
O6    O     O_3   0.907950 0.536920 0.602990 -0.378477
O7    O     O_3   0.407950 0.963080 0.102990 -0.362656
O8    O     O_3   0.407950 0.036920 0.602990 -0.476326
O9    O     O_3   0.972780 0.329600 0.629720 -0.293999
O10   O     O_3   0.972780 0.670400 0.129720 -0.368592
O11   O     O_3   0.472780 0.829600 0.629720 -0.384948
O12   O     O_3   0.472780 0.170400 0.129720 -0.301320
O13   O     O_2   0.844182 0.271940 0.666159 -0.274910
O14   O     O_2   0.849872 0.738219 0.174678 -0.317669
O15   O     O_2   0.347621 0.767666 0.673709 -0.247728
O16   O     O_2   0.352433 0.237734 0.183440 -0.295268
O17   O     O_3   0.757334 0.473554 0.968488 -0.536988
O18   O     O_3   0.756010 0.527598 0.465120 -0.545841
O19   O     O_3   0.245512 0.960078 0.980730 -0.592202
O20   O     O_3   0.256477 0.026651 0.465314 -0.537229
O21   O     O_3   0.942550 0.188085 0.584747 -0.548418
O22   O     O_3   0.948101 0.812622 0.076584 -0.540487
O23   O     O_3   0.442751 0.688609 0.576043 -0.533237
O24   O     O_3   0.446069 0.312144 0.077857 -0.559007
C1    C     C_3   0.058991 0.125233 0.584761 -0.192145
C2    C     C_3   0.061441 0.875086 0.058152 -0.197164
C3    C     C_3   0.554870 0.621981 0.578462 -0.209867
C4    C     C_3   0.557715 0.376633 0.069795 -0.172348
H1    H     H_    0.615468 0.627776 0.621142 0.096543
H2    H     H_    0.619439 0.371474 0.101827 0.091405
H3    H     H_    0.121202 0.131473 0.607611 0.148609
H4    H     H_    0.123193 0.869176 0.092385 0.098097
P5    P     P_3+3 0.165830 0.418670 0.685610 0.470320
P6    P     P_3+3 0.165830 0.581330 0.185610 0.453582
P7    P     P_3+3 0.665830 0.918670 0.685610 0.451410
P8    P     P_3+3 0.665830 0.081330 0.185610 0.456106
P9    P     P_3+3 0.102757 0.275064 0.144142 0.607889
P10   P     P_3+3 0.105336 0.721875 0.644149 0.605387
P11   P     P_3+3 0.600815 0.772408 0.144028 0.610753
P12   P     P_3+3 0.604678 0.223336 0.643340 0.593837
O25   O     O_2   0.157990 0.394030 0.856030 -0.306665
O26   O     O_2   0.157990 0.605970 0.356030 -0.374275
O27   O     O_2   0.657990 0.894030 0.856030 -0.318964
O28   O     O_2   0.657990 0.105970 0.356030 -0.369591
O29   O     O_3   0.027110 0.329490 0.059550 -0.380005
O30   O     O_3   0.027110 0.670510 0.559550 -0.349277
O31   O     O_3   0.527110 0.829490 0.059550 -0.412838
O32   O     O_3   0.527110 0.170510 0.559550 -0.356264
O33   O     O_2   0.159728 0.278964 0.033391 -0.178575
O34   O     O_2   0.160453 0.723100 0.528855 -0.234118
O35   O     O_2   0.656796 0.768312 0.030448 -0.194833
O36   O     O_2   0.661910 0.221892 0.532269 -0.251222
O37   O     O_3   0.236528 0.479558 0.723735 -0.648690
O38   O     O_3   0.235652 0.520362 0.227485 -0.622633
O39   O     O_3   0.735984 0.979630 0.723764 -0.653313
O40   O     O_3   0.735875 0.020323 0.224146 -0.628306
O41   O     O_3   0.063044 0.194867 0.108647 -0.449700
O42   O     O_3   0.065229 0.801906 0.619309 -0.412923
O43   O     O_3   0.554984 0.693865 0.120099 -0.420054
O44   O     O_3   0.564517 0.303527 0.612448 -0.407438
C5    C     C_3   0.990075 0.198766 0.146631 0.547705
C6    C     C_3   0.988033 0.799104 0.630997 0.541050
C7    C     C_3   0.479488 0.705459 0.137287 0.629670
C8    C     C_3   0.488852 0.300760 0.635723 0.572580
H5    H     H_    0.954047 0.240194 0.088330 0.105604
H6    H     H_    0.953787 0.758849 0.563652 0.116655
H7    H     H_    0.448287 0.736933 0.041914 0.130219
H8    H     H_    0.453951 0.258931 0.576272 0.106136
H9    H     H_    0.993207 0.204809 0.271174 -0.113016
H10   H     H_    0.981159 0.794001 0.751887 -0.070957
H11   H     H_    0.476982 0.729658 0.248443 -0.145578
H12   H     H_    0.486415 0.297892 0.758720 -0.054452
C9    C     C_3   0.946722 0.136511 0.091985 -0.802834
C10   C     C_3   0.952218 0.862882 0.562960 -0.850822
C11   C     C_3   0.436277 0.640557 0.131834 -0.829567
C12   C     C_3   0.449071 0.362953 0.569229 -0.881057
H13   H     H_    0.377228 0.653192 0.084524 0.172623
H14   H     H_    0.426132 0.352971 0.446825 0.253790
H15   H     H_    0.895710 0.135098 0.143458 0.128578
H16   H     H_    0.934839 0.855459 0.437562 0.263255
H17   H     H_    0.930932 0.140042 0.966748 0.312402
H18   H     H_    0.992563 0.905839 0.581569 0.352565
H19   H     H_    0.459963 0.601962 0.062972 0.337691
H20   H     H_    0.488537 0.406080 0.577500 0.359752
C13   C     C_3   0.232129 0.491294 0.371092 0.440393
C14   C     C_3   0.232781 0.511218 0.864375 0.238667
C15   C     C_3   0.732808 0.990210 0.366555 0.417580
C16   C     C_3   0.734476 0.009073 0.867883 0.237484
H21   H     H_    0.243661 0.528759 0.466760 0.137966
H22   H     H_    0.237251 0.474902 0.961058 0.217616
H23   H     H_    0.743360 0.027331 0.462999 0.130579
H24   H     H_    0.746047 0.971724 0.962727 0.218753
H25   H     H_    0.176091 0.466974 0.369194 0.086418
H26   H     H_    0.179285 0.540157 0.854741 0.066252
H27   H     H_    0.677261 0.964828 0.363790 0.092454
H28   H     H_    0.678884 0.033771 0.868309 0.077622
C17   C     C_3   0.295238 0.440443 0.405128 -0.655745
C18   C     C_3   0.301300 0.555559 0.908886 -0.675976
C19   C     C_3   0.797126 0.940485 0.400822 -0.660319
C20   C     C_3   0.798197 0.059174 0.901001 -0.661786
H29   H     H_    0.297939 0.421567 0.523293 0.129840
H30   H     H_    0.302172 0.572128 0.028734 0.156798
H31   H     H_    0.799894 0.923044 0.520207 0.128858
H32   H     H_    0.803200 0.075844 0.022035 0.167428
Ba1   Ba    Ba6+2 0.000000 0.447380 0.844850 1.688022
Ba2   Ba    Ba6+2 0.000000 0.552620 0.344850 1.679499
Ba3   Ba    Ba6+2 0.500000 0.947380 0.844850 1.703472
Ba4   Ba    Ba6+2 0.500000 0.052620 0.344850 1.652101
C21   C     C_3   0.778501 0.532407 0.899235 0.181596
C22   C     C_3   0.777146 0.467477 0.399879 0.203485
C23   C     C_3   0.239402 0.023997 0.911134 0.169902
C24   C     C_3   0.277502 0.965800 0.401734 0.154788
H33   H     H_    0.816738 0.521837 0.816240 0.028684
H34   H     H_    0.817692 0.475763 0.320076 0.121809
H35   H     H_    0.209874 0.017957 0.789383 0.144754
H36   H     H_    0.316597 0.974314 0.319766 0.111211
C25   C     C_3   0.707807 0.562420 0.805687 -0.024059
C26   C     C_3   0.707154 0.436694 0.306561 -0.195769
C27   C     C_3   0.189682 0.067428 0.996901 -0.035666
C28   C     C_3   0.207276 0.933060 0.309996 -0.045576
H37   H     H_    0.723518 0.610322 0.755120 0.042690
H38   H     H_    0.724268 0.390637 0.250104 0.057523
H39   H     H_    0.129499 0.053351 0.961735 0.210361
H40   H     H_    0.223047 0.882826 0.268389 0.078330
H41   H     H_    0.683886 0.526773 0.712162 0.190563
H42   H     H_    0.681041 0.473280 0.217791 0.242260
H43   H     H_    0.206044 0.058620 0.122546 0.156995
H44   H     H_    0.184383 0.963790 0.209765 0.144480
O45   O     O_3   0.092100 0.536880 0.086720 -0.378379
O46   O     O_3   0.092100 0.463120 0.586720 -0.364516
O47   O     O_3   0.592100 0.036880 0.086720 -0.382551
O48   O     O_3   0.592100 0.963120 0.586720 -0.379671
P13   P     P_3+3 0.903422 0.733324 0.055906 0.543114
P14   P     P_3+3 0.901345 0.269101 0.554767 0.565672
P15   P     P_3+3 0.402496 0.232477 0.058895 0.623262
P16   P     P_3+3 0.401628 0.769445 0.555702 0.551904
C29   C     C_3   0.021639 0.194660 0.597875 0.674995
C30   C     C_3   0.025954 0.805244 0.078208 0.621954
C31   C     C_3   0.521130 0.693373 0.579785 0.721219
C32   C     C_3   0.524279 0.305999 0.084362 0.576718
H45   H     H_    0.036404 0.227899 0.506341 -0.151082
H46   H     H_    0.037383 0.770472 0.985838 -0.051682
H47   H     H_    0.534329 0.723211 0.482051 -0.175450
H48   H     H_    0.538106 0.272994 0.992134 -0.027651
H49   H     H_    0.434127 0.622113 0.247305 0.151777
H50   H     H_    0.402925 0.374487 0.631077 0.137175
H51   H     H_    0.980488 0.090430 0.120333 0.321267
H52   H     H_    0.903029 0.873610 0.616392 0.138040
C33   C     C_R   0.154573 0.670921 0.938697 -0.433665
C34   C     C_R   0.149159 0.326990 0.440671 -0.412378
C35   C     C_R   0.652499 0.171488 0.938815 -0.397731
C36   C     C_R   0.649360 0.826746 0.439237 -0.422903
C37   C     C_R   0.863208 0.321968 0.251492 -0.514986
C38   C     C_R   0.859429 0.677009 0.754420 -0.495142
C39   C     C_R   0.363123 0.823555 0.253416 -0.518007
C40   C     C_R   0.362293 0.179121 0.752941 -0.441795
C41   C     C_R   0.799849 0.215322 0.289175 -0.127045
C42   C     C_R   0.801575 0.787130 0.786139 -0.151037
C43   C     C_R   0.299314 0.716788 0.290888 -0.129169
C44   C     C_R   0.298816 0.285576 0.790637 -0.162025
C45   C     C_R   0.848063 0.270133 0.349024 0.070964
C46   C     C_R   0.847560 0.731384 0.849997 0.221225
C47   C     C_R   0.347354 0.771777 0.351157 0.149391
C48   C     C_R   0.346533 0.230724 0.852670 0.281402
C49   C     C_R   0.816990 0.332437 0.103963 0.165025
C50   C     C_R   0.815599 0.667551 0.604456 0.150905
C51   C     C_R   0.319935 0.831565 0.102477 0.194453
C52   C     C_R   0.315003 0.167093 0.606823 0.159998
C53   C     C_R   0.759799 0.278366 0.047799 0.018870
C54   C     C_R   0.759890 0.722188 0.546334 -0.030187
C55   C     C_R   0.263125 0.777097 0.045659 -0.027315
C56   C     C_R   0.257219 0.220683 0.551329 -0.003590
C57   C     C_R   0.254075 0.717700 0.141173 -0.062463
C58   C     C_R   0.250574 0.281905 0.643360 -0.058415
C59   C     C_R   0.752749 0.217640 0.141096 -0.026326
C60   C     C_R   0.753034 0.783287 0.639109 -0.068079
C61   C     C_R   0.196566 0.663663 0.085739 0.193991
C62   C     C_R   0.193739 0.335861 0.585694 0.198565
C63   C     C_R   0.695360 0.163720 0.085288 0.194715
C64   C     C_R   0.694569 0.836308 0.583760 0.208396
C65   C     C_R   0.163155 0.724693 0.843693 0.147012
C66   C     C_R   0.157195 0.271929 0.347577 0.186014
C67   C     C_R   0.659810 0.226459 0.845400 0.185950
C68   C     C_R   0.658447 0.772237 0.344519 0.194950
C69   C     C_R   0.216217 0.777865 0.896140 -0.108095
C70   C     C_R   0.208051 0.217676 0.404932 -0.171644
C71   C     C_R   0.711685 0.280268 0.899719 -0.110872
C72   C     C_R   0.712456 0.719983 0.397602 -0.136037
H53   H     H_    0.716093 0.322265 0.823223 0.197579
H54   H     H_    0.717748 0.678041 0.320827 0.237613
H55   H     H_    0.221234 0.819149 0.818373 0.240227
H56   H     H_    0.209205 0.172748 0.335860 0.226179
H57   H     H_    0.115727 0.631212 0.893149 0.184211
H58   H     H_    0.108820 0.365995 0.394922 0.150600
H59   H     H_    0.614884 0.130886 0.891608 0.160679
H60   H     H_    0.607960 0.865053 0.395134 0.140605
N1    N     N_R   0.052458 0.224717 0.745798 0.284836
O49   O     O_R   0.007079 0.233014 0.842723 -0.276159
O50   O     O_R   0.108558 0.266276 0.752348 -0.344785
N2    N     N_R   0.061924 0.777329 0.225143 0.275977
O51   O     O_R   0.022515 0.765856 0.331437 -0.272882
O52   O     O_R   0.133600 0.763537 0.250579 -0.404858
N3    N     N_R   0.556936 0.725842 0.722426 0.269743
O53   O     O_R   0.519022 0.735283 0.832166 -0.250177
O54   O     O_R   0.628012 0.741717 0.743991 -0.405113
N4    N     N_R   0.559052 0.277332 0.231008 0.284951
O55   O     O_R   0.518443 0.264949 0.334710 -0.265695
O56   O     O_R   0.628627 0.256919 0.251534 -0.399726
C73   C     C_2   0.280577 0.381744 0.296026 0.606974
H61   H     H_    0.314243 0.336261 0.316148 0.071043
O57   O     O_2   0.227106 0.383092 0.188278 -0.509225
C74   C     C_2   0.296456 0.615652 0.806197 0.644822
H62   H     H_    0.243492 0.627612 0.730268 0.061239
O58   O     O_2   0.351022 0.652702 0.810222 -0.481454
C75   C     C_2   0.783843 0.880235 0.295632 0.607411
H63   H     H_    0.819164 0.835852 0.319507 0.069044
O59   O     O_2   0.730462 0.879051 0.187465 -0.514374
C76   C     C_2   0.779985 0.118476 0.797149 0.601110
H64   H     H_    0.732988 0.115877 0.700159 0.091301
O60   O     O_2   0.815150 0.171155 0.824032 -0.537084
C77   C     C_2   0.367047 0.476859 0.393821 0.605022
H65   H     H_    0.387721 0.477734 0.286609 0.153688
O61   O     O_2   0.397504 0.512197 0.501011 -0.593685
C78   C     C_2   0.370556 0.514428 0.901471 0.749347
H66   H     H_    0.391901 0.509712 0.794814 0.117862
O62   O     O_2   0.399118 0.481068 0.012650 -0.594227
C79   C     C_2   0.868514 0.977249 0.386171 0.632789
H67   H     H_    0.883271 0.984602 0.273658 0.137644
O63   O     O_2   0.906347 0.004454 0.498975 -0.604659
C80   C     C_2   0.869790 0.024861 0.877557 0.710597
H68   H     H_    0.887710 0.027370 0.767254 0.133727
O64   O     O_2   0.904926 0.989587 0.979440 -0.576693
C81   C     C_2   0.814488 0.582103 0.020263 0.459304
H69   H     H_    0.873426 0.577127 0.072992 0.090632
O65   O     O_2   0.778595 0.629593 0.059250 -0.500881
C82   C     C_2   0.808813 0.419179 0.524181 0.529097
H70   H     H_    0.773292 0.385974 0.576848 0.092776
O66   O     O_2   0.876133 0.418319 0.573154 -0.460866
C83   C     C_2   0.313654 0.056259 0.909529 0.585980
H71   H     H_    0.338377 0.044870 0.811362 -0.079326
O67   O     O_2   0.349270 0.084784 0.023080 -0.531737
C84   C     C_2   0.311473 0.918325 0.527548 0.543427
H72   H     H_    0.369626 0.923833 0.584534 0.135255
O68   O     O_2   0.274195 0.872154 0.567115 -0.515087
N5    N     N_R   0.652461 0.575890 0.903672 0.311210
O69   O     O_R   0.623758 0.526455 0.969575 -0.269865
O70   O     O_R   0.636766 0.637612 0.937568 -0.228671
N6    N     N_R   0.654097 0.418303 0.405980 0.277914
O71   O     O_R   0.622961 0.464712 0.478133 -0.308932
O72   O     O_R   0.651069 0.355838 0.448855 -0.301512
N7    N     N_R   0.199664 0.138904 0.971873 0.264445
O73   O     O_R   0.235334 0.173731 0.086764 -0.331247
O74   O     O_R   0.197447 0.161602 0.833752 -0.452079
N8    N     N_R   0.150013 0.924594 0.405243 0.317734
O75   O     O_R   0.122255 0.976471 0.465685 -0.251849
O76   O     O_R   0.132287 0.864494 0.443882 -0.221558
C85   C     C_2   0.551348 0.591224 0.422982 0.599930
H73   H     H_    0.509075 0.552999 0.382472 0.137837
O77   O     O_2   0.599697 0.604133 0.346687 -0.515692
C86   C     C_2   0.542741 0.400838 0.907964 0.631556
H74   H     H_    0.486449 0.417506 0.855611 0.046862
O78   O     O_2   0.594322 0.402471 0.834974 -0.516577
C87   C     C_2   0.039188 0.098730 0.424695 0.644650
H75   H     H_    0.981846 0.082861 0.379008 0.051264
O79   O     O_2   0.087690 0.095876 0.344220 -0.542172
C88   C     C_2   0.048873 0.897653 0.895862 0.567852
H76   H     H_    0.993071 0.914911 0.841487 0.075815
O80   O     O_2   0.102139 0.900229 0.827696 -0.506699
C89   C     C_2   0.307455 0.653076 0.374932 0.716455
H77   H     H_    0.324797 0.608132 0.321235 -0.046474
O81   O     O_2   0.293581 0.649938 0.503771 -0.522748
C90   C     C_2   0.314262 0.351921 0.862408 0.688963
H78   H     H_    0.328941 0.393199 0.794785 -0.080004
O82   O     O_2   0.311454 0.361235 0.996913 -0.488115
C91   C     C_2   0.810638 0.150721 0.370768 0.703659
H79   H     H_    0.828619 0.106673 0.314715 -0.075929
O83   O     O_2   0.799846 0.146038 0.501810 -0.534741
C92   C     C_2   0.817861 0.853871 0.856946 0.676804
H80   H     H_    0.832530 0.895066 0.788540 -0.049881
O84   O     O_2   0.815726 0.863716 0.991727 -0.492241
C93   C     C_2   0.938638 0.353895 0.298426 0.833234
H81   H     H_    0.988070 0.322244 0.306315 -0.188897
O85   O     O_2   0.946970 0.410609 0.353723 -0.529851
C94   C     C_2   0.925936 0.634338 0.811502 0.625409
H82   H     H_    0.921133 0.582645 0.847590 -0.008626
O86   O     O_2   0.988675 0.659271 0.829100 -0.645828
C95   C     C_2   0.434705 0.861308 0.305933 0.657385
H83   H     H_    0.487702 0.837567 0.299525 -0.045058
O87   O     O_2   0.436524 0.915344 0.373624 -0.592703
C96   C     C_2   0.436249 0.144463 0.801299 0.591995
H84   H     H_    0.443566 0.091485 0.827137 0.086973
O88   O     O_2   0.493013 0.178475 0.832221 -0.694127
N9    N     N_R   0.038364 0.075707 0.692684 0.262918
O89   O     O_R   0.008009 0.094400 0.808431 -0.391113
O90   O     O_R   0.060328 0.013314 0.687145 -0.336589
N10   N     N_R   0.034609 0.928725 0.150001 0.290354
O91   O     O_R   0.994666 0.915289 0.254682 -0.336286
O92   O     O_R   0.053919 0.991262 0.131813 -0.382002
N11   N     N_R   0.522545 0.575412 0.678223 0.283005
O93   O     O_R   0.491156 0.597939 0.790155 -0.292076
O94   O     O_R   0.538200 0.511266 0.675094 -0.347718
N12   N     N_R   0.529616 0.426551 0.169642 0.292472
O95   O     O_R   0.497633 0.407247 0.282449 -0.348460
O96   O     O_R   0.541715 0.490957 0.155423 -0.321988

loop_
_geom_bond_atom_site_label_1
_geom_bond_atom_site_label_2
_geom_bond_distance
_ccdc_geom_bond_type
N7    O74   1.292362 A    
N9    O90   1.292166 A    
C30   H46   1.109049 S    
C95   H83   1.068552 S    
P9    O41   1.735565 S    
C11   H19   1.102785 S    
P11   O43   1.745122 S    
N11   O94   1.293895 A    
C36   H60   1.078695 S    
P12   O44   1.734754 S    
C38   C46   1.399396 A    
C92   H80   1.073966 S    
P6    C61   1.974319 S    
P14   C45   1.886968 S    
C22   C82   1.484087 S    
O25   Ba1   3.002850 S    
C53   C59   1.472219 A    
O30   Ba2   2.971058 S    
C17   C77   1.493671 S    
C4    C86   1.482422 S    
C37   C49   1.422171 A    
C17   C73   1.492166 S    
P2    O18   1.730141 S    
O23   C31   1.402301 S    
O24   C32   1.397297 S    
P4    O8    1.681888 S    
P5    Ba1   3.557658 S    
C29   H45   1.110424 S    
C11   H49   1.089529 S    
P7    Ba3   3.557658 S    
C80   O64   1.216200 D    
P9    O29   1.779990 S    
P13   C46   1.903989 S    
O43   C7    1.407284 S    
P7    O48   1.687249 S    
C73   O57   1.218295 D    
P8    O47   1.685857 S    
C23   C27   1.529008 S    
O37   C14   1.397945 S    
Ba1   O45   3.007984 S    
C44   C48   1.422655 A    
C7    C11   1.490705 S    
C55   C57   1.469951 A    
C35   C67   1.383199 A    
C53   C71   1.425620 A    
C20   C80   1.496414 S    
C4    H2    1.094523 S    
C66   C70   1.434072 A    
O14   P13   1.548530 D    
N11   O93   1.299203 A    
O10   P13   1.789852 S    
C8    H8    1.104621 S    
N12   O95   1.294945 A    
C40   C52   1.423853 A    
C58   C62   1.494062 A    
O17   C21   1.396768 S    
O26   Ba2   3.005918 S    
C88   O80   1.219855 D    
P5    O25   1.611342 D    
N10   O91   1.296708 A    
P7    O27   1.611342 D    
C50   C54   1.492214 A    
O5    Ba2   3.008017 S    
P8    O28   1.607481 D    
C13   C17   1.497842 S    
O7    Ba4   3.008017 S    
C15   C19   1.499039 S    
C1    H3    1.102677 S    
C2    H4    1.098005 S    
C3    C85   1.486712 S    
C12   H20   1.099203 S    
C3    N11   1.464940 S    
C2    N10   1.461691 S    
C6    H6    1.104278 S    
O27   Ba3   3.002850 S    
C39   C47   1.399601 A    
C91   O83   1.210048 D    
C3    C31   1.529383 S    
O38   C13   1.403434 S    
C4    C32   1.529802 S    
P3    O7    1.680508 S    
C16   C20   1.496445 S    
C26   N6    1.454625 S    
O41   C5    1.410692 S    
C93   O85   1.214309 D    
C19   H31   1.100684 S    
P5    O37   1.731493 S    
C60   C64   1.495221 A    
C94   O86   1.210696 D    
N6    O71   1.294223 A    
P8    O40   1.724183 S    
C43   C47   1.422470 A    
Ba3   Ba4   4.877817 S    
O22   P13   1.748475 S    
Ba3   O47   3.007984 S    
P8    Ba4   3.561088 S    
C34   C66   1.379912 A    
N5    O69   1.290578 A    
O44   C8    1.409810 S    
O16   P15   1.544363 D    
C95   O87   1.214696 D    
C74   O58   1.215957 D    
C85   H73   1.080194 S    
C34   H58   1.080326 S    
C35   C63   1.383675 A    
Ba3   O48   3.065665 S    
O32   Ba4   2.971058 S    
C6    H10   1.100282 S    
C16   H24   1.105691 S    
C28   H44   1.088119 S    
O6    Ba1   3.014993 S    
C14   C18   1.498541 S    
O9    Ba1   2.971759 S    
C86   H74   1.079843 S    
C41   C59   1.418064 A    
P10   O42   1.727854 S    
C42   C60   1.422780 A    
P7    C64   1.963351 S    
P8    C63   1.969491 S    
C1    N9    1.459733 S    
P12   O32   1.782431 S    
P16   C47   1.884293 S    
C56   C58   1.466656 A    
C9    H17   1.090258 S    
C42   C46   1.424639 A    
C81   H69   1.076844 S    
N1    O50   1.289949 A    
O24   P15   1.746155 S    
Ba4   O48   3.014957 S    
C20   C76   1.484344 S    
C77   H65   1.077413 S    
C19   C79   1.497401 S    
O42   C6    1.407484 S    
C12   H14   1.098274 S    
C37   C45   1.395701 A    
C38   C50   1.418892 A    
C24   H36   1.109136 S    
C30   N2    1.445860 S    
C25   H37   1.103340 S    
C27   H39   1.101230 S    
C1    C29   1.533689 S    
C18   C78   1.492075 S    
C76   O60   1.213577 D    
P9    O33   1.540117 D    
P10   O30   1.776143 S    
C21   H33   1.110085 S    
P10   C65   1.869623 S    
C18   C74   1.484828 S    
O28   Ba4   3.005918 S    
C24   C84   1.493338 S    
O20   C24   1.400420 S    
N4    O56   1.290093 A    
Ba2   O46   3.014957 S    
C7    H11   1.096103 S    
C54   C60   1.469085 A    
C35   H59   1.077582 S    
P11   O35   1.544999 D    
O10   Ba2   2.982600 S    
C84   H72   1.075336 S    
P4    C52   1.983192 S    
C90   O82   1.209315 D    
C87   H75   1.078244 S    
C65   C69   1.431574 A    
C8    H12   1.094940 S    
C92   O84   1.210674 D    
C68   C72   1.430393 A    
O9    P14   1.782775 S    
N8    O75   1.290565 A    
C57   C61   1.498225 A    
C82   H70   1.077594 S    
C77   O61   1.216247 D    
P9    C66   1.877374 S    
C12   H50   1.094646 S    
C13   H21   1.108319 S    
C41   C45   1.420537 A    
P6    O26   1.607481 D    
P12   C67   1.870938 S    
C15   H23   1.108151 S    
O18   C22   1.395535 S    
C21   C25   1.499525 S    
N2    O51   1.294390 A    
N3    O54   1.291345 A    
C49   C53   1.496410 A    
P5    O46   1.687249 S    
C15   H27   1.110748 S    
C52   C56   1.495565 A    
C54   C72   1.424958 A    
C2    C88   1.476604 S    
C78   O62   1.213211 D    
C36   C64   1.389702 A    
C44   C58   1.421995 A    
C73   H61   1.075371 S    
C40   C48   1.402699 A    
C4    N12   1.465858 S    
C39   C51   1.419262 A    
P1    O1    1.608209 D    
C32   N4    1.443688 S    
P3    O3    1.608209 D    
O4    Ba4   2.999211 S    
C96   H84   1.070650 S    
P4    O20   1.734980 S    
C83   H71   1.065680 S    
N9    O89   1.294007 A    
C78   H66   1.082352 S    
P1    Ba1   3.558609 S    
P6    O38   1.723069 S    
C31   N3    1.448153 S    
P3    Ba3   3.558609 S    
C43   C57   1.415409 A    
N12   O96   1.296657 A    
C91   H79   1.074172 S    
P6    Ba2   3.561088 S    
C27   N7    1.441173 S    
C32   H48   1.101851 S    
C28   H40   1.107278 S    
C28   N8    1.451585 S    
N10   O92   1.297494 A    
C14   H22   1.105928 S    
C36   C68   1.384456 A    
C6    C10   1.485817 S    
N3    O53   1.293776 A    
C5    C9    1.481975 S    
C41   C91   1.458063 S    
C75   H63   1.076132 S    
C37   C93   1.478863 S    
C23   H35   1.111279 S    
C31   H47   1.105983 S    
C71   H53   1.080975 S    
C93   H81   1.073925 S    
P12   O36   1.543865 D    
C56   C70   1.422632 A    
P7    O39   1.725730 S    
P1    O5    1.680508 S    
C79   O63   1.217502 D    
P2    C50   1.978188 S    
C33   C61   1.380905 A    
C1    C87   1.482635 S    
C80   H68   1.080427 S    
C20   H32   1.102691 S    
O12   Ba4   2.982600 S    
N6    O72   1.291654 A    
O11   P16   1.773040 S    
C43   C89   1.452235 S    
P2    Ba2   3.555258 S    
C24   C28   1.508176 S    
C27   H43   1.106349 S    
Ba1   O46   3.065665 S    
C44   C90   1.452900 S    
O21   C29   1.406802 S    
C25   H41   1.104969 S    
C2    C30   1.539869 S    
Ba1   Ba2   4.877817 S    
P10   O34   1.543305 D    
C87   O79   1.220713 D    
P11   O31   1.788488 S    
O1    Ba1   3.002244 S    
P11   C68   1.874711 S    
C5    H5    1.106520 S    
P5    C62   1.957056 S    
O3    Ba3   3.002244 S    
C7    H7    1.110010 S    
O39   C16   1.399015 S    
P15   C48   1.906942 S    
C39   C95   1.480714 S    
C86   O78   1.220802 D    
C88   H76   1.080696 S    
C19   C75   1.494114 S    
C8    C12   1.482504 S    
P1    O17   1.723337 S    
N1    O49   1.293877 A    
P3    O19   1.756390 S    
P4    O4    1.612077 D    
C9    H51   1.093119 S    
C10   H52   1.093660 S    
C38   C94   1.468652 S    
C29   N1    1.443388 S    
C33   H57   1.073415 S    
C9    H15   1.093823 S    
C5    H9    1.094933 S    
P6    O45   1.685857 S    
C69   H55   1.079687 S    
C89   O81   1.208713 D    
O15   P16   1.547232 D    
C83   O67   1.218381 D    
C3    H1    1.087569 S    
O13   P14   1.545701 D    
C67   C71   1.431467 A    
C70   H56   1.073794 S    
C10   H18   1.105106 S    
C21   C81   1.499765 S    
P4    Ba4   3.555258 S    
O2    Ba2   2.999211 S    
P2    O2    1.612077 D    
C59   C63   1.495903 A    
C42   C92   1.458324 S    
C17   H29   1.099964 S    
C84   O68   1.218405 D    
N5    O70   1.292507 A    
O11   Ba3   2.971759 S    
C74   H62   1.081512 S    
C85   O77   1.218969 D    
C51   C55   1.498920 A    
C13   H25   1.110560 S    
C26   H38   1.102314 S    
N8    O76   1.288518 A    
C40   C96   1.481125 S    
C75   O59   1.219443 D    
C25   N5    1.454330 S    
C82   O66   1.203935 D    
C89   H77   1.073784 S    
C90   H78   1.071077 S    
C22   H34   1.113713 S    
C23   C83   1.477899 S    
N2    O52   1.291032 A    
C81   O65   1.217580 D    
O12   P15   1.782815 S    
Ba4   O47   3.063211 S    
N7    O73   1.288448 A    
P2    O6    1.681888 S    
C16   H28   1.108451 S    
O29   Ba1   2.981893 S    
O40   C15   1.400747 S    
O31   Ba3   2.981893 S    
C55   C69   1.426194 A    
C11   H13   1.091891 S    
O23   P16   1.747862 S    
C94   H82   1.075367 S    
O21   P14   1.756128 S    
C96   O88   1.206368 D    
P3    C51   1.974270 S    
C33   C65   1.378524 A    
C34   C62   1.386926 A    
P1    C49   1.977445 S    
C26   H42   1.103441 S    
C18   H30   1.101781 S    
C76   H64   1.084513 S    
O19   C23   1.396953 S    
C22   C26   1.494484 S    
C10   H16   1.100771 S    
N4    O55   1.293767 A    
C79   H67   1.083158 S    
Ba2   O45   3.063211 S    
O22   C30   1.400056 S    
C14   H26   1.104163 S    
O8    Ba3   3.014993 S    
C72   H54   1.080369 S    
