data_mof_unit_25323.cif
_audit_creation_date              2012-12-11T20:46:29-0500
_audit_creation_method            fapswitch 2.2
_symmetry_space_group_name_H-M    P1
_symmetry_Int_Tables_number       1
_space_group_crystal_system       triclinic
_cell_length_a                    8.329389
_cell_length_b                    18.845778
_cell_length_c                    18.802671
_cell_angle_alpha                 101.125057
_cell_angle_beta                  93.733041
_cell_angle_gamma                 91.798412
_cell_volume                      2887.00601996

loop_
_atom_site_label
_atom_site_type_symbol
_atom_type_description
_atom_site_fract_x
_atom_site_fract_y
_atom_site_fract_z
_atom_type_partial_charge
Ba1   Ba    Ba6+2 0.153490 0.533960 0.468530 1.724389
Ba2   Ba    Ba6+2 0.656680 0.466030 0.531410 1.719698
C1    C     C_3   0.335486 0.725570 0.215286 -0.348647
C2    C     C_3   0.379419 0.700236 0.285835 0.331221
C3    C     C_3   0.510390 0.688733 0.639585 0.293450
C4    C     C_3   0.527444 0.770890 0.660241 -0.366502
C5    C     C_3   0.856543 0.273694 0.665889 0.385177
C6    C     C_3   0.830849 0.193544 0.674754 0.362967
C7    C     C_3   0.457549 0.306501 0.720695 0.599959
C8    C     C_3   0.539457 0.295045 0.793585 -0.296702
C9    C     C_R   0.002339 0.951919 0.532436 0.014613
C10   C     C_R   0.086327 0.905638 0.571278 -0.068584
C11   C     C_R   0.223071 0.047193 0.555629 -0.070761
C12   C     C_3   0.902563 0.725829 0.325134 0.354854
C13   C     C_R   0.064237 0.022823 0.529369 0.031940
C14   C     C_R   0.279523 0.117473 0.555918 -0.066899
C15   C     C_R   0.180100 0.167392 0.530779 -0.015583
C16   C     C_R   0.024381 0.143351 0.498666 -0.014335
C17   C     C_R   0.966818 0.070467 0.497128 0.022465
C18   C     C_R   0.231667 0.240719 0.537106 0.094923
C19   C     C_R   0.127701 0.289096 0.512016 -0.234343
C20   C     C_R   0.978727 0.266002 0.474723 -0.030847
C21   C     C_R   0.926846 0.191816 0.467502 -0.055645
C22   C     C_R   0.848656 0.927120 0.498186 0.026806
C23   C     C_3   0.914682 0.798993 0.302639 -0.357794
C24   C     C_R   0.790878 0.854359 0.497121 0.000911
C25   C     C_R   0.885604 0.806768 0.530890 -0.047398
C26   C     C_R   0.028144 0.835464 0.571296 -0.015707
C27   C     C_R   0.782168 0.163978 0.428794 -0.027066
C28   C     C_R   0.725464 0.093441 0.427280 -0.093612
C29   C     C_R   0.812260 0.045988 0.463596 0.007225
C30   C     C_R   0.751826 0.974496 0.465215 0.024054
C31   C     C_R   0.594923 0.949192 0.436706 -0.102665
C32   C     C_R   0.636614 0.829806 0.463674 -0.027387
C33   C     C_R   0.539273 0.878815 0.435912 -0.096877
C34   C     C_3   0.930051 0.263471 0.303128 0.383344
C35   C     C_R   0.583272 0.757129 0.459651 -0.009360
C36   C     C_R   0.684845 0.709142 0.486605 -0.300123
C37   C     C_R   0.833116 0.732642 0.524114 0.043531
C38   C     C_2   0.619931 0.485876 0.270508 0.212606
C39   C     C_3   0.673266 0.561086 0.262423 -0.135458
C40   C     C_2   0.605222 0.573229 0.189229 -0.095567
C41   C     C_2   0.462333 0.538600 0.160700 -0.101870
C42   C     C_2   0.382429 0.488574 0.204194 -0.154124
C43   C     C_1   0.461556 0.475929 0.264655 -0.038755
C44   C     C_R   0.307295 0.527772 0.940658 0.465977
C45   C     C_3   0.835030 0.211424 0.241722 -0.269074
C46   C     C_R   0.403436 0.540354 0.084211 0.443638
C47   C     C_R   0.364749 0.539373 0.813869 -0.133759
C48   C     C_R   0.322608 0.527762 0.739231 0.017952
C49   C     C_R   0.066929 0.469731 0.757524 0.112181
C50   C     C_R   0.108536 0.482129 0.832674 -0.069817
C51   C     C_R   0.258654 0.516736 0.861575 -0.056548
C52   C     C_R   0.174223 0.493401 0.711739 -0.194308
C53   C     C_3   0.013534 0.637105 0.695740 0.302480
C54   C     C_3   0.018305 0.663282 0.777674 -0.372221
C55   C     C_3   0.321474 0.313635 0.371844 0.359287
C56   C     C_3   0.342583 0.232461 0.350908 -0.357134
H1    H     H_    0.335509 0.642924 0.279894 0.051617
H2    H     H_    0.722029 0.191617 0.261081 0.095532
H3    H     H_    0.806191 0.238303 0.195266 0.184623
H4    H     H_    0.908323 0.164283 0.222242 0.051239
H5    H     H_    0.136850 0.625605 0.679833 0.002146
H6    H     H_    0.932526 0.587768 0.680394 0.033615
H7    H     H_    0.098931 0.712612 0.794135 0.137335
H8    H     H_    0.063872 0.621239 0.806357 0.046138
H9    H     H_    0.895270 0.676132 0.794252 0.129547
H10   H     H_    0.199590 0.324260 0.389549 -0.090803
H11   H     H_    0.410658 0.335583 0.417542 0.084703
H12   H     H_    0.203532 0.718615 0.201722 0.155221
H13   H     H_    0.256433 0.207902 0.304563 0.104769
H14   H     H_    0.322471 0.205871 0.397401 0.045562
H15   H     H_    0.466595 0.222438 0.334378 0.124219
H16   H     H_    0.512538 0.704574 0.295476 -0.055836
H17   H     H_    0.397719 0.693541 0.170229 0.072167
H18   H     H_    0.627775 0.667504 0.623208 0.017533
H19   H     H_    0.418187 0.674086 0.593223 0.070886
H20   H     H_    0.622632 0.787311 0.705132 0.138670
H21   H     H_    0.560642 0.793996 0.613033 0.060835
H22   H     H_    0.411452 0.793095 0.678047 0.124492
H23   H     H_    0.372953 0.783581 0.220873 0.113483
H24   H     H_    0.880327 0.842100 0.347328 0.073445
H25   H     H_    0.754008 0.288247 0.632893 0.003426
H26   H     H_    0.957337 0.275540 0.631317 0.061473
H27   H     H_    0.900849 0.159032 0.634475 0.000124
H28   H     H_    0.705169 0.173913 0.658278 0.010776
H29   H     H_    0.495824 0.361344 0.713597 0.057143
H30   H     H_    0.524519 0.343819 0.836042 0.084654
H31   H     H_    0.984816 0.727651 0.374483 0.090637
H32   H     H_    0.668695 0.289346 0.789920 0.154484
H33   H     H_    0.167234 0.345335 0.518327 0.074894
H34   H     H_    0.402089 0.132187 0.577299 0.101589
H35   H     H_    0.098147 0.804107 0.603318 0.104702
H36   H     H_    0.709613 0.196297 0.399053 0.086771
H37   H     H_    0.418023 0.863777 0.413005 0.113033
H38   H     H_    0.643112 0.653455 0.482485 0.064212
H39   H     H_    0.308808 0.012539 0.575296 0.074442
H40   H     H_    0.196838 0.922727 0.604023 0.075723
H41   H     H_    0.613021 0.077571 0.395808 0.061153
H42   H     H_    0.776659 0.716388 0.338245 -0.089153
H43   H     H_    0.509655 0.982865 0.415293 0.068672
H44   H     H_    0.670331 0.608578 0.160694 0.110537
H45   H     H_    0.478846 0.567260 0.834558 0.097049
H46   H     H_    0.026653 0.462652 0.867777 0.113825
H47   H     H_    0.142000 0.484585 0.653902 0.063744
H48   H     H_    0.039967 0.811076 0.290256 0.143101
H49   H     H_    0.832249 0.798764 0.253724 0.114065
H50   H     H_    0.028490 0.290164 0.279546 0.086786
H51   H     H_    0.984956 0.230021 0.339521 -0.151822
N1    N     N_R   0.460023 0.551144 0.966356 -0.240296
N2    N     N_R   0.507121 0.557172 0.036462 -0.226197
N3    N     N_R   0.249531 0.518893 0.058833 -0.222422
N4    N     N_R   0.202423 0.512637 0.988656 -0.219843
O1    O     O_2   0.117290 0.676350 0.548250 -0.469759
O2    O     O_3   0.341738 0.344148 0.310694 -0.594036
O3    O     O_3   0.947323 0.671889 0.268123 -0.603742
O4    O     O_2   0.693010 0.323600 0.451730 -0.472110
O5    O     O_3   0.941240 0.413050 0.457220 -0.464121
O6    O     O_3   0.453310 0.371360 0.582690 -0.463646
O7    O     O_3   0.829183 0.316991 0.336758 -0.534135
O8    O     O_3   0.371310 0.539060 0.587050 -0.484291
O9    O     O_3   0.867330 0.408540 0.621000 -0.497307
O10   O     O_2   0.729105 0.446761 0.746074 -0.528313
O11   O     O_3   0.882494 0.324870 0.731855 -0.512566
O12   O     O_3   0.869060 0.586940 0.542720 -0.494405
O13   O     O_3   0.438990 0.460930 0.412890 -0.511363
O14   O     O_2   0.623700 0.539890 0.674570 -0.464081
O15   O     O_3   0.463913 0.661743 0.699922 -0.641949
O16   O     O_2   0.560069 0.243591 0.524865 -0.534671
O17   O     O_3   0.496968 0.253855 0.661055 -0.677246
O18   O     O_3   0.356990 0.628630 0.417250 -0.497492
O19   O     O_2   0.256827 0.756176 0.478787 -0.489646
O20   O     O_3   0.956210 0.692429 0.663083 -0.638482
O21   O     O_3   0.306179 0.744008 0.342509 -0.602123
O22   O     O_2   0.186600 0.460070 0.325400 -0.430184
O23   O     O_3   0.942970 0.591450 0.378940 -0.489392
O24   O     O_2   0.010445 0.535721 0.244160 -0.394159
P1    P     P_3+3 0.945300 0.665790 0.568510 0.970192
P2    P     P_3+3 0.360080 0.438780 0.334620 1.043388
P3    P     P_3+3 0.893223 0.587166 0.286623 1.052721
P4    P     P_3+3 0.865000 0.334200 0.431430 1.041774
P5    P     P_3+3 0.884335 0.414262 0.715261 1.052271
P6    P     P_3+3 0.377424 0.722048 0.424764 0.923412
P7    P     P_3+3 0.446451 0.567128 0.677492 0.949984
P8    P     P_3+3 0.434838 0.277411 0.576724 0.969880
S1    S     S_3+6 0.882656 0.169880 0.761698 -0.009425
O25   O     O_2   0.738022 0.132962 0.784663 -0.310576
O26   O     O_2   0.014626 0.116923 0.753418 -0.251406
O27   O     O_3   0.943186 0.241616 0.826993 -0.426535
H52   H     H_    0.973238 0.221051 0.870409 0.368789
S2    S     S_3+6 0.248430 0.302556 0.725081 -0.107014
O28   O     O_2   0.200992 0.332195 0.800394 -0.283433
O29   O     O_2   0.186060 0.346986 0.672652 -0.424699
O30   O     O_3   0.179700 0.216412 0.697235 -0.499996
H53   H     H_    0.268801 0.185435 0.706938 0.343171
C57   C     C_1   0.475871 0.231630 0.819525 0.467234
N5    N     N_1   0.425312 0.182115 0.840375 -0.193159
C58   C     C_1   0.258422 0.435595 0.168515 0.436756
N6    N     N_1   0.159632 0.393082 0.140171 -0.185591
S3    S     S_3+6 0.722061 0.412826 0.222220 -0.063726
O31   O     O_2   0.887071 0.409739 0.257770 -0.249447
O32   O     O_2   0.628073 0.343025 0.220349 -0.330904
O33   O     O_3   0.741596 0.423976 0.136505 -0.479313
H54   H     H_    0.637526 0.405869 0.109628 0.336274

loop_
_geom_bond_atom_site_label_1
_geom_bond_atom_site_label_2
_ccdc_geom_bond_type
C5    H25   S    
C53   C54   S    
C34   H50   S    
C32   C35   A    
C42   C58   S    
C39   C40   S    
O4    P4    D    
O33   H54   S    
C5    O11   S    
O23   P3    S    
O5    P4    S    
C17   C29   A    
C45   H4    S    
Ba2   O5    S    
C5    C6    S    
C55   O2    S    
C7    O17   S    
C42   C43   D    
O22   P2    D    
C8    H30   S    
C24   C25   A    
C48   C52   A    
C10   C26   A    
C31   H43   S    
C21   C27   A    
C57   N5    T    
C22   C24   A    
C16   C17   A    
C3    C4    S    
C47   C51   A    
C56   H13   S    
C4    H20   S    
C54   H7    S    
C23   H24   S    
C9    C22   A    
C43   P2    S    
C15   C18   A    
C3    O15   S    
C34   C45   S    
C32   C33   A    
S2    O30   S    
N1    N2    A    
C39   P3    S    
C45   H2    S    
C12   O3    S    
C9    C13   A    
C24   C32   A    
C7    S2    S    
C25   C37   A    
C14   C15   A    
C53   H5    S    
C1    H23   S    
S2    O28   D    
Ba1   O23   S    
C1    H17   S    
C7    C8    S    
C2    H16   S    
C52   H47   S    
O14   P7    D    
Ba2   O14   S    
O19   P6    D    
O1    P1    D    
C5    H26   S    
O21   P6    S    
C37   P1    S    
O20   P1    S    
C19   C20   A    
O17   P8    S    
O8    P7    S    
O11   P5    S    
O10   P5    D    
C40   H44   S    
N3    N4    A    
Ba2   O4    S    
C48   P7    S    
C23   H48   S    
S1    O26   D    
Ba2   O9    S    
C38   C43   D    
O24   P3    D    
O13   P2    S    
C16   C21   A    
S3    O33   S    
C1    H12   S    
C36   C37   A    
Ba1   O13   S    
C8    C57   S    
C53   O20   S    
C28   H41   S    
C6    H27   S    
C27   C28   A    
C49   C50   A    
C26   H35   S    
C49   P5    S    
S3    O32   D    
C13   C17   A    
C41   C42   S    
C22   C30   A    
C12   H31   S    
C45   H3    S    
C35   C36   A    
S1    O27   S    
C2    H1    S    
C4    H22   S    
C29   C30   A    
C28   C29   A    
C9    C10   A    
C41   C46   S    
C53   H6    S    
C44   C51   S    
C15   C16   A    
O15   P7    S    
O30   H53   S    
Ba2   O13   S    
C38   C39   S    
C46   N3    A    
O2    P2    S    
C14   H34   S    
C11   C13   A    
C58   N6    T    
Ba1   O1    S    
O9    P5    S    
C55   H10   S    
C3    H19   S    
C1    C2    S    
C34   H51   S    
O18   P6    S    
C50   C51   A    
C23   H49   S    
C2    O21   S    
S1    O25   D    
C19   H33   S    
Ba2   O8    S    
C50   H46   S    
C35   P6    S    
C44   N4    A    
C20   C21   A    
C10   H40   S    
C38   S3    S    
C6    S1    S    
O7    P4    S    
Ba1   O12   S    
Ba1   O18   S    
Ba1   P2    S    
C47   H45   S    
Ba2   O6    S    
C12   H42   S    
O16   P8    D    
C33   H37   S    
O12   P1    S    
O6    P8    S    
C54   H9    S    
C49   C52   A    
S3    O31   D    
C3    H18   S    
C44   N1    A    
O27   H52   S    
C30   C31   A    
C56   H14   S    
C55   C56   S    
C27   H36   S    
C54   H8    S    
Ba1   Ba2   S    
C20   P4    S    
C31   C33   A    
C6    H28   S    
Ba1   O5    S    
S2    O29   D    
C12   C23   S    
C11   H39   S    
C34   O7    S    
Ba1   O8    S    
C4    H21   S    
Ba2   O12   S    
C46   N2    A    
C18   C19   A    
C8    H32   S    
C47   C48   A    
C40   C41   D    
C11   C14   A    
C36   H38   S    
C25   C26   A    
Ba2   P4    S    
C18   P8    S    
C55   H11   S    
Ba1   O22   S    
C7    H29   S    
Ba1   P1    S    
C56   H15   S    
O3    P3    S    
