data_mof_unit_36145.cif
_audit_creation_date              2012-10-26T21:13:35-0400
_audit_creation_method            fapswitch 2.2
_symmetry_space_group_name_H-M    P1
_symmetry_Int_Tables_number       1
_space_group_crystal_system       triclinic
_cell_length_a                    9.07587
_cell_length_b                    10.861003
_cell_length_c                    9.546334
_cell_angle_alpha                 89.974326
_cell_angle_beta                  89.980193
_cell_angle_gamma                 90.209731
_cell_volume                      941.004815442

loop_
_atom_site_label
_atom_site_type_symbol
_atom_type_description
_atom_site_fract_x
_atom_site_fract_y
_atom_site_fract_z
_atom_type_partial_charge
C1    C     C_R   0.501181 0.262708 0.499939 0.546941
C2    C     C_R   0.574364 0.589183 0.926189 0.155936
C3    C     C_3   0.735761 0.615068 0.920553 -0.277858
C4    C     C_R   0.220671 0.499907 0.499998 0.556079
C5    C     C_3   0.735308 0.615906 0.079478 -0.277979
C6    C     C_R   0.500561 0.737298 0.499820 0.550864
C7    C     C_R   0.779313 0.500015 0.500016 0.553273
C8    C     C_1   0.065530 0.499932 0.500030 -0.066481
C9    C     C_1   0.934425 0.499973 0.500021 -0.071781
C10   C     C_R   0.505613 0.061955 0.621488 0.039581
C11   C     C_R   0.504360 0.130123 0.498473 -0.000739
C12   C     C_R   0.505640 0.935562 0.370553 -0.165022
C13   C     C_R   0.505966 0.064685 0.370674 -0.168475
C14   C     C_3   0.637524 0.127394 0.848624 -0.265034
C15   C     C_3   0.785103 0.099271 0.777494 -0.414557
C16   C     C_R   0.503010 0.869911 0.498221 0.003837
C17   C     C_R   0.503517 0.937762 0.621228 0.005343
C18   C     C_3   0.497305 0.927195 0.776840 -0.242531
C19   C     C_3   0.500454 0.069468 0.778032 -0.108590
C20   C     C_R   0.574102 0.589376 0.073551 0.155943
C21   C     C_R   0.415653 0.419156 0.074489 -0.015455
C22   C     C_R   0.415346 0.419370 0.925612 -0.024629
Cu1   Cu    Cu3+1 0.499990 0.499980 0.640670 0.928245
Cu2   Cu    Cu3+1 0.500010 0.500020 0.359330 0.933387
H1    H     H_    0.506487 0.112474 0.271053 0.130154
H2    H     H_    0.349240 0.352401 0.869846 0.110341
H3    H     H_    0.800088 0.537403 0.876170 0.157290
H4    H     H_    0.804976 0.998690 0.772103 0.144632
H5    H     H_    0.788098 0.138701 0.670196 0.161850
H6    H     H_    0.875766 0.141920 0.838881 0.127411
H7    H     H_    0.623704 0.228846 0.851170 0.173442
H8    H     H_    0.642092 0.095460 0.959144 0.130624
H9    H     H_    0.760694 0.706593 0.874064 0.116628
H10   H     H_    0.799990 0.539091 0.125280 0.158671
H11   H     H_    0.758904 0.708171 0.124758 0.122913
H12   H     H_    0.506377 0.887933 0.270885 0.134264
H13   H     H_    0.390721 0.887846 0.813196 0.124126
H14   H     H_    0.596290 0.881908 0.821165 0.134264
H15   H     H_    0.395266 0.109664 0.816170 0.112513
H16   H     H_    0.349795 0.351999 0.130350 0.113846
N1    N     N_R   0.500920 0.500930 0.147930 -0.229617
N2    N     N_R   0.500930 0.500890 0.852020 -0.233434
O1    O     O_R   0.500000 0.319640 0.618810 -0.509770
O2    O     O_R   0.500020 0.319680 0.381230 -0.513425
O3    O     O_R   0.288380 0.499980 0.618770 -0.496646
O4    O     O_R   0.288400 0.500020 0.381190 -0.495452
O5    O     O_R   0.499980 0.680320 0.618770 -0.497789
O6    O     O_R   0.500000 0.680360 0.381190 -0.505491
O7    O     O_R   0.711600 0.499980 0.618810 -0.502089
O8    O     O_R   0.711620 0.500020 0.381230 -0.499556

loop_
_geom_bond_atom_site_label_1
_geom_bond_atom_site_label_2
_ccdc_geom_bond_type
Cu1   Cu2   S    
C15   H5    S    
Cu1   O3    S    
C20   N1    A    
C12   H12   S    
C14   H7    S    
C1    O2    A    
C1    C11   S    
C10   C19   S    
C4    C8    S    
Cu2   O4    S    
C5    H10   S    
C3    H3    S    
C17   C18   S    
C18   H14   S    
C5    C20   S    
C4    O4    A    
C21   C22   A    
Cu2   N1    S    
C11   C13   A    
C13   H1    S    
C15   H4    S    
C22   N2    A    
Cu1   N2    S    
C6    O6    A    
C2    N2    A    
C21   N1    A    
C5    H11   S    
C18   H13   S    
C2    C3    S    
C4    O3    A    
Cu2   O8    S    
Cu2   O2    S    
Cu1   O7    S    
Cu1   O5    S    
C10   C11   A    
C3    H9    S    
C10   C17   A    
C2    C20   A    
Cu2   O6    S    
Cu1   O1    S    
C12   C13   A    
C7    O7    A    
C15   H6    S    
C19   H15   S    
C18   C19   S    
C6    O5    A    
C7    C9    S    
C14   C15   S    
C16   C17   A    
C22   H2    S    
C6    C16   S    
C14   C19   S    
C1    O1    A    
C12   C16   A    
C7    O8    A    
C14   H8    S    
C8    C9    T    
C3    C5    S    
C21   H16   S    
