data_mof_unit_58730.cif
_audit_creation_date              2012-12-10T19:15:20-0500
_audit_creation_method            fapswitch 2.2
_symmetry_space_group_name_H-M    P1
_symmetry_Int_Tables_number       1
_space_group_crystal_system       triclinic
_cell_length_a                    10.632134
_cell_length_b                    9.685458
_cell_length_c                    23.44223
_cell_angle_alpha                 90.022347
_cell_angle_beta                  90.043269
_cell_angle_gamma                 89.858935
_cell_volume                      2414.00437867

loop_
_atom_site_label
_atom_site_type_symbol
_atom_type_description
_atom_site_fract_x
_atom_site_fract_y
_atom_site_fract_z
_atom_type_partial_charge
C1    C     C_R   0.257722 0.500446 0.499527 0.946218
C2    C     C_R   0.312616 0.404490 0.970392 -0.179168
C3    C     C_R   0.312599 0.404448 0.029377 -0.178733
C4    C     C_R   0.416986 0.453904 0.059516 -0.017198
C5    C     C_R   0.523238 0.505211 0.030060 -0.023257
C6    C     C_R   0.628254 0.555752 0.060713 -0.083858
C7    C     C_R   0.733231 0.608803 0.030266 -0.059868
C8    C     C_R   0.733251 0.608835 0.969952 -0.060475
C9    C     C_R   0.417103 0.453177 0.118838 0.554239
C10   C     C_R   0.623090 0.550994 0.121007 0.542821
C11   C     C_R   0.499077 0.624783 0.237939 -0.185659
C12   C     C_R   0.500559 0.499975 0.389232 0.957588
C13   C     C_R   0.493761 0.624776 0.297068 -0.147496
C14   C     C_R   0.504224 0.499947 0.327109 -0.135949
C15   C     C_R   0.520318 0.375323 0.297370 -0.236480
C16   C     C_R   0.526159 0.375659 0.238221 0.715396
C17   C     C_R   0.515297 0.500447 0.208587 0.176716
C18   C     C_R   0.499465 0.624891 0.762068 -0.195464
C19   C     C_R   0.494194 0.624880 0.702935 -0.178548
C20   C     C_R   0.504510 0.500038 0.672860 -0.140513
C21   C     C_R   0.520545 0.375410 0.702579 -0.270224
C22   C     C_R   0.526331 0.375744 0.761734 0.705756
C23   C     C_R   0.742703 0.500027 0.499290 0.979142
C24   C     C_R   0.515515 0.500541 0.791397 0.185419
C25   C     C_3   0.071630 0.652092 0.495597 -0.431987
C26   C     C_3   0.073115 0.433424 0.554456 -0.485005
C27   C     C_3   0.928749 0.651706 0.494020 0.368397
C28   C     C_3   0.928860 0.437681 0.555511 0.402575
C29   C     C_3   0.073881 0.420213 0.446352 -0.423065
C30   C     C_3   0.121703 0.501563 0.498988 -0.172584
C31   C     C_3   0.879250 0.500318 0.498626 -0.312297
C32   C     C_3   0.929391 0.414570 0.446989 1.174548
C33   C     C_3   0.374902 0.081834 0.482103 0.417162
C34   C     C_3   0.374887 0.918782 0.482142 0.421801
C35   C     C_3   0.593963 0.080957 0.458237 -0.265503
C36   C     C_3   0.593921 0.918471 0.458213 -0.261043
C37   C     C_3   0.529694 0.081385 0.556149 0.437016
C38   C     C_3   0.529785 0.918526 0.556139 0.413788
C39   C     C_R   0.500716 0.500016 0.610730 0.907191
C40   C     C_R   0.623230 0.550987 0.879095 0.541770
C41   C     C_R   0.417163 0.453369 0.881040 0.551204
C42   C     C_R   0.417019 0.453992 0.940363 -0.014392
C43   C     C_R   0.523260 0.505240 0.969933 -0.023873
C44   C     C_R   0.628309 0.555783 0.939393 -0.083097
H1    H     H_    0.230447 0.365203 0.948434 0.180079
H2    H     H_    0.481784 0.722217 0.680890 0.193025
H3    H     H_    0.529461 0.278060 0.680171 0.215265
H4    H     H_    0.108773 0.704423 0.456812 0.282776
H5    H     H_    0.106355 0.324470 0.557020 0.248039
H6    H     H_    0.103718 0.712345 0.533385 0.162206
H7    H     H_    0.110792 0.488694 0.592447 0.153247
H8    H     H_    0.893419 0.714463 0.530528 0.149767
H9    H     H_    0.897231 0.502942 0.591925 0.091882
H10   H     H_    0.107283 0.470813 0.406515 0.201995
H11   H     H_    0.112712 0.313329 0.446433 0.238464
H12   H     H_    0.230411 0.365145 0.051247 0.180826
H13   H     H_    0.302392 0.118459 0.512819 0.029358
H14   H     H_    0.302492 0.882713 0.512922 0.019633
H15   H     H_    0.574862 0.119356 0.414394 0.219686
H16   H     H_    0.574710 0.880166 0.414362 0.224699
H17   H     H_    0.458122 0.118012 0.587314 0.002877
H18   H     H_    0.458308 0.882258 0.587324 0.009867
H19   H     H_    0.689442 0.118657 0.469419 0.283171
H20   H     H_    0.689427 0.880233 0.469343 0.266825
H21   H     H_    0.490247 0.721072 0.214788 0.181293
H22   H     H_    0.481216 0.722104 0.319145 0.210699
H23   H     H_    0.529247 0.277984 0.319761 0.204433
H24   H     H_    0.490718 0.721194 0.785240 0.177692
N1    N     N_R   0.518955 0.501229 0.852085 -0.333978
N2    N     N_R   0.518822 0.501132 0.147903 -0.335099
N3    N     N_3   0.499750 0.138610 0.498760 -0.199261
N4    N     N_3   0.499750 0.861390 0.498760 -0.193447
O1    O     O_R   0.314910 0.616040 0.499990 -0.618476
O2    O     O_R   0.314910 0.383960 0.499990 -0.619422
O3    O     O_R   0.500080 0.616070 0.416130 -0.588264
O4    O     O_R   0.500080 0.383930 0.416130 -0.595214
O5    O     O_R   0.685320 0.616040 0.499970 -0.585010
O6    O     O_R   0.685320 0.383960 0.499970 -0.512186
O7    O     O_R   0.500150 0.616010 0.583820 -0.613051
O8    O     O_R   0.500150 0.383990 0.583820 -0.606255
O9    O     O_2   0.721023 0.593904 0.847142 -0.531160
O10   O     O_2   0.316278 0.405581 0.852156 -0.561692
O11   O     O_2   0.316263 0.405193 0.147615 -0.548010
O12   O     O_2   0.720783 0.594074 0.153065 -0.519799
Zn1   Zn    Zn3+2 0.500150 0.654960 0.499970 1.034079
Zn2   Zn    Zn3+2 0.500150 0.345040 0.499970 1.058733
F1    F     F_    0.542774 0.255198 0.790300 -0.643298
F2    F     F_    0.887611 0.714105 0.444033 -0.584519
F3    F     F_    0.882807 0.305519 0.564425 -0.539238
F4    F     F_    0.882547 0.466906 0.396129 -0.616451
F5    F     F_    0.892010 0.277808 0.451076 -0.615732
F6    F     F_    0.340205 0.131986 0.428956 -0.576120
F7    F     F_    0.340033 0.868553 0.429044 -0.581292
F8    F     F_    0.644822 0.131188 0.574739 -0.521869
F9    F     F_    0.645024 0.868204 0.574661 -0.577898
C45   C     C_R   0.843638 0.668729 0.060099 0.182840
C46   C     C_R   0.844716 0.809430 0.074467 -0.110664
C47   C     C_R   0.950564 0.867165 0.100553 -0.098172
C48   C     C_R   0.055753 0.784960 0.112216 -0.083089
C49   C     C_R   0.055228 0.644884 0.097840 -0.110019
C50   C     C_R   0.949555 0.586631 0.071814 -0.097249
H25   H     H_    0.764033 0.874082 0.065131 0.132717
H26   H     H_    0.951235 0.975711 0.111534 0.154965
H27   H     H_    0.137754 0.829830 0.132289 0.152083
H28   H     H_    0.136836 0.581668 0.106729 0.171435
H29   H     H_    0.950357 0.478235 0.060443 0.123693
C51   C     C_R   0.843624 0.668911 0.940235 0.185372
C52   C     C_R   0.949750 0.587040 0.928682 -0.099162
C53   C     C_R   0.055348 0.645446 0.902741 -0.117418
C54   C     C_R   0.055590 0.785452 0.888292 -0.096059
C55   C     C_R   0.950193 0.867430 0.899794 -0.102506
C56   C     C_R   0.844420 0.809542 0.925793 -0.108348
H30   H     H_    0.950766 0.478702 0.940107 0.122439
H31   H     H_    0.137115 0.582408 0.893967 0.169781
H32   H     H_    0.137531 0.830442 0.868285 0.145380
H33   H     H_    0.950642 0.975918 0.888751 0.151476
H34   H     H_    0.763567 0.874019 0.934998 0.131598
F10   F     F_    0.542710 0.255124 0.209631 -0.637980

loop_
_geom_bond_atom_site_label_1
_geom_bond_atom_site_label_2
_ccdc_geom_bond_type
C34   N4    S    
C51   C56   A    
C19   C20   A    
C34   F7    S    
N4    Zn1   S    
C19   H2    S    
C7    C8    A    
C7    C45   S    
C49   H28   S    
C29   C30   S    
C18   C24   A    
C1    O2    A    
C29   C32   S    
C5    C6    A    
C32   F5    S    
C29   H10   S    
C18   H24   S    
C47   H26   S    
C50   H29   S    
C52   C53   A    
C35   H15   S    
C18   C19   A    
C41   C42   A    
C54   C55   A    
C1    C30   S    
O8    Zn2   S    
C25   H6    S    
O3    Zn1   S    
C32   F4    S    
C55   C56   A    
C16   C17   A    
C38   F9    S    
C51   C52   A    
C28   F3    S    
C46   H25   S    
O6    Zn2   S    
C48   H27   S    
C5    C43   A    
C35   N3    S    
C17   N2    S    
C13   C14   A    
C24   N1    S    
C46   C47   A    
C13   H22   S    
C28   C31   S    
C2    H1    S    
C38   N4    S    
C40   N1    A    
C27   C31   S    
C45   C50   A    
C9    N2    A    
C33   F6    S    
C20   C39   S    
C29   H11   S    
C15   C16   A    
C23   O5    A    
C35   C36   S    
C23   C31   S    
C52   H30   S    
C43   C44   A    
C37   C38   S    
C16   F10   S    
N3    Zn2   S    
C3    H12   S    
C48   C49   A    
C15   H23   S    
C45   C46   A    
C33   C34   S    
C22   F1    S    
O2    Zn2   S    
C25   H4    S    
O1    Zn1   S    
C55   H33   S    
C53   H31   S    
C9    O11   S    
C10   N2    A    
C12   C14   S    
C26   C30   S    
C37   N3    S    
C22   C24   A    
C26   H5    S    
C42   C43   A    
C3    C4    A    
C8    C51   S    
O4    Zn2   S    
O7    Zn1   S    
C27   H8    S    
C41   N1    A    
C25   C30   S    
C11   C17   A    
C33   H13   S    
C40   O9    S    
C31   C32   S    
C8    C44   A    
C4    C5    A    
C36   H16   S    
C6    C10   A    
C37   H17   S    
C28   H9    S    
C6    C7    A    
C25   C27   S    
C26   C28   S    
C1    O1    A    
C39   O8    A    
C12   O4    A    
C2    C3    A    
C36   H20   S    
C26   H7    S    
C11   C13   A    
C56   H34   S    
C2    C42   A    
C41   O10   S    
C10   O12   S    
C49   C50   A    
C37   F8    S    
C23   O6    A    
C27   F2    S    
C33   N3    S    
O5    Zn1   S    
C11   H21   S    
C40   C44   A    
C20   C21   A    
C47   C48   A    
C12   O3    A    
C53   C54   A    
C34   H14   S    
C14   C15   A    
C35   H19   S    
C21   H3    S    
C4    C9    A    
C21   C22   A    
C54   H32   S    
C36   N4    S    
C39   O7    A    
C38   H18   S    
