data_mof_unit_10342.cif
_audit_creation_date              2012-12-10T17:27:51-0500
_audit_creation_method            fapswitch 2.2
_symmetry_space_group_name_H-M    P1
_symmetry_Int_Tables_number       1
_space_group_crystal_system       triclinic
_cell_length_a                    10.656859
_cell_length_b                    11.991276
_cell_length_c                    12.869412
_cell_angle_alpha                 93.384027
_cell_angle_beta                  90.949987
_cell_angle_gamma                 86.507775
_cell_volume                      1638.51836878

loop_
_atom_site_label
_atom_site_type_symbol
_atom_type_description
_atom_site_fract_x
_atom_site_fract_y
_atom_site_fract_z
_atom_type_partial_charge
C1    C     C_R   0.494624 0.522112 0.700315 0.937043
C2    C     C_R   0.514957 0.638730 0.862789 -0.181846
C3    C     C_R   0.470745 0.442118 0.867023 -0.249756
C4    C     C_R   0.739502 0.501286 0.507388 0.982288
C5    C     C_R   0.479704 0.449146 0.973873 0.193578
C6    C     C_R   0.506638 0.552206 0.025750 0.177125
C7    C     C_R   0.517363 0.558986 0.132427 -0.283089
C8    C     C_R   0.474401 0.362173 0.137002 -0.214890
C9    C     C_R   0.464107 0.354371 0.029475 -0.194126
C10   C     C_R   0.384536 0.954005 0.399986 -0.330004
C11   C     C_R   0.395471 0.837849 0.409865 0.028874
C12   C     C_R   0.941533 0.463398 0.603935 0.047470
C13   C     C_R   0.549505 0.858580 0.543637 -0.047227
C14   C     C_R   0.541799 0.975915 0.536521 0.094312
C15   C     C_R   0.458099 0.024088 0.463597 0.093472
C16   C     C_R   0.501880 0.477975 0.299518 0.876424
C17   C     C_R   0.450416 0.141409 0.456445 -0.046798
C18   C     C_R   0.604486 0.162157 0.590189 0.031173
C19   C     C_R   0.615364 0.046011 0.600131 -0.333623
C20   C     C_R   0.260445 0.499861 0.501355 0.852939
C21   C     C_R   0.885447 0.428081 0.695451 0.390119
C22   C     C_R   0.961958 0.389614 0.777788 -0.365590
C23   C     C_R   0.872162 0.503530 0.516684 -0.079772
C24   C     C_R   0.092829 0.388411 0.772759 0.474497
C25   C     C_R   0.147448 0.425457 0.684867 -0.198245
C26   C     C_R   0.073519 0.462011 0.599661 -0.065663
C27   C     C_R   0.930074 0.545717 0.432431 -0.236544
C28   C     C_R   0.058032 0.544534 0.429531 -0.198247
C29   C     C_R   0.128597 0.500782 0.510709 -0.033632
C30   C     C_R   0.499830 0.464855 0.188049 -0.049515
C31   C     C_R   0.491261 0.535762 0.811594 -0.063980
C32   C     C_R   0.522546 0.646974 0.970301 -0.221614
H1    H     H_    0.875740 0.577050 0.367111 0.151334
H2    H     H_    0.613341 0.819995 0.599186 0.127314
H3    H     H_    0.919198 0.362461 0.847036 0.133455
H4    H     H_    0.248665 0.426539 0.685329 0.170494
H5    H     H_    0.102519 0.575557 0.362637 0.143793
H6    H     H_    0.538418 0.638210 0.172047 0.161574
H7    H     H_    0.460143 0.289125 0.180052 0.159708
H8    H     H_    0.542644 0.726373 0.009821 0.140225
H9    H     H_    0.734457 0.405718 0.773093 0.327497
H10   H     H_    0.117195 0.330117 0.909852 0.331281
H11   H     H_    0.443612 0.275040 0.990020 0.152253
H12   H     H_    0.530828 0.711545 0.819902 0.159993
H13   H     H_    0.450543 0.362861 0.827052 0.179694
H14   H     H_    0.386562 0.179989 0.400909 0.123928
H15   H     H_    0.661203 0.216097 0.639318 0.155289
H16   H     H_    0.319298 0.988565 0.343175 0.145699
H17   H     H_    0.680590 0.011466 0.656959 0.147645
H18   H     H_    0.338770 0.783892 0.360722 0.132477
N1    N     N_R   0.523130 0.207800 0.519340 -0.102944
N2    N     N_R   0.476870 0.792180 0.480660 -0.103154
O1    O     O_R   0.506170 0.421690 0.658830 -0.611357
O2    O     O_3   0.169993 0.353242 0.853098 -0.779846
O3    O     O_R   0.491330 0.609320 0.646410 -0.628104
O4    O     O_R   0.690660 0.406170 0.506210 -0.586217
O5    O     O_R   0.675810 0.593790 0.493790 -0.631573
O6    O     O_R   0.508670 0.390680 0.353590 -0.629132
O7    O     O_R   0.493830 0.578310 0.341170 -0.632711
O8    O     O_R   0.324190 0.406210 0.506210 -0.628779
O9    O     O_R   0.309340 0.593830 0.493790 -0.619991
O10   O     O_3   0.756911 0.435065 0.705817 -0.786425
Zn1   Zn    Zn3+2 0.509910 0.374720 0.508290 0.962879
Zn2   Zn    Zn3+2 0.490090 0.625280 0.491710 0.948547

loop_
_geom_bond_atom_site_label_1
_geom_bond_atom_site_label_2
_ccdc_geom_bond_type
C4    O5    A    
O9    Zn2   S    
C6    C32   A    
C17   H14   S    
C5    C9    A    
C6    C7    A    
C8    H7    S    
C23   C27   A    
C20   O8    A    
C13   N2    A    
C19   H17   S    
C1    C31   S    
C10   C15   A    
C8    C30   A    
C18   H15   S    
C17   N1    A    
C1    O3    A    
O4    Zn1   S    
C13   H2    S    
C11   H18   S    
C16   O6    A    
C21   C22   A    
C27   H1    S    
C3    C31   A    
C22   H3    S    
O1    Zn1   S    
C12   C23   A    
C21   O10   S    
H9    O10   S    
C26   C29   A    
O8    Zn1   S    
C28   H5    S    
C2    C31   A    
C28   C29   A    
C7    H6    S    
C18   N1    A    
C20   C29   S    
C32   H8    S    
O3    Zn2   S    
C10   H16   S    
C5    C6    A    
C22   C24   A    
C9    H11   S    
C10   C11   A    
C25   H4    S    
C16   C30   S    
C12   C21   A    
O7    Zn2   S    
C20   O9    A    
N1    Zn1   S    
C24   C25   A    
O5    Zn2   S    
C2    C32   A    
C18   C19   A    
N2    Zn2   S    
C12   C26   A    
C27   C28   A    
C15   C17   A    
C4    C23   S    
C1    O1    A    
C14   C15   A    
C4    O4    A    
C11   N2    A    
C25   C26   A    
C13   C14   A    
C24   O2    S    
C14   C19   A    
C3    H13   S    
H10   O2    S    
O6    Zn1   S    
C2    H12   S    
C8    C9    A    
C3    C5    A    
C16   O7    A    
C7    C30   A    
