data_mof_unit_36578.cif
_audit_creation_date              2012-12-11T15:20:41-0500
_audit_creation_method            fapswitch 2.2
_symmetry_space_group_name_H-M    P1
_symmetry_Int_Tables_number       1
_space_group_crystal_system       triclinic
_cell_length_a                    13.063138
_cell_length_b                    13.014702
_cell_length_c                    15.429969
_cell_angle_alpha                 116.151869
_cell_angle_beta                  63.484553
_cell_angle_gamma                 97.303463
_cell_volume                      2099.12214243

loop_
_atom_site_label
_atom_site_type_symbol
_atom_type_description
_atom_site_fract_x
_atom_site_fract_y
_atom_site_fract_z
_atom_type_partial_charge
C1    C     C_R   0.016619 0.834556 0.037638 -0.097332
C2    C     C_R   0.320235 0.526263 0.778918 0.752817
C3    C     C_R   0.235405 0.492077 0.116955 0.578686
C4    C     C_R   0.699888 0.407452 0.209917 -0.183599
C5    C     C_R   0.985907 0.300525 0.697672 -0.155995
C6    C     C_R   0.328414 0.553309 0.086329 -0.490060
C7    C     C_R   0.928722 0.205142 0.698287 -0.012404
C8    C     C_R   0.327253 0.453854 0.678096 -0.040851
C9    C     C_R   0.068721 0.142195 0.984666 -0.075764
C10   C     C_R   0.942228 0.020920 0.431515 -0.393589
C11   C     C_R   0.917735 0.115891 0.527570 0.799457
C12   C     C_R   0.701818 0.438873 0.306370 0.180337
C13   C     C_R   0.944040 0.107425 0.602461 -0.197307
C14   C     C_R   0.996690 0.007062 0.582052 -0.366082
C15   C     C_R   0.019429 0.912309 0.487469 0.757401
C16   C     C_R   0.738729 0.578681 0.949597 -0.152962
C17   C     C_R   0.991613 0.919807 0.413106 -0.173247
C18   C     C_R   0.627858 0.391867 0.461110 0.535882
C19   C     C_R   0.534558 0.396788 0.555824 0.393175
C20   C     C_R   0.425340 0.434315 0.578326 -0.003011
C21   C     C_R   0.408545 0.464732 0.509053 -0.223233
C22   C     C_R   0.499918 0.461463 0.418363 -0.245670
C23   C     C_R   0.637978 0.563658 0.026811 0.127505
C24   C     C_R   0.609189 0.427984 0.395872 -0.097499
C25   C     C_2   0.436009 0.533303 0.082583 0.526895
C26   C     C_2   0.522284 0.598893 0.056605 -0.318716
C27   C     C_2   0.878625 0.966515 0.045541 -0.262218
C28   C     C_R   0.973891 0.715035 0.314030 -0.108608
C29   C     C_2   0.865807 0.056039 0.137765 -0.006086
C30   C     C_R   0.664887 0.490859 0.057017 -0.082897
C31   C     C_R   0.060736 0.815341 0.217192 -0.136961
C32   C     C_R   0.798472 0.494771 0.306095 -0.082102
C33   C     C_R   0.921723 0.750784 0.937670 -0.119518
C34   C     C_R   0.007893 0.820682 0.318526 0.161394
C35   C     C_R   0.940253 0.856011 0.006115 0.129845
C36   C     C_3   0.746168 0.091972 0.812544 0.242692
C37   C     C_3   0.682605 0.013296 0.865267 -0.861367
C38   C     C_3   0.205047 0.553144 0.292942 0.295609
C39   C     C_3   0.121558 0.539978 0.393806 -0.762111
C40   C     C_3   0.627350 0.408535 0.657042 0.418114
C41   C     C_3   0.605574 0.392552 0.755624 -0.870814
C42   C     C_3   0.469134 0.336607 0.999278 0.266565
C43   C     C_3   0.454406 0.233100 0.023503 -0.785529
C44   C     C_R   0.318824 0.584706 0.016396 0.702842
C45   C     C_R   0.901384 0.202967 0.794577 0.506719
C46   C     C_R   0.217210 0.438832 0.686760 -0.269490
C47   C     C_R   0.087478 0.248320 0.051933 0.754320
C48   C     C_R   0.989601 0.165911 0.957086 -0.244492
F1    F     F_    0.155525 0.262926 0.100678 -0.683445
F2    F     F_    0.407991 0.578093 0.800468 -0.684434
F3    F     F_    0.868515 0.214760 0.547902 -0.712038
F4    F     F_    0.069933 0.814673 0.467970 -0.743482
F5    F     F_    0.734349 0.348736 0.429771 -0.705075
F6    F     F_    0.366800 0.675011 0.996043 -0.657246
H1    H     H_    0.054108 0.898381 0.085708 0.104871
H2    H     H_    0.510622 0.672437 0.045566 0.207090
H3    H     H_    0.835466 0.973344 0.002098 0.159546
H4    H     H_    0.903090 0.053645 0.187235 0.135301
H5    H     H_    0.745100 0.623384 0.903224 0.115041
H6    H     H_    0.936070 0.688508 0.378317 0.130730
H7    H     H_    0.610309 0.465265 0.119069 0.161723
H8    H     H_    0.107520 0.880453 0.193621 0.131446
H9    H     H_    0.830448 0.521018 0.365782 0.128415
H10   H     H_    0.874877 0.738473 0.891975 0.101247
H11   H     H_    0.769461 0.043183 0.725673 0.119636
H12   H     H_    0.192321 0.392087 0.622465 0.155936
H13   H     H_    0.688092 0.169186 0.846779 0.090548
H14   H     H_    0.655731 0.058334 0.953168 0.253284
H15   H     H_    0.605583 0.986617 0.850429 0.223891
H16   H     H_    0.739594 0.935187 0.830994 0.257882
H17   H     H_    0.185384 0.639819 0.303494 0.139381
H18   H     H_    0.293224 0.546791 0.284533 0.134077
H19   H     H_    0.140027 0.454766 0.386520 0.251666
H20   H     H_    0.130461 0.608255 0.464856 0.227245
H21   H     H_    0.031981 0.547315 0.405606 0.249548
H22   H     H_    0.624578 0.502467 0.679309 0.107700
H23   H     H_    0.955360 0.101626 0.906480 0.214430
H24   H     H_    0.714579 0.367837 0.594920 0.209698
H25   H     H_    0.609072 0.299585 0.735636 0.251586
H26   H     H_    0.672292 0.431873 0.783304 0.214371
H27   H     H_    0.519895 0.434011 0.821488 0.259593
H28   H     H_    0.557912 0.330473 0.937215 0.083835
H29   H     H_    0.408445 0.333419 0.965665 0.095871
H30   H     H_    0.465826 0.153404 0.950274 0.203315
H31   H     H_    0.518672 0.229126 0.050877 0.226883
H32   H     H_    0.366957 0.239920 0.087778 0.310644
H33   H     H_    0.013275 0.332479 0.637481 0.160906
H34   H     H_    0.920540 0.024972 0.372900 0.190563
H35   H     H_    0.021114 0.002514 0.638899 0.202935
H36   H     H_    0.642731 0.350688 0.180820 0.122664
H37   H     H_    0.325100 0.496483 0.527418 0.161496
H38   H     H_    0.485764 0.490071 0.368026 0.166343
N1    N     N_R   0.037310 0.720000 0.995790 -0.046018
N2    N     N_R   0.824890 0.517960 0.936420 -0.046749
N3    N     N_R   0.003210 0.648190 0.211380 -0.066431
N4    N     N_R   0.774330 0.457010 0.995840 -0.064291
N5    N     N_R   0.053760 0.709140 0.151960 -0.055411
N6    N     N_R   0.853860 0.498840 0.211410 -0.057523
N7    N     N_R   0.974240 0.667310 0.936390 -0.045819
N8    N     N_R   0.225670 0.542990 0.004160 -0.153326
N9    N     N_R   0.946240 0.290860 0.848040 -0.085685
N10   N     N_R   0.146140 0.501160 0.788590 -0.077122
N11   N     N_R   0.025760 0.332690 0.063610 -0.113732
N12   N     N_R   0.962690 0.280000 0.004210 -0.072219
N13   N     N_R   0.209210 0.553840 0.847990 -0.111908
N14   N     N_R   0.175110 0.482040 0.063580 -0.149924
N15   N     N_R   0.996790 0.351810 0.788620 -0.075955
N16   N     N_R   0.790790 0.446160 0.152010 -0.049949
Ni1   Ni    Ni4+2 0.130310 0.630310 0.999970 0.280933
Ni2   Ni    Ni4+2 0.869690 0.369690 0.000030 0.227752
Ni3   Ni    Ni4+2 0.985640 0.509470 0.863740 0.202654
Ni4   Ni    Ni4+2 0.014360 0.490530 0.136260 0.259033
O1    O     O_3   0.843844 0.123118 0.832074 -0.665516
O2    O     O_3   0.193661 0.464519 0.203415 -0.553096
O3    O     O_3   0.544035 0.354357 0.620584 -0.622095
O4    O     O_3   0.449066 0.437156 0.095030 -0.643968

loop_
_geom_bond_atom_site_label_1
_geom_bond_atom_site_label_2
_ccdc_geom_bond_type
N9    N15   A    
C37   H15   S    
C16   N2    A    
C27   C29   D    
C11   C13   A    
C19   C20   A    
C42   H28   S    
C3    C6    A    
C41   H26   S    
C36   H13   S    
C47   F1    S    
N14   Ni4   S    
C46   N10   A    
C10   H34   S    
C8    C20   S    
C28   N3    A    
C18   C24   A    
C7    C45   A    
C36   C37   S    
C46   H12   S    
N3    Ni4   S    
C5    N15   A    
C38   C39   S    
C38   O2    S    
C23   C26   S    
C40   O3    S    
C10   C17   A    
C48   N12   A    
C37   H14   S    
N2    Ni3   S    
N6    N16   A    
N10   N13   A    
C18   C19   A    
C39   H20   S    
C30   N4    A    
C2    F2    S    
C18   F5    S    
N16   Ni2   S    
C39   H21   S    
C4    C12   A    
N1    N7    A    
C31   N5    A    
N7    Ni3   S    
N8    Ni1   S    
C6    C44   A    
C21   C22   A    
C12   C32   A    
C43   H30   S    
C31   H8    S    
N10   Ni3   S    
C36   O1    S    
C4    H36   S    
C28   H6    S    
C3    N14   A    
C38   H18   S    
C47   N11   A    
C13   C14   A    
C43   H31   S    
C23   C30   A    
N6    Ni4   S    
C27   H3    S    
C25   O4    S    
C5    C7    A    
C36   H11   S    
C27   C35   S    
N9    Ni2   S    
N4    Ni2   S    
C40   H22   S    
N11   Ni4   S    
C33   N7    A    
C16   H5    S    
C5    H33   S    
C48   H23   S    
C14   H35   S    
C44   F6    S    
N5    Ni1   S    
C19   O3    S    
C41   H27   S    
C31   C34   A    
C15   F4    S    
C29   H4    S    
N2    N4    A    
C45   N9    A    
C42   O4    S    
C40   C41   S    
C9    C47   A    
C16   C23   A    
C22   C24   A    
C17   C34   S    
C1    C35   A    
C21   H37   S    
C15   C17   A    
N13   Ni1   S    
C38   H17   S    
C43   H32   S    
N15   Ni3   S    
C2    C8    A    
C42   H29   S    
C32   H9    S    
C3    O2    S    
C26   H2    S    
C41   H25   S    
N3    N5    A    
C12   C24   S    
C2    N13   A    
N8    N14   A    
C25   C26   D    
N12   Ni2   S    
C44   N8    A    
C33   H10   S    
C33   C35   A    
C32   N6    A    
C40   H24   S    
C39   H19   S    
C1    H1    S    
C8    C46   A    
C11   F3    S    
C10   C11   A    
C28   C34   A    
C6    C25   S    
C45   O1    S    
C7    C13   S    
C20   C21   A    
C9    C48   A    
C1    N1    A    
C42   C43   S    
C30   H7    S    
N11   N12   A    
C22   H38   S    
C14   C15   A    
C4    N16   A    
C37   H16   S    
N1    Ni1   S    
