data_mof_unit_45465.cif
_audit_creation_date              2012-12-11T14:06:46-0500
_audit_creation_method            fapswitch 2.2
_symmetry_space_group_name_H-M    P1
_symmetry_Int_Tables_number       1
_space_group_crystal_system       triclinic
_cell_length_a                    6.915809
_cell_length_b                    17.309281
_cell_length_c                    24.092406
_cell_angle_alpha                 104.535157
_cell_angle_beta                  90.54643
_cell_angle_gamma                 89.991011
_cell_volume                      2791.6043608

loop_
_atom_site_label
_atom_site_type_symbol
_atom_type_description
_atom_site_fract_x
_atom_site_fract_y
_atom_site_fract_z
_atom_type_partial_charge
O1    O     O_R   0.494290 0.391990 0.999150 -0.554201
O2    O     O_R   0.827170 0.534410 0.082350 -0.546586
O3    O     O_R   0.994360 0.608010 0.000850 -0.535899
C1    C     C_R   0.658730 0.549362 0.106239 0.694250
O4    O     O_R   0.824210 0.388010 0.004470 -0.519660
O5    O     O_R   0.991370 0.460560 0.922410 -0.520487
C2    C     C_R   0.654679 0.355549 0.002864 0.739647
O6    O     O_R   0.497270 0.539440 0.077590 -0.547538
O7    O     O_3   0.659770 0.523970 0.973170 -0.350167
V1    V     V_3+5 0.935840 0.495550 0.004980 1.517610
O8    O     O_R   0.320910 0.465590 0.917650 -0.534352
C3    C     C_R   0.150562 0.452863 0.893808 0.783057
O9    O     O_R   0.323870 0.611990 0.995530 -0.546145
C4    C     C_R   0.154389 0.645142 0.998511 0.773968
V2    V     V_3+5 0.435470 0.504450 0.995020 1.496677
O10   O     O_3   0.161670 0.476030 0.026830 -0.376313
C5    C     C_2   0.142825 0.730257 0.998105 -0.298611
H1    H     H_    0.277438 0.761074 0.994783 0.147971
C6    C     C_2   0.972725 0.769785 0.002006 -0.300641
H2    H     H_    0.838111 0.738970 0.005327 0.148232
C7    C     C_R   0.996152 0.270605 0.625767 0.683886
N1    N     N_R   0.097289 0.339353 0.647627 -0.533601
C8    C     C_R   0.175604 0.381807 0.612427 0.723850
C9    C     C_R   0.152730 0.355462 0.551615 -0.131666
C10   C     C_R   0.051579 0.283190 0.528639 0.003004
C11   C     C_R   0.970978 0.241439 0.566239 -0.060981
C12   C     C_R   0.226654 0.398473 0.513312 -0.100764
C13   C     C_R   0.205558 0.368368 0.453311 0.244706
C14   C     C_R   0.112736 0.293464 0.430176 -0.075386
C15   C     C_R   0.031556 0.251919 0.468274 -0.079060
C16   C     C_R   0.930714 0.178641 0.446198 -0.083872
C17   C     C_R   0.845389 0.139477 0.485219 0.300744
C18   C     C_R   0.866322 0.171230 0.544046 -0.165542
C19   C     C_R   0.098667 0.257742 0.370278 0.701873
N2    N     N_R   0.006555 0.186211 0.350043 -0.572472
C20   C     C_R   0.921040 0.147215 0.386055 0.669729
O11   O     O_2   0.920852 0.230300 0.661709 -0.508621
O12   O     O_2   0.276105 0.448680 0.636646 -0.463244
O13   O     O_2   0.179764 0.292317 0.331979 -0.464974
O14   O     O_2   0.829428 0.077755 0.363051 -0.465497
H3    H     H_    0.801459 0.139505 0.572668 0.219116
C21   C     C_R   0.141224 0.092655 0.262957 -0.069757
C22   C     C_R   0.128978 0.056658 0.202947 -0.120117
C23   C     C_R   0.977152 0.078847 0.169700 -0.135188
C24   C     C_R   0.838859 0.134424 0.197132 -0.138658
H4    H     H_    0.722179 0.152185 0.172692 0.155221
C25   C     C_R   0.851582 0.169678 0.255797 -0.042347
H5    H     H_    0.743296 0.212651 0.275786 0.160200
C26   C     C_R   0.002017 0.150114 0.288958 0.288814
C27   C     C_R   0.977960 0.424259 0.738644 0.290208
C28   C     C_R   0.988734 0.453232 0.798764 0.202088
C29   C     C_R   0.137048 0.426242 0.830138 -0.167099
C30   C     C_R   0.274462 0.372160 0.800379 -0.234823
H6    H     H_    0.388257 0.351960 0.824565 0.184764
C31   C     C_R   0.265807 0.342836 0.740377 -0.030820
C32   C     C_R   0.115464 0.369279 0.709195 0.204870
C33   C     C_R   0.415839 0.861545 0.612577 0.702139
N3    N     N_R   0.498037 0.821009 0.648906 -0.538931
C34   C     C_R   0.595477 0.751019 0.628228 0.699608
C35   C     C_R   0.617980 0.719936 0.568829 -0.085922
C36   C     C_R   0.533451 0.760234 0.530529 -0.009308
C37   C     C_R   0.425459 0.830894 0.552053 -0.100732
C38   C     C_R   0.724557 0.649851 0.546992 -0.075593
C39   C     C_R   0.747809 0.619880 0.487974 -0.073051
C40   C     C_R   0.665537 0.659314 0.449170 -0.050446
C41   C     C_R   0.558454 0.729716 0.470537 -0.003677
C42   C     C_R   0.477380 0.769697 0.431908 -0.037345
C43   C     C_R   0.369184 0.839132 0.453143 -0.129050
C44   C     C_R   0.338175 0.869041 0.512093 -0.041586
C45   C     C_R   0.686541 0.629730 0.389342 0.622761
N4    N     N_R   0.605377 0.669270 0.352132 -0.563095
C46   C     C_R   0.503767 0.738602 0.372505 0.595164
O15   O     O_2   0.330438 0.932223 0.635352 -0.460812
O16   O     O_2   0.672239 0.712042 0.665136 -0.454579
H7    H     H_    0.790913 0.617860 0.575493 0.223169
H8    H     H_    0.830776 0.565693 0.472907 0.201537
O17   O     O_2   0.785004 0.561441 0.368649 -0.488037
O18   O     O_2   0.428803 0.777722 0.335400 -0.506504
H9    H     H_    0.303001 0.869487 0.423530 0.192409
C47   C     C_R   0.454443 0.614688 0.256903 -0.057986
H10   H     H_    0.313690 0.620135 0.276810 0.130766
C48   C     C_R   0.467316 0.586150 0.197350 -0.183181
H11   H     H_    0.334952 0.570245 0.172772 0.132205
C49   C     C_R   0.647974 0.578403 0.169947 -0.055869
C50   C     C_R   0.815747 0.599353 0.204080 -0.181456
H12   H     H_    0.957107 0.594293 0.184584 0.128398
C51   C     C_R   0.802442 0.628362 0.263852 -0.065507
H13   H     H_    0.932915 0.645381 0.289165 0.133922
C52   C     C_R   0.621400 0.636714 0.290754 0.366128
C53   C     C_R   0.337684 0.833277 0.742191 0.326607
C54   C     C_R   0.327090 0.866817 0.801381 -0.229505
H14   H     H_    0.211105 0.848507 0.825217 0.178458
C55   C     C_R   0.466991 0.921659 0.830181 -0.199512
C56   C     C_R   0.617268 0.944666 0.797901 0.195417
C57   C     C_R   0.627530 0.910883 0.738167 0.275301
C58   C     C_R   0.488373 0.854707 0.710216 0.196121
C59   C     C_2   0.645783 0.272824 0.008391 0.086237
C60   C     C_2   0.478304 0.229894 0.997778 -0.352828
H15   H     H_    0.348352 0.257443 0.985893 0.153154
O19   O     O_R   0.618210 0.960470 0.922400 -0.525540
O20   O     O_R   0.291310 0.111960 0.995450 -0.528499
O21   O     O_R   0.124210 0.039530 0.077580 -0.535703
C61   C     C_R   0.461820 0.145374 0.999359 0.829678
O22   O     O_R   0.288310 0.965490 0.917650 -0.538496
O23   O     O_R   0.121180 0.892010 0.999220 -0.538741
C62   C     C_R   0.457060 0.951711 0.893771 0.774113
O24   O     O_R   0.621230 0.107990 0.000760 -0.508239
O25   O     O_3   0.455770 0.976060 0.026840 -0.385502
V3    V     V_3+5 0.179680 0.004440 0.995020 1.574379
O26   O     O_R   0.791670 0.888040 0.004570 -0.556021
C63   C     C_R   0.961153 0.854891 0.001582 0.774609
O27   O     O_R   0.794680 0.034510 0.082370 -0.542830
C64   C     C_R   0.964704 0.048504 0.106146 0.763364
V4    V     V_3+5 0.680070 0.995560 0.005010 1.536574
O28   O     O_3   0.953840 0.023940 0.973160 -0.334160
Br1   Br    Br    0.772914 0.458527 0.695535 -0.330390
Br2   Br    Br    0.806355 0.533330 0.836537 -0.428683
C65   C     C_2   0.413408 0.283535 0.712131 0.889483
O29   O     O_2   0.437989 0.268527 0.660339 -0.533353
O30   O     O_R   0.525874 0.244508 0.745278 -0.645952
H16   H     H_    0.617175 0.203938 0.721399 0.357785
C66   C     C_2   0.208012 0.938594 0.528755 0.920104
O31   O     O_2   0.062367 0.934773 0.556350 -0.496130
O32   O     O_R   0.247709 0.007248 0.510351 -0.623037
H17   H     H_    0.150435 0.051178 0.524904 0.316827
Br3   Br    Br    0.145259 0.757115 0.705988 -0.372151
Br4   Br    Br    0.802778 0.025718 0.833618 -0.419666
Br5   Br    Br    0.831035 0.941083 0.693651 -0.313076
Br6   Br    Br    0.883305 0.234591 0.035567 -0.526859
C67   C     C_2   0.323970 0.476538 0.534857 0.950090
O33   O     O_2   0.500287 0.480712 0.533730 -0.527177
O34   O     O_R   0.213352 0.544984 0.556125 -0.634186
H18   H     H_    0.295776 0.594743 0.569472 0.317473
Br7   Br    Br    0.299128 0.435717 0.405527 -0.398567
Br8   Br    Br    0.699159 0.041443 0.464032 -0.394726
C68   C     C_2   0.292989 0.068197 0.299293 0.866178
O35   O     O_2   0.381838 0.118673 0.335047 -0.527107
O36   O     O_R   0.332830 0.987261 0.293008 -0.626412
H19   H     H_    0.438255 0.978245 0.320229 0.356684
C69   C     C_2   0.274017 0.996101 0.175365 0.821111
O37   O     O_2   0.220841 0.932304 0.144245 -0.558921
O38   O     O_R   0.471279 0.012086 0.185184 -0.656076
H20   H     H_    0.555655 0.966417 0.164065 0.303363

loop_
_geom_bond_atom_site_label_1
_geom_bond_atom_site_label_2
_ccdc_geom_bond_type
C31   C32   A    
C55   C56   A    
C67   O34   S    
C57   C58   A    
C9    C12   A    
C1    O6    A    
O22   C62   A    
V4    O28   S    
C33   N3    A    
C33   C37   A    
C25   C26   A    
C30   H6    S    
C29   C30   A    
C35   C38   A    
C13   Br7   S    
C13   C14   A    
C69   O38   S    
C42   C46   A    
O5    C3    A    
C15   C16   A    
C47   H10   S    
C56   Br4   S    
O20   V3    S    
V2    O10   S    
O25   V3    S    
C21   C68   S    
C19   N2    A    
O25   V4    S    
C47   C52   A    
N3    C58   S    
C65   O29   D    
C46   O18   S    
C5    C6    D    
O26   C63   A    
O8    V2    S    
C36   C41   A    
N2    C20   A    
O34   H18   S    
C1    C49   S    
C5    H1    S    
N2    C26   S    
C8    C9    A    
C45   N4    A    
O1    V2    S    
O7    V1    S    
O26   V4    S    
C43   H9    S    
C24   C25   A    
C41   C42   A    
O23   C63   A    
O30   H16   S    
C34   C35   A    
O20   C61   A    
O9    C4    A    
C45   O17   S    
C4    C5    S    
C56   C57   A    
C57   Br5   S    
O27   V4    S    
O27   C64   A    
C3    C29   S    
C7    C11   A    
C59   C60   D    
C30   C31   A    
C39   H8    S    
O38   H20   S    
C50   C51   A    
C28   C29   A    
C25   H5    S    
C20   O14   S    
O19   V4    S    
C9    C10   A    
C47   C48   A    
C54   H14   S    
O4    C2    A    
C43   C44   A    
N1    C32   S    
C10   C11   A    
C24   H4    S    
C14   C19   A    
C48   H11   S    
C27   C32   A    
C19   O13   S    
C37   C44   A    
C35   C36   A    
O2    C1    A    
C42   C43   A    
O24   V4    S    
C14   C15   A    
C55   C62   S    
C54   C55   A    
C11   C18   A    
C16   C17   A    
N4    C52   S    
C27   C28   A    
C53   Br3   S    
C22   C69   S    
C49   C50   A    
C34   O16   S    
C50   H12   S    
O3    C4    A    
C68   O36   S    
C23   C64   S    
C40   C41   A    
O6    V2    S    
C48   C49   A    
C51   C52   A    
C22   C23   A    
C21   C22   A    
C66   O32   S    
O2    V1    S    
C23   C24   A    
C10   C15   A    
O23   V3    S    
C2    C59   S    
O1    C2    A    
C33   O15   S    
N1    C8    A    
C60   C61   S    
C68   O35   D    
O5    V1    S    
C17   Br8   S    
O8    C3    A    
C53   C58   A    
C6    C63   S    
C8    O12   S    
O19   C62   A    
C18   H3    S    
C17   C18   A    
C6    H2    S    
O9    V2    S    
C67   O33   D    
N3    C34   A    
C59   Br6   S    
N4    C46   A    
O21   C64   A    
V1    O10   S    
C39   C40   A    
C53   C54   A    
O22   V3    S    
C38   H7    S    
C44   C66   S    
C69   O37   D    
C28   Br2   S    
C27   Br1   S    
O7    V2    S    
C36   C37   A    
C65   O30   S    
O36   H19   S    
V3    O28   S    
C21   C26   A    
C38   C39   A    
O4    V1    S    
C7    O11   S    
C51   H13   S    
C60   H15   S    
C12   C13   A    
O3    V1    S    
C12   C67   S    
C16   C20   A    
O21   V3    S    
C61   O24   A    
C66   O31   D    
C7    N1    A    
C40   C45   A    
O32   H17   S    
C31   C65   S    
