data_mof_unit_49741.cif
_audit_creation_date              2013-03-05T16:45:43-0500
_audit_creation_method            fapswitch 2.2
_symmetry_space_group_name_H-M    P1
_symmetry_Int_Tables_number       1
_space_group_crystal_system       triclinic
_cell_length_a                    17.349102
_cell_length_b                    10.712926
_cell_length_c                    9.965529
_cell_angle_alpha                 89.078116
_cell_angle_beta                  88.822038
_cell_angle_gamma                 95.707605
_cell_volume                      1842.31160543

loop_
_atom_site_label
_atom_site_type_symbol
_atom_site_description
_atom_site_fract_x
_atom_site_fract_y
_atom_site_fract_z
_atom_type_partial_charge
O1    O     O_R   0.500010 0.316790 0.614690 -0.589631
O2    O     O_R   0.500000 0.316760 0.385350 -0.620413
C1    C     C_R   0.497225 0.260068 0.501023 0.883817
O3    O     O_R   0.389120 0.500020 0.614710 -0.621143
O4    O     O_R   0.389110 0.499990 0.385370 -0.643048
C2    C     C_R   0.353334 0.502787 0.501415 0.826165
Zn1   Zn    Zn3+2 0.500010 0.500020 0.653130 1.086136
Zn2   Zn    Zn3+2 0.499990 0.499980 0.346870 1.052417
O5    O     O_R   0.500000 0.683240 0.614650 -0.556287
O6    O     O_R   0.499990 0.683210 0.385310 -0.575075
O7    O     O_R   0.610890 0.500010 0.614630 -0.506073
O8    O     O_R   0.610880 0.499980 0.385290 -0.522826
C3    C     C_R   0.495927 0.738661 0.499506 0.968679
C4    C     C_R   0.646467 0.490952 0.498613 1.039210
C5    C     C_R   0.845840 0.501973 0.634698 0.370438
C6    C     C_R   0.767946 0.453836 0.617175 0.292362
C7    C     C_R   0.730999 0.483718 0.497012 -0.359001
C8    C     C_R   0.776815 0.521517 0.381808 0.295671
C9    C     C_R   0.854519 0.562479 0.397844 -0.276492
H1    H     H_    0.890613 0.592298 0.310713 0.213530
C10   C     C_R   0.887741 0.557950 0.523212 -0.111311
C11   C     C_1   0.969505 0.582594 0.525767 0.167686
C12   C     C_1   0.038388 0.589874 0.524145 -0.001762
C13   C     C_R   0.153840 0.539994 0.635576 -0.085471
H2    H     H_    0.121391 0.526154 0.729685 0.166029
C14   C     C_R   0.229891 0.510992 0.628237 -0.123864
H3    H     H_    0.255643 0.477515 0.718004 0.152363
C15   C     C_R   0.271604 0.523907 0.505776 -0.019921
C16   C     C_R   0.236312 0.567070 0.390724 -0.166578
H4    H     H_    0.267672 0.579532 0.295627 0.156762
C17   C     C_R   0.159944 0.595695 0.398241 -0.136228
H5    H     H_    0.132206 0.625537 0.308387 0.150707
C18   C     C_R   0.119162 0.581990 0.520676 0.122702
C19   C     C_R   0.501707 0.061781 0.622396 0.127610
C20   C     C_R   0.494377 0.127347 0.501964 -0.126552
C21   C     C_R   0.486083 0.063994 0.380252 -0.140307
H6    H     H_    0.479118 0.112881 0.285915 0.214949
C22   C     C_R   0.483582 0.935442 0.379842 -0.124803
H7    H     H_    0.471739 0.887291 0.287222 0.221634
C23   C     C_R   0.492580 0.870195 0.499667 -0.109106
C24   C     C_R   0.499994 0.933236 0.620629 0.031254
C25   C     C_3   0.448173 0.915937 0.743382 0.069708
C26   C     C_3   0.449764 0.057791 0.745916 0.017399
H8    H     H_    0.476632 0.873268 0.829426 0.191891
H9    H     H_    0.393492 0.096354 0.728550 0.128173
C27   C     C_R   0.456931 0.409149 0.073641 0.190689
N1    N     N_R   0.499490 0.499140 0.142800 -0.193652
C28   C     C_R   0.551277 0.585320 0.069741 0.317041
C29   C     C_R   0.551925 0.583990 0.922516 0.314197
N2    N     N_R   0.499490 0.499180 0.857150 -0.184644
C30   C     C_R   0.456359 0.410089 0.932802 0.226260
C31   C     C_3   0.370647 0.382042 0.931193 -0.488290
C32   C     C_3   0.371225 0.379561 0.083566 -0.458020
H10   H     H_    0.341728 0.461623 0.889722 0.217710
H11   H     H_    0.352757 0.289088 0.887568 0.223756
H12   H     H_    0.341496 0.456356 0.129013 0.206301
H13   H     H_    0.354502 0.284734 0.128203 0.230868
S1    S     S_3+6 0.892594 0.492024 0.791581 0.106350
O9    O     O_2   0.834919 0.475909 0.906367 -0.147899
O10   O     O_2   0.940199 0.382228 0.789613 -0.278403
O11   O     O_3   0.951484 0.624050 0.814737 -0.543289
H14   H     H_    0.981379 0.606458 0.895364 0.381083
N3    N     N_R   0.371299 0.852654 0.716705 0.208535
O12   O     O_R   0.344536 0.755680 0.789814 -0.389916
O13   O     O_R   0.329670 0.890646 0.619707 -0.399467
N4    N     N_R   0.488283 0.108898 0.865233 0.224747
O14   O     O_R   0.558988 0.162318 0.858726 -0.285702
O15   O     O_R   0.452171 0.096589 0.981085 -0.406962
S2    S     S_3+6 0.609103 0.716205 0.150878 0.142020
O16   O     O_2   0.687801 0.744036 0.086883 -0.132652
O17   O     O_2   0.565970 0.829225 0.128916 -0.301696
O18   O     O_3   0.632153 0.713545 0.312733 -0.530799
H15   H     H_    0.653128 0.800493 0.332998 0.371658
S3    S     S_3+6 0.625401 0.692062 0.831248 0.139061
O19   O     O_2   0.620122 0.822335 0.881710 -0.221297
O20   O     O_2   0.702664 0.649497 0.865911 -0.177776
O21   O     O_3   0.632853 0.716729 0.665131 -0.551856
H16   H     H_    0.681059 0.773343 0.649529 0.374801
S4    S     S_3+6 0.723135 0.330276 0.722719 0.148812
O22   O     O_2   0.665119 0.249447 0.644140 -0.279739
O23   O     O_2   0.782883 0.249369 0.772796 -0.198396
O24   O     O_3   0.677549 0.389622 0.854047 -0.461686
H17   H     H_    0.681495 0.329296 0.929338 0.420993
N5    N     N_R   0.748432 0.505603 0.247945 0.264410
O25   O     O_R   0.782731 0.572026 0.149582 -0.265514
O26   O     O_R   0.704923 0.403932 0.219077 -0.343035

loop_
_geom_bond_atom_site_label_1
_geom_bond_atom_site_label_2
_geom_bond_distance
_ccdc_geom_bond_type
N4    O15   1.300682 A    
N3    O13   1.302366 A    
C24   C25   1.501144 S    
C9    H1    1.084929 S    
C28   S2    1.848332 S    
O21   H16   0.991060 S    
Zn1   O7    1.953816 S    
C15   C16   1.404069 A    
C14   H3    1.080036 S    
S3    O20   1.503195 D    
C21   H6    1.083575 S    
C9    C10   1.388763 A    
C13   C14   1.386011 A    
C8    C9    1.388859 A    
C22   H7    1.078097 S    
O7    C4    1.308934 A    
S1    O10   1.503108 D    
C5    C6    1.413051 A    
C19   C20   1.395304 A    
S2    O17   1.500755 D    
O5    C3    1.289941 A    
C3    C23   1.416098 S    
C2    C15   1.457813 S    
C20   C21   1.402404 A    
C6    C7    1.416825 A    
C12   C18   1.412017 S    
S3    O21   1.672542 S    
C8    N5    1.438326 S    
C17   C18   1.396049 A    
C31   H11   1.111299 S    
S1    O11   1.682357 S    
N4    O14   1.300899 A    
C10   C11   1.417673 S    
C4    C7    1.476049 S    
S2    O16   1.495626 D    
C19   C24   1.374854 A    
C25   H8    1.112499 S    
O3    Zn1   1.969277 S    
C31   H10   1.109789 S    
N2    C30   1.360457 A    
C11   C12   1.189588 T    
S3    O19   1.501708 D    
C30   C31   1.487960 S    
N5    O25   1.300253 A    
O3    C2    1.300957 A    
S4    O23   1.503612 D    
C32   H13   1.111572 S    
S1    O9    1.500598 D    
C27   C30   1.403657 A    
S4    O22   1.502330 D    
O1    C1    1.293552 A    
S2    O18   1.670248 S    
C16   H4    1.082695 S    
S4    O24   1.681301 S    
N1    C28   1.405771 A    
C1    C20   1.417648 S    
Zn2   O8    1.969278 S    
C7    C8    1.413269 A    
C13   H2    1.084284 S    
C26   H9    1.112918 S    
C23   C24   1.393211 A    
O8    C4    1.304962 A    
C29   N2    1.398704 A    
C5    S1    1.782569 S    
C25   C26   1.517807 S    
C31   C32   1.518537 S    
C32   H12   1.111192 S    
Zn1   O5    1.993885 S    
C27   N1    1.360262 A    
C28   C29   1.467296 A    
O1    Zn1   2.006000 S    
C17   H5    1.083837 S    
O2    Zn2   1.993885 S    
C19   C26   1.508029 S    
Zn1   N2    2.032873 S    
N5    O26   1.301686 A    
O18   H15   0.991209 S    
O6    C3    1.296044 A    
O4    Zn2   1.953816 S    
C14   C15   1.403763 A    
C13   C18   1.393222 A    
C6    S4    1.783168 S    
C21   C22   1.373605 A    
O2    C1    1.292035 A    
Zn2   N1    2.034023 S    
C16   C17   1.390143 A    
C22   C23   1.393337 A    
O4    C2    1.303390 A    
C26   N4    1.463225 S    
C27   C32   1.490101 S    
O11   H14   0.990865 S    
N3    O12   1.300561 A    
C5    C10   1.407503 A    
Zn2   O6    2.006000 S    
O24   H17   0.990267 S    
C29   S3    1.848652 S    
C25   N3    1.466144 S    
