data_mof_unit_58843.cif
_audit_creation_date              2012-12-11T14:52:27-0500
_audit_creation_method            fapswitch 2.2
_symmetry_space_group_name_H-M    P1
_symmetry_Int_Tables_number       1
_space_group_crystal_system       triclinic
_cell_length_a                    18.674436
_cell_length_b                    10.971795
_cell_length_c                    18.713688
_cell_angle_alpha                 89.884629
_cell_angle_beta                  91.220801
_cell_angle_gamma                 89.666634
_cell_volume                      3833.34254948

loop_
_atom_site_label
_atom_site_type_symbol
_atom_type_description
_atom_site_fract_x
_atom_site_fract_y
_atom_site_fract_z
_atom_type_partial_charge
C1    C     C_R   0.271929 0.042835 0.853581 0.545516
C2    C     C_R   0.710261 0.999081 0.138864 0.543000
C3    C     C_R   0.771970 0.542261 0.853685 0.547515
C4    C     C_R   0.209600 0.497471 0.139035 0.541430
C5    C     C_3   0.494084 0.709096 0.979055 -0.072078
C6    C     C_3   0.443569 0.768418 0.033405 -0.109395
C7    C     C_3   0.035168 0.233828 0.971887 -0.075867
C8    C     C_3   0.975976 0.217293 0.027370 -0.055224
C9    C     C_R   0.292405 0.502992 0.957599 0.170390
C10   C     C_R   0.700667 0.521813 0.038262 0.166691
C11   C     C_R   0.797606 0.014188 0.960172 0.164095
C12   C     C_R   0.195434 0.031736 0.036324 0.179476
C13   C     C_R   0.281529 0.474693 0.029115 -0.121934
C14   C     C_R   0.703082 0.513033 0.964126 -0.122532
C15   C     C_R   0.786799 0.988786 0.031899 -0.113597
C16   C     C_R   0.199053 0.023942 0.962217 -0.123461
C17   C     C_R   0.221776 0.520984 0.063980 -0.079436
C18   C     C_R   0.755803 0.575118 0.926642 -0.071418
C19   C     C_R   0.723428 0.024578 0.064299 -0.067223
C20   C     C_R   0.256101 0.076795 0.926577 -0.075074
C21   C     C_R   0.170267 0.588285 0.026307 -0.102441
C22   C     C_R   0.806561 0.644677 0.963494 -0.101366
C23   C     C_R   0.669650 0.082533 0.024612 -0.100182
C24   C     C_R   0.310040 0.136354 0.965411 -0.105378
C25   C     C_R   0.179790 0.619329 0.956247 0.175594
C26   C     C_R   0.808615 0.647297 0.036632 0.152364
C27   C     C_R   0.678177 0.107887 0.953437 0.171146
C28   C     C_R   0.311040 0.135352 0.038630 0.160285
C29   C     C_R   0.242945 0.580224 0.920802 0.022737
C30   C     C_R   0.752274 0.593015 0.075415 0.013312
C31   C     C_R   0.744066 0.078354 0.920307 0.013583
C32   C     C_R   0.250887 0.091304 0.075502 0.022933
C33   C     C_R   0.499577 0.723246 0.536432 -0.194332
C34   C     C_R   0.500286 0.723411 0.463553 -0.193897
C35   C     C_R   0.999566 0.223245 0.536428 -0.194270
C36   C     C_R   0.000275 0.223410 0.463549 -0.193838
C37   C     C_R   0.503679 0.833098 0.425623 -0.007203
C38   C     C_R   0.496152 0.832818 0.574294 -0.007429
C39   C     C_R   0.003672 0.333098 0.425620 -0.007082
C40   C     C_R   0.996145 0.332817 0.574290 -0.007130
C41   C     C_R   0.500502 0.945450 0.462498 0.244459
C42   C     C_R   0.499181 0.945291 0.537331 0.244580
C43   C     C_R   0.000493 0.445450 0.462494 0.244908
C44   C     C_R   0.999173 0.445290 0.537327 0.245192
C45   C     C_R   0.468613 0.820381 0.856416 0.551550
C46   C     C_R   0.529577 0.821755 0.144531 0.545451
C47   C     C_R   0.970012 0.320990 0.855804 0.545506
C48   C     C_R   0.028442 0.321323 0.145017 0.541360
C49   C     C_R   0.224756 0.738217 0.517588 -0.077777
C50   C     C_R   0.774308 0.738623 0.482207 -0.077271
C51   C     C_R   0.724756 0.238217 0.517586 -0.077874
C52   C     C_R   0.274307 0.238624 0.482208 -0.077551
C53   C     C_R   0.216709 0.712051 0.445547 0.256599
C54   C     C_R   0.782329 0.712465 0.554330 0.257240
C55   C     C_R   0.716712 0.212054 0.445545 0.256389
C56   C     C_R   0.282328 0.212467 0.554332 0.256924
C57   C     C_R   0.256889 0.615144 0.416096 0.027962
C58   C     C_R   0.742732 0.615544 0.583869 0.028469
C59   C     C_R   0.756891 0.115144 0.416095 0.027766
C60   C     C_R   0.242731 0.115546 0.583871 0.028303
C61   C     C_R   0.314859 0.566127 0.455434 -0.179907
C62   C     C_R   0.685121 0.566716 0.544556 -0.180069
C63   C     C_R   0.814859 0.066124 0.455434 -0.180002
C64   C     C_R   0.185120 0.066718 0.544558 -0.180143
C65   C     C_R   0.324137 0.596328 0.527060 -0.121565
C66   C     C_R   0.675888 0.596785 0.472841 -0.123078
C67   C     C_R   0.824136 0.096324 0.527060 -0.121460
C68   C     C_R   0.175887 0.096787 0.472842 -0.122953
C69   C     C_R   0.274975 0.674765 0.559604 -0.019366
C70   C     C_R   0.724671 0.675069 0.440228 -0.020695
C71   C     C_R   0.774974 0.174762 0.559603 -0.019227
C72   C     C_R   0.224672 0.175070 0.440229 -0.020556
C73   C     C_R   0.259591 0.634860 0.851534 0.596324
C74   C     C_R   0.740266 0.635323 0.148368 0.586576
C75   C     C_R   0.759558 0.133822 0.851090 0.593073
C76   C     C_R   0.239986 0.135032 0.148374 0.588637
C77   C     C_R   0.269260 0.051569 0.647949 0.553332
C78   C     C_R   0.730704 0.051605 0.352027 0.565763
C79   C     C_R   0.769261 0.551567 0.647948 0.553938
C80   C     C_R   0.230703 0.551603 0.352029 0.565859
C81   C     C_R   0.470651 0.823937 0.647129 0.552094
C82   C     C_R   0.529306 0.824141 0.352839 0.554601
C83   C     C_R   0.970649 0.323937 0.647127 0.550922
C84   C     C_R   0.029305 0.324141 0.352838 0.553257
C85   C     C_R   0.275709 0.692752 0.636732 0.558205
C86   C     C_R   0.724131 0.692673 0.363057 0.558586
C87   C     C_R   0.775709 0.192751 0.636731 0.558264
C88   C     C_R   0.224131 0.192673 0.363058 0.558689
C89   C     C_3   0.501495 0.942188 0.022394 -0.080113
C90   C     C_3   0.551813 0.881917 0.967845 -0.141067
C91   C     C_3   0.958611 0.415882 0.029799 -0.119367
C92   C     C_3   0.017840 0.432783 0.974076 -0.113940
C93   C     C_3   0.435920 0.882519 0.985159 -0.096443
C94   C     C_3   0.559264 0.768486 0.016095 -0.127604
C95   C     C_3   0.927379 0.308578 0.986030 -0.115828
C96   C     C_3   0.066520 0.341017 0.015137 -0.132759
C97   C     C_3   0.487034 0.823509 0.931983 0.040344
C98   C     C_3   0.508363 0.828306 0.069598 0.039653
C99   C     C_3   0.987390 0.325651 0.931730 0.040509
C100  C     C_3   0.006906 0.325097 0.069832 0.034739
Cr1   Cr    Cr6+3 0.229630 0.835900 0.747350 1.095790
Cr2   Cr    Cr6+3 0.770370 0.835900 0.252650 1.094791
Cr3   Cr    Cr6+3 0.729630 0.335900 0.747350 1.095563
Cr4   Cr    Cr6+3 0.270370 0.335900 0.252650 1.096451
Cr5   Cr    Cr6+3 0.387410 0.989850 0.750850 1.159256
Cr6   Cr    Cr6+3 0.612590 0.989850 0.249150 1.150226
Cr7   Cr    Cr6+3 0.887410 0.489850 0.750850 1.147587
Cr8   Cr    Cr6+3 0.112590 0.489850 0.249150 1.147641
Cr9   Cr    Cr6+3 0.385800 0.677120 0.749340 1.117404
Cr10  Cr    Cr6+3 0.614200 0.677120 0.250660 1.118451
Cr11  Cr    Cr6+3 0.885800 0.177120 0.749340 1.120318
Cr12  Cr    Cr6+3 0.114200 0.177120 0.250660 1.117394
H1    H     H_    0.189871 0.804941 0.541384 0.160290
H2    H     H_    0.808793 0.805340 0.458327 0.160513
H3    H     H_    0.689872 0.304943 0.541382 0.160253
H4    H     H_    0.308792 0.305341 0.458328 0.160397
H5    H     H_    0.349866 0.498483 0.432441 0.154543
H6    H     H_    0.650447 0.499199 0.567637 0.153388
H7    H     H_    0.849865 0.998479 0.432441 0.154446
H8    H     H_    0.150446 0.999201 0.567638 0.153281
H9    H     H_    0.366952 0.552759 0.557644 0.197309
H10   H     H_    0.633460 0.553166 0.442275 0.197390
H11   H     H_    0.866949 0.052752 0.557644 0.197260
H12   H     H_    0.133459 0.053168 0.442276 0.197389
H13   H     H_    0.492395 0.613318 0.960170 0.212733
H14   H     H_    0.399216 0.722938 0.061441 0.149053
H15   H     H_    0.066492 0.160235 0.946358 0.160821
H16   H     H_    0.958143 0.129586 0.050551 0.196827
O1    O     O_R   0.214270 0.709000 0.827470 -0.449274
O2    O     O_R   0.785730 0.709000 0.172530 -0.457258
O3    O     O_R   0.714270 0.209000 0.827470 -0.449615
O4    O     O_R   0.285730 0.209000 0.172530 -0.457936
O5    O     O_R   0.445950 0.919440 0.676520 -0.442902
O6    O     O_R   0.554050 0.919440 0.323480 -0.443465
O7    O     O_R   0.945950 0.419440 0.676520 -0.444121
O8    O     O_R   0.054050 0.419440 0.323480 -0.444886
O9    O     O_R   0.456730 0.717630 0.669840 -0.536651
O10   O     O_R   0.543270 0.717630 0.330160 -0.533539
O11   O     O_R   0.956730 0.217630 0.669840 -0.537526
O12   O     O_R   0.043270 0.217630 0.330160 -0.533991
O13   O     O_R   0.320620 0.625640 0.672920 -0.467396
O14   O     O_R   0.679380 0.625640 0.327080 -0.464364
O15   O     O_R   0.820620 0.125640 0.672920 -0.468935
O16   O     O_R   0.179380 0.125640 0.327080 -0.465241
O17   O     O_3   0.334280 0.834290 0.749180 -0.327188
O18   O     O_3   0.665720 0.834290 0.250820 -0.345852
O19   O     O_3   0.834280 0.334290 0.749180 -0.324655
O20   O     O_3   0.165720 0.334290 0.250820 -0.345608
O21   O     O_R   0.236160 0.958490 0.823130 -0.494020
O22   O     O_R   0.763840 0.958490 0.176870 -0.488793
O23   O     O_R   0.736160 0.458490 0.823130 -0.499357
O24   O     O_R   0.263840 0.458490 0.176870 -0.487698
O25   O     O_R   0.332080 0.075470 0.831280 -0.491271
O26   O     O_R   0.667920 0.075470 0.168720 -0.467997
O27   O     O_R   0.832080 0.575470 0.831280 -0.493949
O28   O     O_R   0.167920 0.575470 0.168720 -0.471373
O29   O     O_R   0.446300 0.918110 0.826620 -0.479297
O30   O     O_R   0.553700 0.918110 0.173380 -0.513122
O31   O     O_R   0.946300 0.418110 0.826620 -0.491812
O32   O     O_R   0.053700 0.418110 0.173380 -0.507385
O33   O     O_R   0.457110 0.716200 0.831760 -0.496052
O34   O     O_R   0.542890 0.716200 0.168240 -0.477878
O35   O     O_R   0.957110 0.216200 0.831760 -0.476473
O36   O     O_R   0.042890 0.216200 0.168240 -0.480765
O37   O     O_R   0.320980 0.624310 0.823030 -0.443130
O38   O     O_R   0.679020 0.624310 0.176970 -0.448423
O39   O     O_R   0.820980 0.124310 0.823030 -0.443189
O40   O     O_R   0.179020 0.124310 0.176970 -0.446027
O41   O     O_R   0.213890 0.710430 0.665540 -0.473384
O42   O     O_R   0.786110 0.710430 0.334460 -0.471420
O43   O     O_R   0.713890 0.210430 0.665540 -0.471534
O44   O     O_R   0.286110 0.210430 0.334460 -0.470095
O45   O     O_R   0.235810 0.959820 0.673020 -0.547126
O46   O     O_R   0.764190 0.959820 0.326980 -0.541415
O47   O     O_R   0.735810 0.459820 0.673020 -0.546454
O48   O     O_R   0.264190 0.459820 0.326980 -0.541247
O49   O     O_R   0.331700 0.076900 0.669350 -0.414748
O50   O     O_R   0.668300 0.076900 0.330650 -0.412176
O51   O     O_R   0.831700 0.576900 0.669350 -0.415449
O52   O     O_R   0.168300 0.576900 0.330650 -0.412809
H17   H     H_    0.384521 0.926806 0.969785 0.136530
H18   H     H_    0.610670 0.722958 0.030606 0.139583
H19   H     H_    0.869841 0.295280 0.971985 0.130362
H20   H     H_    0.124319 0.349138 0.028457 0.104976
Cl1   Cl    Cl    0.153832 0.800822 0.396173 -0.511651
Cl2   Cl    Cl    0.844433 0.801184 0.603709 -0.517818
Cl3   Cl    Cl    0.653841 0.300830 0.396166 -0.509824
Cl4   Cl    Cl    0.344428 0.301189 0.603713 -0.514876
H21   H     H_    0.504124 0.037312 0.041608 0.209297
H22   H     H_    0.595814 0.919246 0.936213 0.158860
H23   H     H_    0.926608 0.485850 0.056907 0.192336
H24   H     H_    0.032863 0.519928 0.949399 0.203778
Cl5   Cl    Cl    0.369666 0.441770 0.918338 -0.544219
Cl6   Cl    Cl    0.633682 0.438316 0.081467 -0.501638
Cl7   Cl    Cl    0.880017 0.966055 0.925033 -0.523193
Cl8   Cl    Cl    0.121964 0.960517 0.076529 -0.491391
H25   H     H_    0.320488 0.418808 0.057753 0.224440
H26   H     H_    0.665353 0.454389 0.936224 0.214701
H27   H     H_    0.828912 0.944587 0.062851 0.229926
H28   H     H_    0.158324 0.973944 0.932727 0.219765
H29   H     H_    0.122020 0.619599 0.052005 0.217068
H30   H     H_    0.849302 0.689867 0.935697 0.235748
H31   H     H_    0.619999 0.108810 0.049216 0.200661
H32   H     H_    0.356337 0.173552 0.939336 0.240594
Cl9   Cl    Cl    0.110808 0.715573 0.920711 -0.533546
Cl10  Cl    Cl    0.886293 0.717243 0.074220 -0.546919
Cl11  Cl    Cl    0.601803 0.175151 0.910761 -0.529352
Cl12  Cl    Cl    0.391718 0.187296 0.079505 -0.552714
H33   H     H_    0.498072 0.635242 0.562727 0.173040
H34   H     H_    0.501863 0.635508 0.437319 0.173742
H35   H     H_    0.998060 0.135239 0.562722 0.172902
H36   H     H_    0.001851 0.135508 0.437314 0.173640
Cl13  Cl    Cl    0.495499 0.086957 0.416762 -0.427198
Cl14  Cl    Cl    0.503969 0.086521 0.582945 -0.427243
Cl15  Cl    Cl    0.995491 0.586958 0.416758 -0.428807
Cl16  Cl    Cl    0.003959 0.586521 0.582939 -0.429744

loop_
_geom_bond_atom_site_label_1
_geom_bond_atom_site_label_2
_ccdc_geom_bond_type
C58   C62   A    
C49   H1    S    
Cr2   O42   S    
C88   O44   A    
C55   C59   A    
C34   C37   A    
C24   H32   S    
C41   C42   A    
Cr12  O12   S    
Cr5   O25   S    
C35   C36   A    
C40   C83   S    
C43   Cl15  S    
Cr6   O6    S    
C68   H12   S    
C83   O11   A    
C5    C94   S    
Cr10  O34   S    
Cr3   O19   S    
C7    C8    S    
Cr4   O48   S    
C47   O31   A    
C81   O9    A    
C7    C96   S    
C48   O32   A    
Cr1   O17   S    
C50   C54   A    
C7    C99   S    
C2    O22   A    
C37   C41   A    
C52   C72   A    
C64   C68   A    
Cr9   O33   S    
Cr10  O38   S    
Cr3   O3    S    
C21   H29   S    
C11   Cl7   S    
C39   C84   S    
Cr8   O8    S    
C93   H17   S    
C10   Cl6   S    
C54   C58   A    
C5    C6    S    
C30   C74   S    
C9    Cl5   S    
C68   C72   A    
C29   C73   S    
C94   C98   S    
C95   C99   S    
Cr12  O40   S    
C75   O39   A    
C92   C96   S    
C47   C99   S    
Cr8   O52   S    
C3    C18   S    
Cr9   O9    S    
Cr11  O11   S    
C57   C61   A    
Cr10  O14   S    
C53   Cl1   S    
C9    C13   A    
C34   H34   S    
C52   C56   A    
C33   H33   S    
C8    H16   S    
Cr5   O29   S    
C56   Cl4   S    
Cr6   O26   S    
Cr7   O7    S    
C66   H10   S    
Cr1   O41   S    
C23   C27   A    
C91   C100  S    
C90   C97   S    
C83   O7    A    
C16   H28   S    
C9    C29   A    
Cr5   O17   S    
Cr4   O44   S    
C47   O35   A    
C46   C98   S    
C11   C31   A    
C2    O26   A    
C49   C69   A    
C12   C32   A    
Cr3   O43   S    
C12   Cl8   S    
C57   C80   S    
C78   O50   A    
C26   Cl10  S    
C8    C95   S    
C11   C15   A    
C96   H20   S    
C25   Cl9   S    
C59   C78   S    
Cr3   O47   S    
C72   C88   S    
C75   O3    A    
C90   C94   S    
C63   C67   A    
C52   H4    S    
C25   C29   A    
C64   H8    S    
Cr12  O36   S    
C73   O1    A    
C60   C77   S    
Cr1   O45   S    
C22   H30   S    
C27   C31   A    
C12   C16   A    
Cr10  O10   S    
C48   C100  S    
Cr11  O35   S    
C80   O48   A    
C73   O37   A    
C10   C14   A    
C85   O13   A    
C91   C92   S    
C62   C66   A    
C19   C23   A    
C39   C43   A    
C51   C55   A    
Cr7   O19   S    
Cr6   O30   S    
C61   H5    S    
C17   C21   A    
C56   C60   A    
C23   H31   S    
C77   O49   A    
C50   H2    S    
C82   O6    A    
C15   C19   A    
C43   C44   A    
C42   Cl14  S    
Cr11  O19   S    
C13   H25   S    
C41   Cl13  S    
C10   C30   A    
C93   C97   S    
C31   C75   S    
Cr10  O18   S    
Cr8   O28   S    
C28   C32   A    
C16   C20   A    
C6    C93   S    
C87   O43   A    
Cr3   O23   S    
C3    O27   A    
C33   C34   A    
C54   Cl2   S    
C45   O29   A    
C4    O24   A    
C1    O25   A    
C6    H14   S    
Cr9   O37   S    
C58   C79   S    
C36   H36   S    
C71   C87   S    
C4    C17   S    
C77   O45   A    
C4    O28   A    
Cr2   O22   S    
C26   C30   A    
C65   H9    S    
C74   O2    A    
C38   C81   S    
C22   C26   A    
C28   Cl12  S    
C79   O51   A    
C37   C82   S    
Cr11  O39   S    
C70   C86   S    
C6    C98   S    
C74   O38   A    
C69   C85   S    
C86   O14   A    
Cr5   O5    S    
C90   H22   S    
C65   C69   A    
C21   C25   A    
C84   O8    A    
C1    C20   S    
C53   C57   A    
C95   H19   S    
Cr7   O51   S    
C2    C19   S    
C44   Cl16  S    
C59   C63   A    
C14   C18   A    
C36   C39   A    
Cr9   O17   S    
Cr4   O24   S    
C24   C28   A    
Cr5   O49   S    
C1    O21   A    
C67   H11   S    
C32   C76   S    
Cr7   O31   S    
C55   Cl3   S    
C51   C71   A    
C81   O5    A    
Cr8   O32   S    
C45   O33   A    
Cr11  O15   S    
Cr2   O46   S    
C66   C70   A    
C3    O23   A    
C33   C38   A    
Cr6   O18   S    
C13   C17   A    
C89   C98   S    
C60   C64   A    
C87   O15   A    
Cr12  O16   S    
C18   C22   A    
C35   C40   A    
C8    C100  S    
Cr4   O20   S    
C80   O52   A    
C45   C97   S    
Cr2   O18   S    
C76   O4    A    
C79   O47   A    
C35   H35   S    
C50   C70   A    
C91   H23   S    
C86   O42   A    
C48   O36   A    
C49   C53   A    
C96   C100  S    
Cr1   O21   S    
C88   O16   A    
C15   H27   S    
C76   O40   A    
C67   C71   A    
C61   C65   A    
C89   C93   S    
C20   C24   A    
C85   O41   A    
C62   H6    S    
C51   H3    S    
C91   C95   S    
C38   C42   A    
Cr12  O20   S    
C5    C97   S    
C40   C44   A    
C84   O12   A    
C27   Cl11  S    
C82   O10   A    
C63   H7    S    
Cr4   O4    S    
C5    H13   S    
C78   O46   A    
C89   H21   S    
Cr2   O2    S    
Cr9   O13   S    
C94   H18   S    
C7    H15   S    
C89   C90   S    
C14   H26   S    
C46   O34   A    
Cr6   O50   S    
Cr7   O27   S    
C92   H24   S    
C92   C99   S    
Cr1   O1    S    
Cr8   O20   S    
C46   O30   A    
