data_mof_unit_60385.cif
_audit_creation_date              2012-12-10T17:01:29-0500
_audit_creation_method            fapswitch 2.2
_symmetry_space_group_name_H-M    P1
_symmetry_Int_Tables_number       1
_space_group_crystal_system       triclinic
_cell_length_a                    21.732611
_cell_length_b                    21.734404
_cell_length_c                    55.65129
_cell_angle_alpha                 90.957381
_cell_angle_beta                  89.807088
_cell_angle_gamma                 90.023479
_cell_volume                      26282.8076885

loop_
_atom_site_label
_atom_site_type_symbol
_atom_type_description
_atom_site_fract_x
_atom_site_fract_y
_atom_site_fract_z
_atom_type_partial_charge
C1    C     C_R   0.502306 0.619013 0.000301 0.925691
C2    C     C_R   0.533779 0.048341 0.763094 0.090981
C3    C     C_R   0.498966 0.004526 0.699325 -0.145760
C4    C     C_R   0.529239 0.044699 0.161740 0.603713
C5    C     C_R   0.955591 0.534625 0.161681 0.604109
C6    C     C_R   0.469881 0.952489 0.161040 0.604214
C7    C     C_R   0.047888 0.475470 0.161148 0.603835
C8    C     C_R   0.051662 0.512759 0.661610 0.597605
C9    C     C_R   0.545538 0.033443 0.661554 0.598920
C10   C     C_R   0.971123 0.438275 0.660868 0.602422
C11   C     C_R   0.452277 0.975981 0.661287 0.600206
C12   C     C_R   0.986915 0.551045 0.888596 -0.090297
C13   C     C_R   0.968423 0.439923 0.762089 0.091851
C14   C     C_R   0.445125 0.006632 0.888947 -0.093042
C15   C     C_R   0.007896 0.441536 0.888636 -0.093706
C16   C     C_R   0.556094 0.994778 0.888821 -0.093335
C17   C     C_R   0.488472 0.051371 0.388881 -0.092576
C18   C     C_R   0.946415 0.488581 0.388728 -0.091055
C19   C     C_R   0.513528 0.942644 0.388819 -0.090106
C20   C     C_R   0.055131 0.513784 0.389011 -0.091495
C21   C     C_R   0.988033 0.552449 0.913658 -0.210869
C22   C     C_R   0.444850 0.006129 0.913941 -0.206597
C23   C     C_R   0.008474 0.442738 0.913679 -0.206578
C24   C     C_R   0.465688 0.958340 0.762432 0.091206
C25   C     C_R   0.555979 0.994542 0.913824 -0.211142
C26   C     C_R   0.488279 0.052426 0.413892 -0.210901
C27   C     C_R   0.946035 0.488288 0.413741 -0.207882
C28   C     C_R   0.512728 0.943454 0.413839 -0.208191
C29   C     C_R   0.054999 0.512878 0.414012 -0.211083
C30   C     C_R   0.998838 0.498271 0.926409 -0.047985
C31   C     C_R   0.500315 0.000170 0.926568 -0.047123
C32   C     C_R   0.500293 0.998428 0.426553 -0.047027
C33   C     C_R   0.000382 0.500318 0.426560 -0.047023
C34   C     C_R   0.997145 0.495636 0.875960 0.296461
C35   C     C_R   0.539567 0.037888 0.262830 0.094692
C36   C     C_R   0.500703 0.000902 0.876333 0.301147
C37   C     C_R   0.501302 0.996560 0.376253 0.296416
C38   C     C_R   0.000899 0.501516 0.376276 0.296331
C39   C     C_R   0.553893 0.986698 0.111074 -0.074781
C40   C     C_R   0.013179 0.557611 0.111196 -0.073507
C41   C     C_R   0.445184 0.011912 0.111355 -0.073759
C42   C     C_R   0.988082 0.448870 0.111264 -0.075091
C43   C     C_R   0.056740 0.469692 0.609718 -0.073617
C44   C     C_R   0.503758 0.947475 0.611185 -0.077568
C45   C     C_R   0.951060 0.504764 0.612537 -0.072963
C46   C     C_R   0.960419 0.542687 0.263019 0.094613
C47   C     C_R   0.495542 0.058776 0.611243 -0.073007
C48   C     C_R   0.554150 0.987330 0.086072 -0.193588
C49   C     C_R   0.012503 0.556690 0.086181 -0.194184
C50   C     C_R   0.445179 0.011944 0.086338 -0.198569
C51   C     C_R   0.988003 0.447687 0.086249 -0.198109
C52   C     C_R   0.054964 0.475372 0.584896 -0.190689
C53   C     C_R   0.503865 0.946401 0.586188 -0.198504
C54   C     C_R   0.948881 0.509539 0.587520 -0.202739
C55   C     C_R   0.495862 0.057834 0.586236 -0.194687
C56   C     C_2   0.783218 0.457994 0.014116 -0.142478
C57   C     C_R   0.463474 0.954516 0.262329 0.094838
C58   C     C_2   0.542892 0.782731 0.986267 -0.147819
C59   C     C_2   0.216784 0.542034 0.985979 -0.145505
C60   C     C_2   0.457126 0.217269 0.013823 -0.144688
C61   C     C_2   0.283217 0.957986 0.514112 -0.140208
C62   C     C_2   0.042895 0.282730 0.486272 -0.147143
C63   C     C_2   0.716784 0.042028 0.485976 -0.143301
C64   C     C_2   0.957115 0.717270 0.513815 -0.146040
C65   C     C_R   0.499733 0.999798 0.073519 -0.050785
C66   C     C_R   0.000120 0.501641 0.073526 -0.050796
C67   C     C_R   0.001037 0.495162 0.573549 -0.050851
C68   C     C_R   0.043906 0.466782 0.262232 0.094924
C69   C     C_R   0.499932 0.001597 0.573522 -0.053956
C70   C     C_2   0.815073 0.502681 0.003522 -0.328871
C71   C     C_2   0.497519 0.814926 0.996746 -0.325650
C72   C     C_2   0.184927 0.497322 0.996556 -0.329448
C73   C     C_2   0.502483 0.185074 0.003334 -0.328056
C74   C     C_2   0.315073 0.002681 0.503523 -0.332382
C75   C     C_2   0.997519 0.314926 0.496749 -0.328263
C76   C     C_2   0.684927 0.997320 0.496555 -0.329727
C77   C     C_2   0.002482 0.685074 0.503332 -0.327276
C78   C     C_2   0.716351 0.463458 0.016261 -0.136587
C79   C     C_R   0.009810 0.479029 0.774770 0.069785
C80   C     C_2   0.537576 0.715826 0.984151 -0.148351
C81   C     C_2   0.283651 0.536573 0.983832 -0.144948
C82   C     C_2   0.462444 0.284174 0.015938 -0.140448
C83   C     C_2   0.216350 0.963451 0.516258 -0.137588
C84   C     C_2   0.037579 0.215826 0.484154 -0.149446
C85   C     C_2   0.783650 0.036567 0.483829 -0.144940
C86   C     C_2   0.962434 0.784175 0.515932 -0.143172
C87   C     C_2   0.684750 0.490985 0.998906 -0.330595
C88   C     C_2   0.509202 0.684744 0.001503 -0.321980
C89   C     C_2   0.315251 0.509005 0.001177 -0.325431
C90   C     C_R   0.499943 0.003023 0.775374 0.071186
C91   C     C_2   0.490792 0.315255 0.998579 -0.329144
C92   C     C_2   0.184750 0.990990 0.498906 -0.332197
C93   C     C_2   0.009198 0.184744 0.501504 -0.323188
C94   C     C_2   0.815250 0.009007 0.501176 -0.324941
C95   C     C_2   0.990800 0.815256 0.498578 -0.326836
C96   C     C_R   0.999755 0.499512 0.952847 0.875796
C97   C     C_R   0.500098 0.999973 0.952901 0.878819
C98   C     C_R   0.500034 0.999521 0.452897 0.877081
C99   C     C_R   0.000103 0.499984 0.452898 0.877215
C100  C     C_R   0.880835 0.500329 0.000942 0.940724
C101  C     C_R   0.501707 0.995980 0.275199 0.070059
C102  C     C_R   0.499702 0.880798 0.999185 0.941947
C103  C     C_R   0.119165 0.499672 0.999138 0.942697
C104  C     C_R   0.500298 0.119201 0.000896 0.941465
C105  C     C_R   0.380835 0.000329 0.500942 0.941320
C106  C     C_R   0.999702 0.380798 0.499186 0.940497
C107  C     C_R   0.619165 0.999671 0.499137 0.941845
C108  C     C_R   0.000298 0.619201 0.500895 0.940423
C109  C     C_R   0.999985 0.500485 0.047183 0.881610
C110  C     C_R   0.499907 0.000019 0.047181 0.881891
C111  C     C_R   0.500001 0.000482 0.547181 0.882633
C112  C     C_R   0.380987 0.502291 0.000181 0.925698
C113  C     C_R   0.002059 0.504415 0.275245 0.070058
C114  C     C_R   0.000022 0.499448 0.547215 0.878070
C115  C     C_R   0.090701 0.556191 0.775550 -0.121779
C116  C     C_R   0.559047 0.097764 0.776618 -0.112524
C117  C     C_R   0.918896 0.414008 0.775050 -0.120609
C118  C     C_R   0.440842 0.908253 0.775108 -0.114430
C119  C     C_R   0.584084 0.071427 0.276032 -0.111844
C120  C     C_R   0.926498 0.586615 0.276538 -0.111713
C121  C     C_R   0.419431 0.920421 0.275238 -0.112086
C122  C     C_R   0.077754 0.422302 0.274827 -0.112257
C123  C     C_R   0.086979 0.560500 0.800431 -0.151411
C124  C     C_R   0.497692 0.380987 0.999779 0.926253
C125  C     C_R   0.557070 0.098435 0.801593 -0.149715
C126  C     C_R   0.915063 0.419454 0.799923 -0.150891
C127  C     C_R   0.443593 0.906338 0.800032 -0.150243
C128  C     C_R   0.586272 0.068780 0.300968 -0.148920
C129  C     C_R   0.928569 0.587856 0.301521 -0.148892
C130  C     C_R   0.417787 0.922431 0.300229 -0.148891
C131  C     C_R   0.075172 0.419700 0.299765 -0.148921
C132  C     C_R   0.045032 0.524488 0.812994 -0.022095
C133  C     C_R   0.529254 0.050143 0.813874 -0.022672
C134  C     C_R   0.958498 0.453930 0.812748 -0.023459
C135  C     C_R   0.619013 0.497706 0.999900 0.926773
C136  C     C_R   0.471763 0.954024 0.813091 -0.022258
C137  C     C_R   0.544246 0.032404 0.313482 -0.021186
C138  C     C_R   0.964760 0.545469 0.313780 -0.021314
C139  C     C_R   0.459895 0.958704 0.313113 -0.021175
C140  C     C_R   0.038587 0.461282 0.312898 -0.021017
C141  C     C_R   0.004601 0.485612 0.800165 -0.064591
C142  C     C_R   0.500332 0.002392 0.800786 -0.065960
C143  C     C_R   0.501982 0.995655 0.300608 -0.065872
C144  C     C_R   0.001813 0.503733 0.300651 -0.065869
C145  C     C_R   0.041564 0.527529 0.838168 0.519682
C146  C     C_R   0.002305 0.119013 0.500301 0.926703
C147  C     C_R   0.528496 0.048968 0.839028 0.520237
C148  C     C_R   0.955915 0.458936 0.837922 0.518109
C149  C     C_R   0.473058 0.954068 0.838246 0.519049
C150  C     C_R   0.543957 0.031139 0.338641 0.519980
C151  C     C_R   0.965721 0.544447 0.338942 0.520271
C152  C     C_R   0.460146 0.960022 0.338294 0.520214
C153  C     C_R   0.036960 0.460791 0.338063 0.519935
C154  C     C_R   0.531998 0.044040 0.237688 -0.113327
C155  C     C_R   0.954910 0.536073 0.237717 -0.112990
C156  C     C_R   0.470072 0.949509 0.237008 -0.113151
C157  C     C_R   0.880987 0.002292 0.500181 0.925958
C158  C     C_R   0.049532 0.474359 0.237066 -0.113481
C159  C     C_R   0.062019 0.504402 0.737000 -0.109127
C160  C     C_R   0.539585 0.043595 0.737724 -0.113395
C161  C     C_R   0.975379 0.431316 0.736802 -0.107903
C162  C     C_R   0.459111 0.964276 0.737228 -0.113760
C163  C     C_R   0.500761 0.997082 0.224670 -0.053678
C164  C     C_R   0.002188 0.505336 0.224712 -0.053684
C165  C     C_R   0.018877 0.467360 0.724279 -0.051643
C166  C     C_R   0.499201 0.004162 0.724764 -0.053350
C167  C     C_R   0.450313 0.897061 0.223860 0.525808
C168  C     C_R   0.997694 0.880987 0.499779 0.926095
C169  C     C_R   0.102362 0.455263 0.224141 0.525577
C170  C     C_R   0.551179 0.097128 0.225448 0.525376
C171  C     C_R   0.902147 0.555682 0.225251 0.525601
C172  C     C_R   0.943429 0.384951 0.723701 0.522065
C173  C     C_R   0.413514 0.931949 0.724224 0.530192
C174  C     C_R   0.112444 0.528574 0.723991 0.523165
C175  C     C_R   0.584753 0.076549 0.725022 0.529334
C176  C     C_R   0.499484 0.999138 0.123772 0.268771
C177  C     C_R   0.000873 0.503753 0.123790 0.268811
C178  C     C_R   0.005049 0.484585 0.623734 0.258128
C179  C     C_R   0.119013 0.997707 0.499899 0.927446
C180  C     C_R   0.499497 0.003620 0.623783 0.261275
C181  C     C_R   0.454794 0.894251 0.198739 0.361956
C182  C     C_R   0.105661 0.460433 0.199110 0.362860
C183  C     C_R   0.545581 0.101173 0.200450 0.362632
C184  C     C_R   0.898610 0.550762 0.200150 0.361772
C185  C     C_R   0.944302 0.382711 0.698470 0.362205
C186  C     C_R   0.413213 0.930572 0.699127 0.361992
C187  C     C_R   0.112883 0.528385 0.698813 0.370582
C188  C     C_R   0.584601 0.078581 0.699946 0.362325
C189  C     C_R   0.474478 0.947337 0.186195 -0.206865
C190  C     C_R   0.055623 0.512516 0.762318 0.091409
C191  C     C_R   0.052719 0.480053 0.186365 -0.207029
C192  C     C_R   0.525433 0.048698 0.187010 -0.206937
C193  C     C_R   0.951284 0.530785 0.186903 -0.206770
C194  C     C_R   0.977085 0.428830 0.685871 -0.204035
C195  C     C_R   0.454575 0.969133 0.686411 -0.207620
C196  C     C_R   0.061708 0.503427 0.686259 -0.203596
C197  C     C_R   0.543195 0.040182 0.686787 -0.206884
C198  C     C_R   0.500218 0.997705 0.199281 -0.146880
C199  C     C_R   0.002075 0.505436 0.199316 -0.146887
C200  C     C_R   0.019275 0.466391 0.698801 -0.151555
F1    F     F_    0.432533 0.845733 0.235548 -0.607383
F2    F     F_    0.153515 0.437412 0.236050 -0.607468
F3    F     F_    0.569483 0.147873 0.238013 -0.608016
F4    F     F_    0.851174 0.573684 0.237601 -0.607941
F5    F     F_    0.916100 0.337959 0.735352 -0.607381
F6    F     F_    0.365117 0.906335 0.735865 -0.606782
F7    F     F_    0.164142 0.547272 0.735534 -0.609669
F8    F     F_    0.633291 0.102047 0.736816 -0.607196
H1    H     H_    0.806265 0.418830 0.021962 0.171911
H2    H     H_    0.401348 0.010700 0.923348 0.169040
H3    H     H_    0.017051 0.400342 0.923053 0.168151
H4    H     H_    0.599334 0.989734 0.923142 0.167456
H5    H     H_    0.478287 0.095311 0.423296 0.167651
H6    H     H_    0.903416 0.478209 0.423020 0.168154
H7    H     H_    0.522403 0.901289 0.423210 0.168277
H8    H     H_    0.097424 0.522580 0.423503 0.167881
H9    H     H_    0.595924 0.976568 0.120625 0.156603
H10   H     H_    0.023316 0.600094 0.120831 0.157097
H11   H     H_    0.403065 0.021788 0.121127 0.156355
H12   H     H_    0.582467 0.805520 0.978415 0.169815
H13   H     H_    0.978305 0.407176 0.120956 0.155824
H14   H     H_    0.098503 0.453683 0.618142 0.170086
H15   H     H_    0.507061 0.904716 0.620813 0.162176
H16   H     H_    0.910944 0.516818 0.623197 0.159466
H17   H     H_    0.492007 0.102292 0.620913 0.164124
H18   H     H_    0.596723 0.977567 0.076586 0.169501
H19   H     H_    0.022215 0.598827 0.076767 0.169379
H20   H     H_    0.402709 0.021924 0.077056 0.167458
H21   H     H_    0.978062 0.404755 0.076892 0.167596
H22   H     H_    0.095669 0.463412 0.574554 0.171469
H23   H     H_    0.193740 0.581221 0.978150 0.172823
H24   H     H_    0.507177 0.902459 0.576811 0.171026
H25   H     H_    0.906844 0.524984 0.579148 0.164444
H26   H     H_    0.492669 0.101012 0.576888 0.172299
H27   H     H_    0.792787 0.545086 0.998215 0.161052
H28   H     H_    0.454868 0.792761 0.002076 0.162917
H29   H     H_    0.207212 0.454903 0.001849 0.162185
H30   H     H_    0.545127 0.207239 0.997996 0.162668
H31   H     H_    0.292788 0.045091 0.498221 0.161110
H32   H     H_    0.954867 0.292762 0.502077 0.163557
H33   H     H_    0.707212 0.954903 0.501850 0.160614
H34   H     H_    0.417563 0.194479 0.021684 0.171781
H35   H     H_    0.045131 0.707238 0.497998 0.161855
H36   H     H_    0.693099 0.443109 0.031507 0.177920
H37   H     H_    0.558563 0.692123 0.968861 0.171818
H38   H     H_    0.306903 0.556959 0.968594 0.174826
H39   H     H_    0.441481 0.307877 0.031233 0.176799
H40   H     H_    0.193098 0.943091 0.531501 0.178953
H41   H     H_    0.058571 0.192125 0.468865 0.172620
H42   H     H_    0.806903 0.056947 0.468590 0.173850
H43   H     H_    0.941455 0.807877 0.531224 0.173801
H44   H     H_    0.707213 0.504845 0.982374 0.161385
H45   H     H_    0.306262 0.918814 0.521952 0.175148
H46   H     H_    0.494624 0.707642 0.018078 0.167201
H47   H     H_    0.292788 0.495106 0.017704 0.166107
H48   H     H_    0.505345 0.292357 0.982001 0.163469
H49   H     H_    0.207213 0.004862 0.482375 0.161749
H50   H     H_    0.994614 0.207640 0.518078 0.167450
H51   H     H_    0.792787 0.995113 0.517704 0.164999
H52   H     H_    0.005368 0.792360 0.482002 0.162676
H53   H     H_    0.119725 0.589776 0.767145 0.225339
H54   H     H_    0.578256 0.137895 0.768241 0.222715
H55   H     H_    0.880627 0.391443 0.766375 0.223715
H56   H     H_    0.082473 0.305519 0.478422 0.172312
H57   H     H_    0.421339 0.868574 0.766041 0.222102
H58   H     H_    0.619394 0.098084 0.267332 0.215329
H59   H     H_    0.900023 0.622236 0.268099 0.215685
H60   H     H_    0.383925 0.893965 0.266316 0.215705
H61   H     H_    0.104500 0.387226 0.265647 0.215342
H62   H     H_    0.116184 0.593464 0.809740 0.203455
H63   H     H_    0.577511 0.137006 0.811223 0.203345
H64   H     H_    0.877044 0.397392 0.809019 0.203899
H65   H     H_    0.423409 0.867320 0.809011 0.203311
H66   H     H_    0.620833 0.095699 0.310391 0.201497
H67   H     H_    0.693740 0.081212 0.478143 0.172663
H68   H     H_    0.901423 0.622035 0.311177 0.201695
H69   H     H_    0.383414 0.895290 0.309398 0.201814
H70   H     H_    0.102192 0.385065 0.308700 0.201616
H71   H     H_    0.978287 0.593049 0.878973 0.153302
H72   H     H_    0.402207 0.011619 0.879343 0.151806
H73   H     H_    0.016289 0.398588 0.879039 0.154374
H74   H     H_    0.599154 0.990080 0.879116 0.151195
H75   H     H_    0.478603 0.093130 0.379275 0.154281
H76   H     H_    0.904406 0.478699 0.378988 0.154986
H77   H     H_    0.523805 0.900188 0.379168 0.155442
H78   H     H_    0.917545 0.694482 0.521670 0.170214
H79   H     H_    0.097332 0.524166 0.379500 0.154878
H80   H     H_    0.438445 0.725515 0.193772 0.387020
H81   H     H_    0.274561 0.446079 0.195365 0.386858
H82   H     H_    0.561043 0.270114 0.198816 0.386933
H83   H     H_    0.729798 0.567490 0.197300 0.387068
H84   H     H_    0.877036 0.227041 0.692680 0.390007
H85   H     H_    0.313431 0.793868 0.695104 0.393521
H86   H     H_    0.277859 0.564371 0.692158 0.384875
H87   H     H_    0.684479 0.215214 0.697751 0.393963
H88   H     H_    0.980124 0.595801 0.923034 0.166583
N1    N     N_R   0.997975 0.494300 0.850140 -0.356581
N2    N     N_R   0.500845 0.001279 0.850635 -0.358260
N3    N     N_R   0.501927 0.995735 0.350504 -0.357128
N4    N     N_R   0.001168 0.502244 0.350535 -0.357119
N5    N     N_R   0.499437 0.998824 0.149503 -0.371151
N6    N     N_R   0.001511 0.504722 0.149524 -0.371152
N7    N     N_R   0.008363 0.479227 0.649438 -0.368607
N8    N     N_R   0.499027 0.004529 0.649528 -0.370250
O1    O     O_R   0.499960 0.590510 0.020150 -0.611930
O2    O     O_R   0.409490 0.499990 0.979930 -0.613524
O3    O     O_R   0.500010 0.409490 0.979930 -0.617856
O4    O     O_R   0.590510 0.500010 0.979930 -0.623163
O5    O     O_R   0.999990 0.090510 0.479930 -0.618356
O6    O     O_R   0.909490 0.999990 0.479930 -0.613699
O7    O     O_R   0.000010 0.909490 0.479930 -0.618205
O8    O     O_R   0.090510 0.000010 0.479930 -0.623228
O9    O     O_R   0.999980 0.448970 0.964420 -0.621607
O10   O     O_R   0.551030 0.999980 0.964420 -0.626784
O11   O     O_R   0.000020 0.551030 0.964420 -0.625272
O12   O     O_R   0.409490 0.499960 0.020150 -0.617128
O13   O     O_R   0.448970 0.000020 0.964420 -0.622561
O14   O     O_R   0.499980 0.948970 0.464420 -0.621719
O15   O     O_R   0.051030 0.499980 0.464420 -0.625971
O16   O     O_R   0.500020 0.051030 0.464420 -0.625656
O17   O     O_R   0.948970 0.500020 0.464420 -0.621317
O18   O     O_R   0.909490 0.448990 0.000040 -0.614052
O19   O     O_R   0.551010 0.909490 0.000040 -0.615603
O20   O     O_R   0.090510 0.551010 0.000040 -0.613500
O21   O     O_R   0.448990 0.090510 0.000040 -0.616073
O22   O     O_R   0.409490 0.948990 0.500040 -0.611930
O23   O     O_R   0.500040 0.409490 0.020150 -0.612881
O24   O     O_R   0.051010 0.409490 0.500040 -0.614775
O25   O     O_R   0.590510 0.051010 0.500040 -0.611004
O26   O     O_R   0.948990 0.590510 0.500040 -0.614280
O27   O     O_R   0.909510 0.551130 0.000040 -0.618714
O28   O     O_R   0.448870 0.909510 0.000040 -0.616741
O29   O     O_R   0.090490 0.448870 0.000040 -0.618616
O30   O     O_R   0.551130 0.090490 0.000040 -0.616414
O31   O     O_R   0.409510 0.051130 0.500040 -0.620323
O32   O     O_R   0.948870 0.409510 0.500040 -0.617851
O33   O     O_R   0.590490 0.948870 0.500040 -0.621174
O34   O     O_R   0.590510 0.500040 0.020150 -0.608026
O35   O     O_R   0.051130 0.590490 0.500040 -0.617462
O36   O     O_R   0.999930 0.448970 0.035660 -0.623847
O37   O     O_R   0.551030 0.999930 0.035660 -0.620022
O38   O     O_R   0.000070 0.551030 0.035660 -0.620256
O39   O     O_R   0.448970 0.000070 0.035660 -0.624008
O40   O     O_R   0.499930 0.948970 0.535660 -0.624925
O41   O     O_R   0.051030 0.499930 0.535660 -0.619077
O42   O     O_R   0.500070 0.051030 0.535660 -0.620631
O43   O     O_R   0.948970 0.500070 0.535660 -0.621020
O44   O     O_2   0.082086 0.562635 0.850594 -0.550608
O45   O     O_R   0.999960 0.090510 0.520150 -0.611959
O46   O     O_2   0.554770 0.095237 0.851813 -0.548010
O47   O     O_2   0.911672 0.428823 0.850093 -0.548603
O48   O     O_2   0.447054 0.907235 0.850257 -0.548796
O49   O     O_2   0.585465 0.064799 0.351172 -0.551064
O50   O     O_2   0.931845 0.585513 0.351742 -0.550063
O51   O     O_2   0.418659 0.926346 0.350497 -0.550360
O52   O     O_2   0.070536 0.419001 0.349990 -0.551372
O53   O     O_2   0.563383 0.085045 0.149312 -0.463499
O54   O     O_2   0.915438 0.568762 0.149231 -0.462858
O55   O     O_2   0.435323 0.912757 0.148059 -0.463350
O56   O     O_R   0.909490 0.999960 0.520150 -0.617835
O57   O     O_2   0.087912 0.441081 0.148180 -0.464029
O58   O     O_2   0.082259 0.557308 0.649977 -0.462921
O59   O     O_2   0.594526 0.053160 0.648956 -0.458005
O60   O     O_2   0.927235 0.408956 0.648074 -0.464949
O61   O     O_2   0.403227 0.956523 0.648538 -0.456822
O62   O     O_2   0.378298 0.820655 0.173679 -0.225519
O63   O     O_2   0.488552 0.811559 0.164455 -0.250931
O64   O     O_3   0.448198 0.762938 0.203429 -0.440724
O65   O     O_2   0.180479 0.384865 0.173996 -0.226333
O66   O     O_2   0.188519 0.495245 0.165743 -0.250993
O67   O     O_R   0.000040 0.909490 0.520150 -0.613903
O68   O     O_3   0.236854 0.455384 0.204791 -0.441476
O69   O     O_2   0.620948 0.176288 0.176331 -0.225637
O70   O     O_2   0.510374 0.185300 0.168118 -0.251443
O71   O     O_3   0.551754 0.232190 0.207768 -0.441777
O72   O     O_2   0.824508 0.626740 0.176067 -0.225010
O73   O     O_2   0.814751 0.516244 0.166889 -0.251379
O74   O     O_3   0.767463 0.557921 0.206489 -0.440991
O75   O     O_2   0.847830 0.336967 0.674039 -0.230310
O76   O     O_2   0.949715 0.295892 0.663312 -0.242923
O77   O     O_3   0.898722 0.258835 0.702403 -0.435013
O78   O     O_R   0.090510 0.000040 0.520150 -0.608585
O79   O     O_2   0.308787 0.906588 0.675026 -0.205157
O80   O     O_2   0.398680 0.842643 0.664804 -0.266519
O81   O     O_3   0.341154 0.821326 0.704454 -0.459721
O82   O     O_2   0.192813 0.512509 0.661984 -0.267992
O83   O     O_2   0.173773 0.618237 0.676358 -0.221932
O84   O     O_3   0.243339 0.547903 0.701782 -0.443043
O85   O     O_2   0.688859 0.103273 0.675897 -0.208917
O86   O     O_2   0.598689 0.166962 0.666882 -0.260736
O87   O     O_3   0.656193 0.188041 0.706685 -0.459067
O88   O     O_R   0.499990 0.590510 0.979930 -0.618085
S1    S     S_3+6 0.441944 0.821469 0.184176 0.135077
S2    S     S_3+6 0.178783 0.448478 0.185004 0.134677
S3    S     S_3+6 0.557648 0.174666 0.187278 0.134643
S4    S     S_3+6 0.825426 0.563409 0.186515 0.134983
S5    S     S_3+6 0.909357 0.317960 0.683696 0.137878
S6    S     S_3+6 0.364466 0.874841 0.684898 0.132121
S7    S     S_3+6 0.181402 0.552552 0.683844 0.131562
S8    S     S_3+6 0.633067 0.134676 0.686398 0.133664
Zn1   Zn    Zn3+2 0.500000 0.500000 0.026890 1.011152
Zn2   Zn    Zn3+2 0.068160 0.499950 0.500040 0.983040
Zn3   Zn    Zn3+2 0.500050 0.068160 0.500040 0.982474
Zn4   Zn    Zn3+2 0.931840 0.500050 0.500040 0.982915
Zn5   Zn    Zn3+2 0.000000 1.000000 0.526890 1.007300
Zn6   Zn    Zn3+2 0.500000 0.500000 0.973180 0.986285
Zn7   Zn    Zn3+2 0.000000 0.000000 0.473180 0.983933
Zn8   Zn    Zn3+2 0.999950 0.431840 0.000040 0.980687
Zn9   Zn    Zn3+2 0.568160 0.999950 0.000040 0.980366
Zn10  Zn    Zn3+2 0.000050 0.568160 0.000040 0.980752
Zn11  Zn    Zn3+2 0.431840 0.000050 0.000040 0.980301
Zn12  Zn    Zn3+2 0.499950 0.931840 0.500040 0.981025

loop_
_geom_bond_atom_site_label_1
_geom_bond_atom_site_label_2
_ccdc_geom_bond_type
C13   C79   A    
C68   C122  A    
C64   C77   D    
C50   H20   S    
C35   C154  A    
C53   C69   A    
C95   C168  S    
C46   C155  A    
C125  H63   S    
C126  H64   S    
C11   C195  A    
C145  N1    A    
C63   C76   D    
C184  C193  A    
C19   H77   S    
C29   C33   A    
C139  C152  A    
C86   H43   S    
C135  O34   A    
C154  C170  A    
C2    C90   A    
C30   C96   S    
C131  C140  A    
C115  H53   S    
C175  C188  A    
C161  C172  A    
C2    C116  A    
C44   C53   A    
C163  C198  A    
C8    O58   S    
C192  C198  A    
C48   C65   A    
C42   H13   S    
C117  C126  A    
C186  S6    S    
C119  C128  A    
O84   S7    S    
C120  H59   S    
C63   C85   S    
C75   H32   S    
C21   H88   S    
C68   C158  A    
O43   Zn4   S    
O11   Zn10  S    
O68   S2    S    
O41   Zn2   S    
C115  C123  A    
C140  C144  A    
C28   C32   A    
C43   H14   S    
C127  C136  A    
C157  O6    A    
C193  C199  A    
O66   S2    D    
C3    C195  A    
C82   C91   D    
C51   C66   A    
C107  O33   A    
C6    N5    A    
C11   O61   S    
O45   Zn5   S    
C48   H18   S    
C186  C195  A    
C147  N2    A    
C14   H72   S    
C97   O13   A    
C44   H15   S    
C188  S8    S    
C99   O15   A    
C96   O11   A    
C182  S2    S    
C123  H62   S    
C63   H67   S    
O87   S8    S    
C41   C176  A    
C94   C157  S    
O16   Zn3   S    
C61   C74   D    
O39   Zn11  S    
C62   C75   D    
O12   Zn1   S    
O70   S3    D    
H82   O71   S    
C61   H45   S    
C84   H41   S    
C45   H16   S    
O62   S1    D    
C157  O56   A    
C24   C90   A    
O88   Zn6   S    
C7    O57   S    
C72   C103  S    
C138  C151  A    
C180  N8    S    
C153  O52   S    
C113  C144  A    
O19   Zn9   S    
C168  O7    A    
O71   S3    S    
C76   H33   S    
C18   C38   A    
C56   H1    S    
C80   C88   D    
C134  C141  A    
O34   Zn1   S    
C22   H2    S    
C32   C98   S    
C70   H27   S    
C65   C110  S    
C86   C95   D    
C183  S3    S    
C126  C134  A    
C106  O24   A    
C72   H29   S    
C129  H68   S    
C108  O26   A    
C161  C165  A    
C149  N2    A    
C78   C87   D    
C37   N3    S    
C43   C178  A    
C26   C32   A    
C111  O42   A    
C123  C132  A    
H84   O77   S    
C121  C130  A    
C59   H23   S    
C4    O53   S    
C92   H49   S    
C6    O55   S    
C27   C33   A    
C133  C142  A    
O21   Zn11  S    
O33   Zn12  S    
C26   H5    S    
O22   Zn12  S    
C132  C145  A    
O73   S4    D    
C172  F5    S    
O20   Zn10  S    
C14   C36   A    
C43   C52   A    
C40   C49   A    
C109  O36   A    
O9    Zn8   S    
C56   C78   S    
C98   O16   A    
C171  F4    S    
C152  N3    A    
C5    O54   S    
C131  H70   S    
C122  H61   S    
C169  F2    S    
C139  C143  A    
C194  C200  A    
C27   H6    S    
C173  F6    S    
C133  C147  A    
C19   C37   A    
O15   Zn2   S    
C164  C199  A    
C84   C93   D    
C167  F1    S    
C159  C190  A    
C127  H65   S    
C9    C197  A    
C135  O4    A    
C95   H52   S    
C169  C182  A    
C57   C156  A    
C103  O20   A    
C120  C129  A    
C108  O35   A    
C165  C200  A    
O81   S6    S    
C1    O1    A    
C159  C165  A    
C49   C66   A    
C33   C99   S    
O79   S6    D    
C117  H55   S    
C47   C180  A    
C19   C28   A    
C104  O30   A    
C174  C187  A    
C118  H57   S    
O2    Zn6   S    
C36   N2    S    
C185  S5    S    
C172  C185  A    
O75   S5    D    
C46   C120  A    
C93   C146  S    
O37   Zn9   S    
O8    Zn7   S    
O82   S7    D    
C55   C69   A    
C52   C67   A    
C45   C178  A    
O36   Zn8   S    
C140  C153  A    
C160  C166  A    
C116  C125  A    
C97   O10   A    
C160  C175  A    
C137  C150  A    
C118  C127  A    
C55   H26   S    
C122  C131  A    
C110  O37   A    
C132  C141  A    
C62   C84   S    
C46   C113  A    
C77   H35   S    
C81   H38   S    
C39   H9    S    
C77   C108  S    
O7    Zn7   S    
C1    O88   A    
C57   C101  A    
C59   C72   D    
C60   H34   S    
C150  N3    A    
C98   O14   A    
C14   C22   A    
C130  H69   S    
C73   H30   S    
C68   C113  A    
C138  C144  A    
C16   C36   A    
C74   C105  S    
O27   Zn10  S    
C11   N8    A    
C79   C141  A    
C28   H7    S    
C181  S1    S    
C6    C189  A    
C177  N6    S    
H85   O81   S    
C50   C65   A    
C53   H24   S    
C40   C177  A    
O32   Zn4   S    
C2    C160  A    
C179  O78   A    
O80   S6    D    
C25   C31   A    
C100  O18   A    
C187  C196  A    
C51   H21   S    
C4    C192  A    
C185  C194  A    
C183  C192  A    
C44   C180  A    
C136  C149  A    
C162  C173  A    
C38   N4    S    
C89   C112  S    
C67   C114  S    
C10   C194  A    
O78   Zn5   S    
C58   C71   D    
C64   H78   S    
C60   C73   D    
C151  O50   S    
C146  O45   A    
C136  C142  A    
C162  C166  A    
C181  C189  A    
C156  C163  A    
C159  C174  A    
C49   H19   S    
C104  O21   A    
C15   C34   A    
C58   C80   S    
C114  O43   A    
C81   C89   D    
C1    C88   S    
C148  N1    A    
C8    N7    A    
C7    C191  A    
O69   S3    D    
C175  F8    S    
C130  C139  A    
O13   Zn11  S    
C64   C86   S    
C41   H11   S    
C110  O39   A    
C168  O67   A    
C87   C135  S    
C171  C184  A    
C9    N8    A    
C61   C83   S    
C62   H56   S    
C10   N7    A    
C88   H46   S    
C146  O5    A    
C119  H58   S    
C78   H36   S    
C103  O29   A    
C178  N7    S    
C20   H79   S    
H86   O84   S    
C25   H4    S    
O18   Zn8   S    
O42   Zn3   S    
O10   Zn9   S    
C99   O17   A    
C10   O60   S    
C47   H17   S    
O67   Zn5   S    
C12   H71   S    
C128  H66   S    
C170  F3    S    
C90   C142  A    
O23   Zn1   S    
C105  O31   A    
C174  F7    S    
O76   S5    D    
C182  C191  A    
C12   C34   A    
C41   C50   A    
O83   S7    D    
O63   S1    D    
C5    C193  A    
H81   O68   S    
H83   O74   S    
C151  N4    A    
C59   C81   S    
C35   C101  A    
C13   C117  A    
O30   Zn9   S    
C21   C30   A    
O28   Zn11  S    
C102  O19   A    
O38   Zn10  S    
O74   S4    S    
C124  O23   A    
C52   H22   S    
C23   H3    S    
C188  C197  A    
C148  O47   S    
C8    C196  A    
C31   C97   S    
C66   C109  S    
C184  S4    S    
C114  O41   A    
O86   S8    D    
C93   H50   S    
C17   H75   S    
C18   H76   S    
C75   C106  S    
C102  O28   A    
C39   C48   A    
C189  C198  A    
C112  O12   A    
C121  H60   S    
C16   C25   A    
C149  O48   S    
C170  C183  A    
C69   C111  S    
C35   C119  A    
C196  C200  A    
C187  S7    S    
H87   O87   S    
C83   C92   D    
C34   N1    S    
C82   H39   S    
O25   Zn3   S    
C17   C26   A    
O40   Zn12  S    
O26   Zn4   S    
C92   C179  S    
C191  C199  A    
C91   H48   S    
C42   C177  A    
C111  O40   A    
C176  N5    S    
C74   H31   S    
C105  O22   A    
C115  C190  A    
C60   C82   S    
C73   C104  S    
C129  C138  A    
O3    Zn6   S    
O77   S5    S    
C79   C190  A    
C83   H40   S    
O72   S4    D    
C9    O59   S    
C152  O51   S    
C5    N6    A    
C158  C164  A    
C42   C51   A    
C15   C23   A    
C137  C143  A    
C85   H42   S    
C58   H12   S    
O29   Zn8   S    
C70   C100  S    
C20   C29   A    
C106  O32   A    
C87   H44   S    
C100  O27   A    
C173  C186  A    
C22   C31   A    
C23   C30   A    
C154  C163  A    
C179  O8    A    
C29   H8    S    
O31   Zn3   S    
C54   C67   A    
C156  C167  A    
C12   C21   A    
O56   Zn5   S    
C128  C137  A    
O35   Zn2   S    
C20   C38   A    
C85   C94   D    
C94   H51   S    
O1    Zn1   S    
C150  O49   S    
C17   C37   A    
C71   H28   S    
O17   Zn4   S    
C145  O44   S    
C153  N4    A    
C112  O2    A    
C45   C54   A    
C56   C70   D    
C91   C124  S    
C15   H73   S    
C47   C55   A    
C109  O38   A    
C125  C133  A    
O85   S8    D    
H80   O64   S    
C40   H10   S    
C80   H37   S    
O64   S1    S    
C71   C102  S    
C24   C162  A    
C18   C27   A    
C39   C176  A    
C158  C169  A    
C13   C161  A    
O6    Zn7   S    
C155  C164  A    
C76   C107  S    
C134  C148  A    
C24   C118  A    
C101  C143  A    
C167  C181  A    
C147  O46   S    
O24   Zn2   S    
C3    C197  A    
O14   Zn12  S    
C107  O25   A    
C4    N5    A    
C16   H74   S    
C116  H54   S    
C57   C121  A    
C7    N6    A    
C155  C171  A    
O4    Zn6   S    
C89   H47   S    
O5    Zn7   S    
O65   S2    D    
C124  O3    A    
C54   H25   S    
C96   O9    A    
C3    C166  A    
