data_mof_unit_67218.cif
_audit_creation_date              2013-03-05T16:01:24-0500
_audit_creation_method            fapswitch 2.2
_symmetry_space_group_name_H-M    P1
_symmetry_Int_Tables_number       1
_space_group_crystal_system       triclinic
_cell_length_a                    20.36931
_cell_length_b                    21.083885
_cell_length_c                    8.817878
_cell_angle_alpha                 90.267917
_cell_angle_beta                  92.714315
_cell_angle_gamma                 89.986628
_cell_volume                      3782.67278366

loop_
_atom_site_label
_atom_site_type_symbol
_atom_site_description
_atom_site_fract_x
_atom_site_fract_y
_atom_site_fract_z
_atom_type_partial_charge
P1    P     P_3+3 0.136530 0.426510 0.931350 0.523660
P2    P     P_3+3 0.136530 0.573490 0.431350 0.547677
P3    P     P_3+3 0.636530 0.926510 0.931350 0.541992
P4    P     P_3+3 0.636530 0.073490 0.431350 0.533282
O1    O     O_2   0.130070 0.404060 0.104920 -0.269404
O2    O     O_2   0.130070 0.595940 0.604920 -0.317795
O3    O     O_2   0.630070 0.904060 0.104920 -0.332546
O4    O     O_2   0.630070 0.095940 0.604920 -0.275704
O5    O     O_3   0.075780 0.466370 0.861070 -0.357343
O6    O     O_3   0.075780 0.533630 0.361070 -0.326066
O7    O     O_3   0.575780 0.966370 0.861070 -0.321186
O8    O     O_3   0.575780 0.033630 0.361070 -0.352364
O9    O     O_3   0.022320 0.344950 0.359800 -0.279280
O10   O     O_3   0.022320 0.655050 0.859800 -0.301858
O11   O     O_3   0.522320 0.844950 0.359800 -0.310115
O12   O     O_3   0.522320 0.155050 0.859800 -0.271399
O13   O     O_2   0.132661 0.296867 0.270574 -0.356080
O14   O     O_2   0.134652 0.699761 0.763773 -0.400975
O15   O     O_2   0.632084 0.796658 0.267680 -0.367667
O16   O     O_2   0.632599 0.204426 0.776995 -0.368993
O17   O     O_3   0.200221 0.478555 0.987433 -0.596947
O18   O     O_3   0.204643 0.527144 0.477188 -0.605374
O19   O     O_3   0.705750 0.973190 0.978160 -0.607328
O20   O     O_3   0.700810 0.021268 0.476836 -0.584035
O21   O     O_3   0.053536 0.209830 0.354671 -0.547751
O22   O     O_3   0.061487 0.786505 0.876270 -0.563315
O23   O     O_3   0.552792 0.709825 0.354488 -0.541727
O24   O     O_3   0.550915 0.290238 0.856271 -0.545772
C1    C     C_3   0.991281 0.123663 0.469990 -0.041708
C2    C     C_3   0.994795 0.865391 0.999222 -0.037934
C3    C     C_3   0.488330 0.625393 0.474675 -0.039704
C4    C     C_3   0.485995 0.376789 0.960970 0.016013
P5    P     P_3+3 0.863410 0.426100 0.379280 0.575612
P6    P     P_3+3 0.863410 0.573900 0.879280 0.551481
P7    P     P_3+3 0.363410 0.926100 0.379280 0.579848
P8    P     P_3+3 0.363410 0.073900 0.879280 0.572246
P9    P     P_3+3 0.910496 0.292916 0.921443 0.549625
P10   P     P_3+3 0.912854 0.709566 0.418938 0.579379
P11   P     P_3+3 0.411685 0.792603 0.920179 0.561265
P12   P     P_3+3 0.408735 0.203881 0.419295 0.597228
O25   O     O_2   0.869860 0.403670 0.205810 -0.361590
O26   O     O_2   0.869860 0.596330 0.705810 -0.341268
O27   O     O_2   0.369860 0.903670 0.205810 -0.371475
O28   O     O_2   0.369860 0.096330 0.705810 -0.325054
O29   O     O_3   0.977590 0.344880 0.951200 -0.307821
O30   O     O_3   0.977590 0.655120 0.451200 -0.275804
O31   O     O_3   0.477590 0.844880 0.951200 -0.312708
O32   O     O_3   0.477590 0.155120 0.451200 -0.286527
O33   O     O_2   0.864470 0.302527 0.053733 -0.358911
O34   O     O_2   0.862574 0.695959 0.540468 -0.360888
O35   O     O_2   0.362448 0.805763 0.043867 -0.366032
O36   O     O_2   0.355637 0.182424 0.526440 -0.364651
O37   O     O_3   0.790781 0.470682 0.363647 -0.530956
O38   O     O_3   0.787214 0.534226 0.857908 -0.583038
O39   O     O_3   0.294609 0.977229 0.382689 -0.545171
O40   O     O_3   0.290861 0.029710 0.879071 -0.596812
O41   O     O_3   0.934363 0.213146 0.944268 -0.588224
O42   O     O_3   0.934802 0.788596 0.460535 -0.555943
O43   O     O_3   0.437235 0.714188 0.956952 -0.570974
O44   O     O_3   0.426533 0.280824 0.482181 -0.561738
C5    C     C_3   0.002785 0.199893 0.948493 0.592124
C6    C     C_3   0.001187 0.808960 0.454863 0.564104
C7    C     C_3   0.506038 0.703179 0.952226 0.569956
C8    C     C_3   0.490017 0.305852 0.457577 0.601870
C9    C     C_3   0.007138 0.128131 0.982190 -0.057043
C10   C     C_3   0.994523 0.882294 0.465716 -0.088130
C11   C     C_3   0.515360 0.632671 0.993826 -0.010580
C12   C     C_3   0.479492 0.378128 0.476625 -0.147092
H1    H     H_    0.976021 0.117391 0.077407 0.121206
H2    H     H_    0.974020 0.895712 0.575286 0.208661
H3    H     H_    0.489769 0.623870 0.098431 0.119666
H4    H     H_    0.443423 0.387598 0.563936 0.150307
C13   C     C_3   0.791543 0.471151 0.811073 0.214222
C14   C     C_3   0.799431 0.529197 0.294447 0.263369
C15   C     C_3   0.292027 0.974068 0.792472 0.197300
C16   C     C_3   0.281940 0.013592 0.250402 0.283285
H5    H     H_    0.821980 0.467052 0.710757 0.112739
H6    H     H_    0.835007 0.525182 0.204162 0.098921
H7    H     H_    0.325027 0.977938 0.696424 0.136560
H8    H     H_    0.317788 0.004454 0.162558 0.113364
C17   C     C_3   0.721892 0.446666 0.766778 -0.080206
C18   C     C_3   0.734869 0.552684 0.214024 -0.123395
C19   C     C_3   0.222729 0.962386 0.724857 -0.018231
C20   C     C_3   0.211659 0.000341 0.182245 -0.060149
H9    H     H_    0.720022 0.393971 0.772448 0.083544
H10   H     H_    0.742409 0.562899 0.093547 0.119600
H11   H     H_    0.224383 0.922607 0.641773 0.116029
H12   H     H_    0.208134 0.015492 0.062323 0.151575
H13   H     H_    0.686524 0.465571 0.847552 0.242099
H14   H     H_    0.718975 0.598403 0.263677 0.146637
H15   H     H_    0.189438 0.948711 0.814804 0.197336
H16   H     H_    0.174795 0.029344 0.239555 0.222247
Ba1   Ba    Ba6+2 0.999980 0.452130 0.155200 1.778102
Ba2   Ba    Ba6+2 0.999980 0.547870 0.655200 1.780264
Ba3   Ba    Ba6+2 0.499980 0.952130 0.155200 1.791824
Ba4   Ba    Ba6+2 0.499980 0.047870 0.655200 1.804403
C21   C     C_3   0.226490 0.513405 0.871993 0.767529
C22   C     C_3   0.222419 0.489617 0.357590 0.830408
C23   C     C_3   0.721488 0.014936 0.864201 0.802912
C24   C     C_3   0.726778 0.993304 0.349628 0.768581
H17   H     H_    0.186284 0.540972 0.815559 0.092142
H18   H     H_    0.197761 0.503228 0.247978 0.045219
H19   H     H_    0.700089 0.000180 0.751342 0.045849
H20   H     H_    0.689082 0.987763 0.255759 0.072125
C25   C     C_3   0.259214 0.471238 0.756326 -0.826660
C26   C     C_3   0.296950 0.496286 0.340418 -0.816543
C27   C     C_3   0.797235 0.017873 0.853930 -0.678021
C28   C     C_3   0.784065 0.032374 0.294084 -0.826934
H21   H     H_    0.291679 0.435498 0.810523 0.274014
H22   H     H_    0.325192 0.484395 0.446976 0.237995
H23   H     H_    0.823127 0.995983 0.953312 0.254040
H24   H     H_    0.824925 0.034128 0.381317 0.289031
H25   H     H_    0.289486 0.500326 0.682562 0.276454
H26   H     H_    0.315476 0.466391 0.248954 0.278387
H27   H     H_    0.817149 0.066637 0.849611 0.243910
H28   H     H_    0.803489 0.010042 0.192479 0.237924
H29   H     H_    0.220612 0.447119 0.686844 0.218514
H30   H     H_    0.308002 0.545755 0.308265 0.275585
H31   H     H_    0.812152 0.992707 0.750240 0.271233
H32   H     H_    0.768205 0.081152 0.264665 0.246351
O45   O     O_3   0.924190 0.533610 0.949240 -0.302829
O46   O     O_3   0.924190 0.466390 0.449240 -0.298756
O47   O     O_3   0.424190 0.033610 0.949240 -0.285795
O48   O     O_3   0.424190 0.966390 0.449240 -0.277317
P13   P     P_3+3 0.089138 0.707325 0.898271 0.513559
P14   P     P_3+3 0.084217 0.287085 0.398682 0.578587
P15   P     P_3+3 0.582431 0.213928 0.901916 0.570759
P16   P     P_3+3 0.584281 0.787269 0.397029 0.552450
C29   C     C_3   0.993789 0.195182 0.423648 0.583499
C30   C     C_3   0.998703 0.796680 0.935095 0.584654
C31   C     C_3   0.492251 0.696357 0.421990 0.567804
C32   C     C_3   0.489860 0.304190 0.919831 0.611193
H33   H     H_    0.989616 0.222008 0.528540 0.055132
H34   H     H_    0.990204 0.764165 0.029711 0.040027
H35   H     H_    0.487459 0.724945 0.524204 0.056926
H36   H     H_    0.485022 0.277798 0.025478 0.021594
H37   H     H_    0.951746 0.119238 0.551504 0.140974
H38   H     H_    0.034025 0.872226 0.088013 0.193885
H39   H     H_    0.449919 0.624278 0.560124 0.133632
H40   H     H_    0.450420 0.380689 0.051859 0.121748
H41   H     H_    0.985130 0.101439 0.883185 0.157194
H42   H     H_    0.958173 0.898819 0.376938 0.089508
H43   H     H_    0.490998 0.602439 0.904075 0.147003
H44   H     H_    0.456507 0.397358 0.369302 0.119944
C33   C     C_R   0.254134 0.303798 0.988799 0.429447
C34   C     C_R   0.250430 0.696500 0.499612 0.409945
C35   C     C_R   0.749821 0.804082 0.991431 0.404478
C36   C     C_R   0.746801 0.201309 0.501001 0.419667
C37   C     C_R   0.161952 0.351202 0.819859 0.090806
C38   C     C_R   0.162464 0.646415 0.319945 0.157213
C39   C     C_R   0.659563 0.850924 0.818756 0.121309
C40   C     C_R   0.658763 0.150651 0.324543 0.081090
C41   C     C_R   0.129253 0.345890 0.677242 -0.195718
C42   C     C_R   0.134127 0.648013 0.172048 -0.208814
C43   C     C_R   0.630871 0.847773 0.671041 -0.214760
C44   C     C_R   0.626485 0.155892 0.181578 -0.161356
C45   C     C_R   0.136304 0.293880 0.579705 0.359868
C46   C     C_R   0.140983 0.699926 0.077082 0.298764
C47   C     C_R   0.636180 0.794231 0.577651 0.351130
C48   C     C_R   0.630883 0.209335 0.088256 0.342867
C49   C     C_R   0.182262 0.246706 0.620383 -0.144232
C50   C     C_R   0.184199 0.748929 0.122140 -0.130251
C51   C     C_R   0.679544 0.745395 0.622972 -0.152076
C52   C     C_R   0.672888 0.258964 0.135160 -0.163522
C53   C     C_R   0.218101 0.248604 0.761178 0.076346
C54   C     C_R   0.219103 0.748162 0.264073 0.087991
C55   C     C_R   0.713559 0.746540 0.766145 0.079995
C56   C     C_R   0.709669 0.256561 0.274452 0.054416
C57   C     C_R   0.210204 0.301718 0.860513 -0.170287
C58   C     C_R   0.209403 0.696602 0.365193 -0.166796
C59   C     C_R   0.704800 0.799561 0.865047 -0.147545
C60   C     C_R   0.703791 0.202304 0.370662 -0.180090
H45   H     H_    0.098593 0.384603 0.640833 0.193129
H46   H     H_    0.106556 0.607515 0.129454 0.150240
H47   H     H_    0.604565 0.888486 0.627044 0.164983
H48   H     H_    0.599762 0.115423 0.140338 0.188003
C61   C     C_R   0.797399 0.697460 0.944532 -0.051774
C62   C     C_R   0.793472 0.306804 0.451253 -0.041732
C63   C     C_R   0.301225 0.198217 0.939235 -0.073585
C64   C     C_R   0.299437 0.801478 0.445211 -0.060267
C65   C     C_R   0.787225 0.749847 0.043282 -0.038137
C66   C     C_R   0.782348 0.256223 0.551936 -0.046550
C67   C     C_R   0.291646 0.250055 0.038301 -0.025215
C68   C     C_R   0.288083 0.751095 0.547237 -0.055546
C69   C     C_R   0.847608 0.650351 0.986947 0.117796
C70   C     C_R   0.844248 0.353069 0.492674 0.157418
C71   C     C_R   0.349718 0.150259 0.983852 0.119521
C72   C     C_R   0.347490 0.850612 0.489219 0.111779
C73   C     C_R   0.883947 0.658012 0.126511 -0.015029
C74   C     C_R   0.878929 0.347091 0.634669 -0.026783
C75   C     C_R   0.384672 0.156553 0.124878 0.015119
C76   C     C_R   0.383317 0.844375 0.629666 -0.000698
C77   C     C_R   0.868215 0.705751 0.229189 0.060047
C78   C     C_R   0.862243 0.300734 0.738400 0.083105
C79   C     C_R   0.369438 0.204110 0.226357 0.095612
C80   C     C_R   0.367749 0.797064 0.732096 0.101449
C81   C     C_R   0.817598 0.749212 0.190673 -0.136961
C82   C     C_R   0.811573 0.257793 0.700366 -0.108758
C83   C     C_R   0.321258 0.248953 0.186474 -0.138290
C84   C     C_R   0.317199 0.753979 0.695628 -0.121707
C85   C     C_R   0.758823 0.696649 0.806299 0.006137
C86   C     C_R   0.755116 0.306619 0.312998 0.029352
C87   C     C_R   0.263230 0.198471 0.800234 0.035509
C88   C     C_R   0.264661 0.798024 0.302516 0.059457
H49   H     H_    0.189238 0.207637 0.542808 0.164914
H50   H     H_    0.190012 0.788279 0.045835 0.162841
H51   H     H_    0.685998 0.705724 0.546825 0.163158
H52   H     H_    0.677615 0.299388 0.061210 0.163934
H53   H     H_    0.763958 0.657651 0.727752 0.165641
H54   H     H_    0.760316 0.345121 0.233960 0.166548
H55   H     H_    0.267912 0.159697 0.721357 0.178804
H56   H     H_    0.272263 0.834357 0.219727 0.160873
N1    N     N_R   0.936846 0.213587 0.325085 0.202179
O49   O     O_R   0.896344 0.172404 0.262367 -0.386316
O50   O     O_R   0.920779 0.272916 0.318013 -0.388031
N2    N     N_R   0.946408 0.784883 0.818241 0.214061
O51   O     O_R   0.912800 0.830879 0.755057 -0.323547
O52   O     O_R   0.925513 0.727496 0.795545 -0.360987
N3    N     N_R   0.436086 0.714031 0.319887 0.195037
O53   O     O_R   0.423328 0.773611 0.300131 -0.383283
O54   O     O_R   0.391954 0.673262 0.270918 -0.372676
N4    N     N_R   0.434643 0.283851 0.816686 0.202331
O55   O     O_R   0.384315 0.320129 0.784658 -0.426704
O56   O     O_R   0.430020 0.224956 0.775649 -0.345633
N5    N     N_R   0.701446 0.465858 0.614208 0.295496
O57   O     O_R   0.687819 0.524908 0.586879 -0.272761
O58   O     O_R   0.689163 0.423138 0.509827 -0.294290
N6    N     N_R   0.681590 0.507515 0.222780 0.361365
O59   O     O_R   0.686369 0.450578 0.167416 -0.319991
O60   O     O_R   0.625890 0.527115 0.269873 -0.196101
N7    N     N_R   0.196885 0.018980 0.650904 0.314636
O61   O     O_R   0.184348 0.069382 0.729940 -0.276432
O62   O     O_R   0.178182 0.016347 0.508825 -0.284615
N8    N     N_R   0.192909 0.934009 0.192777 0.266243
O63   O     O_R   0.187706 0.908488 0.325308 -0.289068
O64   O     O_R   0.168013 0.904709 0.073600 -0.408280
N9    N     N_R   0.274846 0.557080 0.943982 0.254381
O65   O     O_R   0.337814 0.547617 0.935750 -0.385039
O66   O     O_R   0.254941 0.601930 0.032297 -0.460876
N10   N     N_R   0.202518 0.426235 0.397162 0.244018
O67   O     O_R   0.243491 0.387043 0.464873 -0.464160
O68   O     O_R   0.139947 0.416274 0.402160 -0.390373
N11   N     N_R   0.694579 0.075808 0.905677 0.232400
O69   O     O_R   0.729516 0.115658 0.988603 -0.492242
O70   O     O_R   0.631181 0.081040 0.899165 -0.371383
N12   N     N_R   0.750109 0.931020 0.397368 0.243711
O71   O     O_R   0.803048 0.925857 0.485184 -0.393925
O72   O     O_R   0.708098 0.884944 0.394534 -0.425699
N13   N     N_3   0.976049 0.081316 0.341440 -0.172367
H57   H     H_    0.019437 0.070691 0.288143 0.213539
H58   H     H_    0.958392 0.038525 0.383150 0.163123
N14   N     N_3   0.931552 0.875712 0.067121 -0.139736
H59   H     H_    0.932416 0.920325 0.119573 0.174075
H60   H     H_    0.926022 0.842274 0.152651 0.090841
N15   N     N_3   0.468555 0.581405 0.351983 -0.157956
H61   H     H_    0.510202 0.565450 0.298961 0.223659
H62   H     H_    0.447424 0.541399 0.399714 0.165737
N16   N     N_3   0.463403 0.416475 0.832249 -0.170993
H63   H     H_    0.489633 0.459133 0.831572 0.212228
H64   H     H_    0.414920 0.430544 0.846757 0.185818
N17   N     N_3   0.791606 0.788863 0.305341 -0.106088
H65   H     H_    0.828865 0.817827 0.351681 0.242919
H66   H     H_    0.773990 0.760176 0.390612 0.152422
N18   N     N_3   0.786238 0.217609 0.814422 -0.115685
H67   H     H_    0.823028 0.186892 0.855185 0.226145
H68   H     H_    0.770356 0.245740 0.903324 0.148004
N19   N     N_3   0.297767 0.290572 0.300192 -0.106317
H69   H     H_    0.335264 0.321708 0.335669 0.213996
H70   H     H_    0.281775 0.264320 0.391512 0.171236
N20   N     N_3   0.290621 0.716751 0.813431 -0.118501
H71   H     H_    0.326728 0.686556 0.859881 0.251276
H72   H     H_    0.273894 0.746913 0.897188 0.136100
N21   N     N_R   0.937806 0.616735 0.165288 0.250858
O73   O     O_R   0.995172 0.630441 0.120285 -0.378886
O74   O     O_R   0.933323 0.571675 0.263518 -0.370717
N22   N     N_R   0.932666 0.388159 0.673898 0.249928
O75   O     O_R   0.988183 0.378987 0.613610 -0.361680
O76   O     O_R   0.928685 0.431897 0.776509 -0.361819
N23   N     N_R   0.431759 0.110230 0.173650 0.248305
O77   O     O_R   0.490302 0.112641 0.124583 -0.375863
O78   O     O_R   0.418061 0.067914 0.273528 -0.360394
N24   N     N_R   0.434926 0.887785 0.671857 0.251074
O79   O     O_R   0.491760 0.881326 0.615551 -0.366799
O80   O     O_R   0.427683 0.931260 0.773817 -0.362481
N25   N     N_R   0.275362 0.363579 0.044597 0.223007
O81   O     O_R   0.335585 0.380815 0.027964 -0.472090
O82   O     O_R   0.246423 0.385843 0.158541 -0.383396
N26   N     N_R   0.271362 0.637201 0.560634 0.241553
O83   O     O_R   0.246313 0.617618 0.683382 -0.399972
O84   O     O_R   0.328858 0.615980 0.528194 -0.436707
N27   N     N_R   0.782376 0.863755 0.004683 0.235440
O85   O     O_R   0.810396 0.885006 0.885872 -0.368752
O86   O     O_R   0.794944 0.890888 0.134731 -0.430970
N28   N     N_R   0.773879 0.142354 0.548280 0.228037
O87   O     O_R   0.748454 0.114104 0.659858 -0.401916
O88   O     O_R   0.835242 0.131481 0.524909 -0.445845
N29   N     N_R   0.051938 0.102513 0.547658 0.293625
O89   O     O_R   0.108044 0.117128 0.492945 -0.285403
O90   O     O_R   0.049260 0.055319 0.641600 -0.249815
N30   N     N_R   0.005570 0.913121 0.882828 0.294538
O91   O     O_R   0.064637 0.921851 0.837861 -0.267802
O92   O     O_R   0.960030 0.954044 0.843644 -0.338657
N31   N     N_R   0.549281 0.602695 0.549367 0.303891
O93   O     O_R   0.605514 0.614272 0.491567 -0.265900
O94   O     O_R   0.546195 0.559279 0.653012 -0.296007
N32   N     N_R   0.547892 0.402302 0.025005 0.303320
O95   O     O_R   0.602285 0.393613 0.956595 -0.313754
O96   O     O_R   0.544594 0.449189 0.120268 -0.286959
N33   N     N_3   0.038794 0.235291 0.068386 -0.132888
H73   H     H_    0.074025 0.265139 0.023822 0.160738
H74   H     H_    0.007286 0.263813 0.127596 0.213629
N34   N     N_3   0.039561 0.785476 0.585974 -0.139708
H75   H     H_    0.037364 0.736184 0.586070 0.197979
H76   H     H_    0.089186 0.796406 0.575635 0.171168
N35   N     N_3   0.543413 0.741709 0.063850 -0.133667
H77   H     H_    0.575244 0.773007 0.012267 0.157767
H78   H     H_    0.512116 0.768380 0.127792 0.222421
N36   N     N_3   0.537767 0.282492 0.572313 -0.126831
H79   H     H_    0.538374 0.233286 0.572327 0.192981
H80   H     H_    0.585276 0.295636 0.544696 0.162315
N37   N     N_R   0.031650 0.212824 0.803818 0.165648
O97   O     O_R   0.084795 0.182512 0.772299 -0.399896
O98   O     O_R   0.023523 0.268809 0.746560 -0.480391
N38   N     N_R   0.034090 0.790464 0.316440 0.146405
O99   O     O_R   0.029681 0.732556 0.268919 -0.459805
O100  O     O_R   0.088134 0.819574 0.286909 -0.407751
N39   N     N_R   0.530695 0.714600 0.802030 0.165247
O101  O     O_R   0.581783 0.682910 0.763187 -0.412272
O102  O     O_R   0.522627 0.770347 0.743440 -0.484687
N40   N     N_R   0.515513 0.293233 0.307340 0.149012
O103  O     O_R   0.517914 0.235464 0.257485 -0.496671
O104  O     O_R   0.561670 0.330656 0.264632 -0.403109
N41   N     N_R   0.073954 0.105178 0.017177 0.267943
O105  O     O_R   0.092989 0.052700 0.955179 -0.267763
O106  O     O_R   0.110083 0.129842 0.127838 -0.389569
N42   N     N_R   0.055632 0.916683 0.451314 0.303161
O107  O     O_R   0.102629 0.911265 0.554839 -0.294779
O108  O     O_R   0.061091 0.957190 0.341914 -0.338285
N43   N     N_R   0.584482 0.614483 0.016705 0.277571
O109  O     O_R   0.607662 0.566937 0.941489 -0.274893
O110  O     O_R   0.622758 0.644024 0.115774 -0.380026
N44   N     N_R   0.539593 0.412791 0.517010 0.286005
O111  O     O_R   0.554978 0.460901 0.435577 -0.226613
O112  O     O_R   0.569970 0.404797 0.648347 -0.327390
N45   N     N_3   0.818151 0.434130 0.937649 -0.133507
H81   H     H_    0.812481 0.386498 0.910384 0.072088
H82   H     H_    0.788021 0.442055 0.028152 0.159133
N46   N     N_3   0.821226 0.574148 0.411936 -0.126331
H83   H     H_    0.814047 0.619422 0.369640 0.043557
H84   H     H_    0.789403 0.570912 0.500767 0.187876
N47   N     N_3   0.310989 0.921126 0.891583 -0.147379
H85   H     H_    0.292935 0.879055 0.843124 0.034432
H86   H     H_    0.286576 0.925353 0.992084 0.148816
N48   N     N_3   0.286463 0.080762 0.292373 -0.188084
H87   H     H_    0.265155 0.108266 0.204748 0.058832
H88   H     H_    0.259634 0.089431 0.388442 0.190172

loop_
_geom_bond_atom_site_label_1
_geom_bond_atom_site_label_2
_geom_bond_distance
_ccdc_geom_bond_type
Ba3   O48   3.093210 S    
C23   H19   1.110509 S    
N15   H62   1.046183 S    
C2    H38   1.100936 S    
C45   C49   1.401909 A    
C28   H32   1.106236 S    
N27   O85   1.298165 A    
P6    O26   1.614473 D    
C11   H43   1.112253 S    
N31   O94   1.300177 A    
C35   N27   1.424072 S    
N41   O105  1.299097 A    
C84   N20   1.431541 S    
N24   O79   1.288012 A    
P7    O48   1.599430 S    
Ba1   O45   2.897452 S    
C42   C46   1.392271 A    
O14   P13   1.547182 D    
C14   N46   1.454678 S    
C41   H45   1.068897 S    
C24   H20   1.107839 S    
C37   C41   1.398948 A    
C1    N29   1.454965 S    
P4    Ba4   3.529163 S    
C40   C44   1.398751 A    
N38   O99   1.290754 A    
O2    Ba2   2.891739 S    
P2    O18   1.730052 S    
C30   N2    1.466988 S    
C39   C43   1.403452 A    
P4    O8    1.595167 S    
C10   N42   1.451726 S    
O22   C30   1.418521 S    
C21   C25   1.526629 S    
C35   C65   1.438253 A    
C26   H30   1.108071 S    
C49   H49   1.081914 S    
C30   H34   1.102318 S    
N8    O64   1.298759 A    
C13   C17   1.542048 S    
N6    O59   1.299163 A    
N12   O72   1.294133 A    
N1    O50   1.293952 A    
C53   C57   1.432211 A    
O12   Ba4   2.907430 S    
N40   O103  1.294661 A    
C20   H12   1.105158 S    
C52   C56   1.409230 A    
C6    C10   1.554964 S    
N44   O111  1.292656 A    
C55   C59   1.430945 A    
C22   H18   1.106963 S    
C18   N6    1.449075 S    
C70   C74   1.414324 A    
O21   P14   1.779289 S    
C12   N44   1.454769 S    
O23   P16   1.786096 S    
N31   O93   1.299189 A    
C44   C48   1.403750 A    
C12   H4    1.106556 S    
C88   H56   1.076908 S    
N32   O95   1.298915 A    
C62   C66   1.415929 A    
C29   H33   1.088639 S    
Ba2   O46   2.887795 S    
N7    O61   1.299986 A    
P6    O38   1.765082 S    
N20   H72   1.041779 S    
P8    O28   1.614473 D    
P9    O29   1.760969 S    
C48   C52   1.400310 A    
P1    O1    1.615464 D    
C23   C27   1.551099 S    
N30   O91   1.297944 A    
P11   O31   1.747833 S    
P12   O32   1.751512 S    
C73   N21   1.429940 S    
O32   Ba4   2.918382 S    
O20   C24   1.391211 S    
P6    Ba2   3.528992 S    
N42   O107  1.296510 A    
O41   C5    1.420168 S    
C19   H15   1.106885 S    
O43   C7    1.423012 S    
C22   C26   1.539341 S    
P10   C77   1.867474 S    
O44   C8    1.423257 S    
C4    N16   1.469508 S    
N25   O82   1.276284 A    
C3    N31   1.459266 S    
C2    N30   1.464695 S    
C10   H2    1.106154 S    
N46   H83   1.034276 S    
C56   C86   1.433069 A    
C7    N35   1.459513 S    
N23   O78   1.296238 A    
P3    O7    1.597917 S    
C62   C70   1.454658 A    
C5    C9    1.545014 S    
C22   N10   1.445638 S    
P1    Ba1   3.526141 S    
N37   O97   1.297713 A    
C13   H5    1.107028 S    
P3    Ba3   3.526141 S    
C15   H7    1.109222 S    
C49   C53   1.410525 A    
C64   C68   1.421285 A    
N26   O84   1.297666 A    
N14   H59   1.046009 S    
P13   C46   1.862848 S    
P2    C38   1.916192 S    
P11   O35   1.540474 D    
O18   C22   1.377509 S    
C20   N8    1.454374 S    
N47   H85   1.042278 S    
O29   Ba1   2.905484 S    
C38   C58   1.467437 A    
N13   H57   1.044219 S    
C37   C57   1.467200 A    
C8    C12   1.548270 S    
C25   H25   1.105127 S    
N27   O86   1.293804 A    
N2    O52   1.294257 A    
N17   H65   1.041343 S    
C40   C60   1.467524 A    
C6    N34   1.453385 S    
C39   C59   1.468496 A    
N34   H75   1.040255 S    
N36   H80   1.046733 S    
C1    C29   1.565613 S    
N34   H76   1.045096 S    
N18   H67   1.042437 S    
C68   C84   1.411870 A    
O8    Ba3   2.887673 S    
P5    C70   1.890675 S    
P7    O27   1.610260 D    
O24   P15   1.773063 S    
C13   N45   1.448928 S    
O40   C15   1.397616 S    
P10   O42   1.757814 S    
N9    O65   1.303361 A    
C23   N11   1.447623 S    
N29   O90   1.300500 A    
C87   H55   1.077992 S    
C85   H53   1.080837 S    
N21   O73   1.285110 A    
C79   C83   1.396679 A    
N33   H74   1.036709 S    
P4    C40   1.947776 S    
C24   C28   1.529182 S    
C42   H46   1.078337 S    
C43   C47   1.401374 A    
P2    Ba2   3.529163 S    
C9    N41   1.463910 S    
O16   P15   1.549914 D    
C52   H52   1.082622 S    
N39   O102  1.293414 A    
C8    N40   1.468780 S    
O24   C32   1.418326 S    
C1    N13   1.461395 S    
C8    N36   1.457199 S    
O28   Ba4   2.893873 S    
C9    H41   1.112780 S    
O27   Ba3   2.895779 S    
O30   Ba2   2.918382 S    
C32   H36   1.095794 S    
C15   N47   1.461455 S    
N4    O56   1.293968 A    
C36   C66   1.425217 A    
C63   C87   1.418278 A    
C54   C58   1.428877 A    
P5    O46   1.599430 S    
C61   C85   1.418659 A    
C16   N48   1.463906 S    
P14   C45   1.879288 S    
Ba3   O47   2.897452 S    
C25   H21   1.098503 S    
N12   O71   1.302273 A    
Ba4   O47   3.095636 S    
C27   H23   1.104096 S    
C16   H8    1.105638 S    
N19   H69   1.043000 S    
C69   C73   1.414352 A    
C33   C67   1.425126 A    
N24   O80   1.294257 A    
C3    N15   1.463680 S    
C72   C76   1.414031 A    
C62   C86   1.416477 A    
N16   H63   1.046422 S    
C78   C82   1.400781 A    
C19   N7    1.449353 S    
C61   C65   1.424485 A    
N10   O67   1.301135 A    
N21   O74   1.294761 A    
C12   H44   1.113883 S    
C29   N1    1.469274 S    
O12   P15   1.769609 S    
C75   C79   1.385696 A    
P10   O30   1.761903 S    
C24   N12   1.453771 S    
C73   C77   1.397978 A    
N22   O75   1.286337 A    
N38   O100  1.298184 A    
N48   H87   1.045933 S    
C20   H16   1.107252 S    
P15   C48   1.879126 S    
C17   H9    1.113115 S    
P16   C47   1.874621 S    
P12   C79   1.845607 S    
O7    Ba4   2.897328 S    
O42   C6    1.422049 S    
N35   H78   1.035101 S    
C19   H11   1.112589 S    
O37   C14   1.393844 S    
C16   C20   1.551055 S    
N6    O60   1.293550 A    
N1    O49   1.301179 A    
C4    N32   1.458712 S    
N40   O104  1.298080 A    
C32   N4    1.475062 S    
C76   C80   1.395370 A    
C4    H40   1.108405 S    
P3    O3    1.615464 D    
O11   Ba3   2.920350 S    
N28   O87   1.282528 A    
P4    O20   1.743927 S    
N44   O112  1.298616 A    
O13   P14   1.549248 D    
C63   C71   1.455806 A    
N11   O69   1.300889 A    
O15   P16   1.547776 D    
C61   C69   1.462588 A    
C81   N17   1.429740 S    
C64   C72   1.463752 A    
C50   C54   1.409959 A    
O25   Ba1   2.895779 S    
C66   C82   1.412209 A    
N32   O96   1.298041 A    
N23   O77   1.288758 A    
P1    C37   1.946525 S    
N45   H82   1.042380 S    
C33   N25   1.411383 S    
C80   C84   1.398260 A    
C17   H13   1.109501 S    
C65   C81   1.412841 A    
N35   H77   1.045785 S    
C50   H50   1.080681 S    
C25   H29   1.097210 S    
C14   C18   1.546689 S    
C27   H31   1.109754 S    
N30   O92   1.302455 A    
N41   O106  1.300615 A    
C33   C57   1.409240 A    
C5    N37   1.456662 S    
P8    O47   1.602185 S    
P1    O5    1.597917 S    
Ba1   O46   3.093210 S    
N42   O108  1.300099 A    
N3    O53   1.293630 A    
O6    Ba1   2.887673 S    
C2    C30   1.556084 S    
C1    H37   1.108756 S    
C28   H24   1.106746 S    
O9    Ba1   2.920350 S    
O22   P13   1.770333 S    
P6    C69   1.901976 S    
C11   N43   1.464134 S    
N25   O81   1.294643 A    
P8    O40   1.747067 S    
O38   C13   1.394668 S    
P9    O33   1.543390 D    
N43   O109  1.300365 A    
P11   O43   1.760116 S    
N46   H84   1.042603 S    
N7    O62   1.293047 A    
C75   N23   1.422393 S    
O9    P14   1.777044 S    
O11   P16   1.772986 S    
N8    O63   1.297736 A    
C76   N24   1.428787 S    
N14   H60   1.044788 S    
C43   H47   1.075959 S    
C44   H48   1.065424 S    
O26   Ba2   2.893873 S    
C64   C88   1.416005 A    
P5    Ba1   3.532066 S    
N47   H86   1.039983 S    
C10   H42   1.109049 S    
P7    Ba3   3.532066 S    
C36   N28   1.416282 S    
P11   C80   1.849654 S    
C18   H14   1.111313 S    
P8    C71   1.878891 S    
P5    O25   1.610260 D    
P9    C78   1.857559 S    
C28   H28   1.100222 S    
C53   C87   1.433135 A    
N39   O101  1.295350 A    
C18   H10   1.102797 S    
C82   N18   1.432814 S    
N19   H70   1.044031 S    
C15   C19   1.525692 S    
C9    H1    1.100100 S    
C51   H51   1.082026 S    
C2    N14   1.461850 S    
C11   H3    1.097330 S    
C55   C85   1.433193 A    
C41   C45   1.402022 A    
C34   N26   1.420821 S    
Ba2   O45   3.095636 S    
C56   C60   1.435766 A    
N18   H68   1.044290 S    
C14   H6    1.104574 S    
N20   H71   1.042908 S    
O10   Ba2   2.907430 S    
O19   C23   1.387866 S    
P1    O17   1.751167 S    
Ba1   Ba2   4.840468 S    
O23   C31   1.423692 S    
N29   O89   1.299048 A    
P3    O19   1.751783 S    
Ba3   Ba4   4.840468 S    
O4    Ba4   2.891739 S    
P4    O4    1.611246 D    
O21   C29   1.420715 S    
N33   H73   1.046256 S    
O10   P13   1.770798 S    
C17   N5    1.448820 S    
C26   H26   1.101868 S    
C21   N9    1.468611 S    
C7    N39   1.459571 S    
C31   H35   1.090155 S    
N9    O66   1.299174 A    
O17   C21   1.386062 S    
C31   N3    1.470950 S    
N5    O58   1.300614 A    
N37   O98   1.293525 A    
C3    C31   1.571903 S    
C71   C75   1.409119 A    
C6    N38   1.471065 S    
P2    O2    1.611246 D    
C86   H54   1.080843 S    
C35   C59   1.412196 A    
C63   C67   1.415195 A    
P5    O37   1.752832 S    
C7    C11   1.542391 S    
N13   H58   1.046129 S    
Ba4   O48   2.887795 S    
P7    O39   1.769160 S    
N2    O51   1.299279 A    
N17   H66   1.043962 S    
C46   C50   1.401316 A    
P7    C72   1.903289 S    
C83   N19   1.428810 S    
N11   O70   1.294637 A    
P12   O36   1.538861 D    
C67   C83   1.413191 A    
C51   C55   1.411162 A    
N36   H79   1.037527 S    
N3    O54   1.301351 A    
P8    Ba4   3.528992 S    
C5    N33   1.460173 S    
C34   C68   1.433508 A    
N10   O68   1.294607 A    
N5    O57   1.296718 A    
C54   C88   1.431300 A    
C27   H27   1.106837 S    
O39   C16   1.412399 S    
N43   O110  1.299837 A    
N22   O76   1.294134 A    
P6    O45   1.602185 S    
N48   H88   1.045003 S    
C34   C58   1.417578 A    
C47   C51   1.403607 A    
C3    H39   1.111946 S    
N15   H61   1.042769 S    
P2    O6    1.595167 S    
N16   H64   1.044555 S    
C4    C32   1.574215 S    
C26   H22   1.107972 S    
O1    Ba1   2.889852 S    
P9    O41   1.760400 S    
P10   O34   1.544865 D    
O3    Ba3   2.889852 S    
P3    C39   1.942809 S    
N26   O83   1.287993 A    
N28   O88   1.296593 A    
C77   C81   1.409719 A    
O5    Ba2   2.897328 S    
C36   C60   1.411998 A    
N4    O55   1.299986 A    
C74   C78   1.394786 A    
C38   C42   1.401492 A    
P12   O44   1.744570 S    
O31   Ba3   2.905484 S    
C74   N22   1.424545 S    
N45   H81   1.036766 S    
C21   H17   1.104555 S    
