data_mof_unit_7141.cif
_audit_creation_date              2013-03-05T16:08:13-0500
_audit_creation_method            fapswitch 2.2
_symmetry_space_group_name_H-M    P1
_symmetry_Int_Tables_number       1
_space_group_crystal_system       triclinic
_cell_length_a                    6.957819
_cell_length_b                    14.432584
_cell_length_c                    16.19507
_cell_angle_alpha                 90.09555
_cell_angle_beta                  89.865515
_cell_angle_gamma                 90.090713
_cell_volume                      1626.28893944

loop_
_atom_site_label
_atom_site_type_symbol
_atom_site_description
_atom_site_fract_x
_atom_site_fract_y
_atom_site_fract_z
_atom_type_partial_charge
O1    O     O_R   0.505720 0.583900 0.413310 -0.592238
O2    O     O_R   0.175940 0.594920 0.586080 -0.598032
O3    O     O_R   0.005640 0.416100 0.586690 -0.585515
C1    C     C_R   0.344698 0.616900 0.614872 0.935685
O4    O     O_R   0.176000 0.594930 0.413930 -0.599544
O5    O     O_R   0.005700 0.416110 0.413310 -0.598049
C2    C     C_R   0.344945 0.617014 0.385205 0.933107
O6    O     O_R   0.505660 0.583890 0.586690 -0.598460
O7    O     O_3   0.339200 0.441330 0.500000 -0.270142
V1    V     V_3+5 0.064350 0.510880 0.500000 1.140440
O8    O     O_R   0.675980 0.405080 0.413920 -0.592738
C3    C     C_R   0.845131 0.382610 0.385486 0.930907
O9    O     O_R   0.675920 0.405070 0.586070 -0.594739
C4    C     C_R   0.844281 0.382691 0.614131 0.933296
V2    V     V_3+5 0.564340 0.489120 0.500000 1.147045
O10   O     O_3   0.839360 0.558670 0.500000 -0.282776
H1    H     H_    0.171544 0.098809 0.524845 0.108465
C5    C     C_R   0.660367 0.420513 0.770044 -0.176849
C6    C     C_R   0.577993 0.444555 0.844874 -0.196981
C7    C     C_R   0.612164 0.391125 0.913869 -0.154859
C8    C     C_R   0.726520 0.311401 0.908936 0.350492
C9    C     C_R   0.792332 0.278232 0.830419 -0.040505
C10   C     C_R   0.767042 0.337559 0.760617 0.109994
C11   C     C_R   0.882742 0.189767 0.819307 -0.297501
C12   C     C_R   0.959571 0.165902 0.740504 0.121915
C13   C     C_R   0.947644 0.229253 0.673357 0.127322
C14   C     C_R   0.852214 0.315135 0.683492 -0.292639
C15   C     C_R   0.046531 0.078431 0.726440 -0.184562
C16   C     C_R   0.123157 0.055165 0.649659 -0.119050
C17   C     C_R   0.113154 0.117450 0.584623 -0.113167
C18   C     C_R   0.025376 0.203199 0.595785 -0.163121
H2    H     H_    0.638108 0.468586 0.720140 0.140471
H3    H     H_    0.495039 0.507712 0.850285 0.142082
H4    H     H_    0.559303 0.415636 0.972936 0.165777
H5    H     H_    0.055600 0.026427 0.774086 0.108091
H6    H     H_    0.189447 0.988086 0.640485 0.115062
H7    H     H_    0.016623 0.247875 0.542395 0.108797
C19   C     C_R   0.733252 0.176816 0.246128 0.111182
C20   C     C_R   0.884096 0.178470 0.188546 -0.171021
C21   C     C_R   0.033864 0.242439 0.202790 -0.075743
H8    H     H_    0.155044 0.245810 0.161019 0.159568
C22   C     C_R   0.021836 0.307753 0.267397 -0.171237
H9    H     H_    0.134774 0.358878 0.273532 0.134961
C23   C     C_R   0.859601 0.311260 0.319709 -0.216824
C24   C     C_R   0.721123 0.241591 0.309772 0.166741
C25   C     C_3   0.508115 0.248035 0.302520 -0.463142
C26   C     C_3   0.521060 0.176483 0.233624 -0.432687
H10   H     H_    0.461657 0.317429 0.280800 0.197801
H11   H     H_    0.433016 0.221926 0.358513 0.184467
H12   H     H_    0.479417 0.203883 0.172245 0.239917
H13   H     H_    0.455068 0.108816 0.250230 0.163891
C27   C     C_R   0.508267 0.682867 0.740488 0.150755
C28   C     C_R   0.352858 0.682286 0.685554 -0.221775
C29   C     C_R   0.200826 0.743908 0.702046 -0.161174
H14   H     H_    0.077999 0.746140 0.661465 0.138255
C30   C     C_R   0.211897 0.807904 0.767652 -0.162020
H15   H     H_    0.096200 0.856876 0.775958 0.128197
C31   C     C_R   0.376002 0.812797 0.818412 -0.221325
C32   C     C_R   0.519777 0.746645 0.805115 0.169581
C33   C     C_3   0.729824 0.760565 0.792358 -0.470627
C34   C     C_3   0.717556 0.690828 0.722257 -0.462977
H16   H     H_    0.815717 0.735549 0.845617 0.198304
H17   H     H_    0.763667 0.831987 0.771191 0.186035
H18   H     H_    0.796376 0.625544 0.735146 0.191478
H19   H     H_    0.744981 0.721561 0.660439 0.191926
C35   C     C_R   0.507406 0.682594 0.258846 0.173758
C36   C     C_R   0.353085 0.682553 0.314638 -0.230024
C37   C     C_R   0.201464 0.744636 0.298880 -0.158141
H20   H     H_    0.078995 0.747133 0.339932 0.136931
C38   C     C_R   0.212487 0.808725 0.233377 -0.159913
H21   H     H_    0.097656 0.858362 0.225861 0.127063
C39   C     C_R   0.375777 0.812981 0.181738 -0.224113
C40   C     C_R   0.518755 0.746275 0.194275 0.173532
C41   C     C_3   0.729504 0.759006 0.205749 -0.478806
C42   C     C_3   0.717262 0.689279 0.275752 -0.458606
H22   H     H_    0.765494 0.830230 0.226893 0.182721
H23   H     H_    0.813629 0.733562 0.151889 0.200311
H24   H     H_    0.746934 0.719813 0.337485 0.189215
H25   H     H_    0.793571 0.623342 0.262217 0.194192
O11   O     O_R   0.229140 0.916090 0.913340 -0.604194
O12   O     O_R   0.558860 0.905090 0.086080 -0.603047
O13   O     O_R   0.729100 0.083920 0.086690 -0.577202
C43   C     C_R   0.389693 0.883186 0.114988 0.921947
O14   O     O_R   0.558860 0.905090 0.913930 -0.598168
O15   O     O_R   0.729100 0.083920 0.913310 -0.594850
C44   C     C_R   0.389868 0.883136 0.885082 0.933447
O16   O     O_R   0.229140 0.916080 0.086720 -0.604569
O17   O     O_3   0.395570 0.058660 0.000020 -0.250816
V3    V     V_3+5 0.670450 0.989140 0.000000 1.168380
O18   O     O_R   0.058810 0.094980 0.913910 -0.568643
C45   C     C_R   0.889987 0.119470 0.887174 1.022766
O19   O     O_R   0.058810 0.094980 0.086060 -0.596975
C46   C     C_R   0.890653 0.114046 0.117001 1.038416
V4    V     V_3+5 0.170450 0.010950 0.999970 1.185575
O20   O     O_3   0.895460 0.941370 0.999990 -0.296903
N1    N     N_R   0.796072 0.274932 0.985173 0.203783
O21   O     O_R   0.683385 0.276025 0.049383 -0.452748
O22   O     O_R   0.980923 0.271088 0.996732 -0.444304

loop_
_geom_bond_atom_site_label_1
_geom_bond_atom_site_label_2
_geom_bond_distance
_ccdc_geom_bond_type
C43   O16   1.299103 A    
C1    C28   1.483455 S    
C40   C41   1.489560 S    
C6    C7    1.380018 A    
C1    O6    1.299278 A    
O15   C45   1.300843 A    
C28   C29   1.407880 A    
C23   C24   1.400861 A    
C12   C15   1.418629 A    
C16   H6    1.082906 S    
C13   C14   1.416195 A    
O13   V3    2.000832 S    
C41   H22   1.111325 S    
C33   H17   1.111557 S    
C15   C16   1.392592 A    
O14   C44   1.304649 A    
C27   C34   1.489441 S    
O5    C3    1.298033 A    
C17   C18   1.392270 A    
V2    O10   2.159429 S    
O16   V4    2.006542 S    
C30   H15   1.080115 S    
C33   H16   1.111580 S    
C5    C6    1.383299 A    
C20   C46   1.485082 S    
C19   C24   1.392876 A    
O11   C44   1.298006 A    
C29   H14   1.079865 S    
O8    V2    2.002557 S    
C15   H5    1.079367 S    
C37   H20   1.080174 S    
C41   H23   1.111547 S    
N1    O22   1.301431 A    
C38   H21   1.081176 S    
O1    V2    2.004869 S    
C10   C14   1.418388 A    
C4    C14   1.489831 S    
O7    V1    2.161197 S    
O12   V3    2.003834 S    
C21   C22   1.409584 A    
C35   C36   1.401710 A    
C32   C33   1.488863 S    
O13   C46   1.301478 A    
C8    C9    1.432382 A    
H1    C17   1.082720 S    
C22   C23   1.410690 A    
C31   C44   1.483999 S    
O12   C43   1.304320 A    
O18   V4    2.007589 S    
C26   H12   1.109724 S    
C29   C30   1.408843 A    
O17   V4    1.710019 S    
C41   C42   1.519331 S    
C36   C37   1.409223 A    
C11   C12   1.424436 A    
C6    H3    1.082970 S    
C20   C21   1.410252 A    
O4    C2    1.302509 A    
O15   V3    2.002688 S    
C26   H13   1.111673 S    
C12   C13   1.424565 A    
C24   C25   1.490060 S    
C35   C40   1.395372 A    
C5    C10   1.417482 A    
C18   H7    1.081358 S    
C33   C34   1.518406 S    
V3    O20   1.711661 S    
C34   H18   1.111270 S    
O2    C1    1.302946 A    
C16   C17   1.387806 A    
C27   C32   1.395038 A    
C25   H11   1.111594 S    
N1    O21   1.300972 A    
O19   V4    2.002581 S    
C7    C8    1.402026 A    
C19   C26   1.490685 S    
O3    C4    1.298897 A    
C21   H8    1.080838 S    
O6    V2    2.000314 S    
O9    V2    2.007716 S    
C9    C11   1.435092 A    
C5    H2    1.077667 S    
C22   H9    1.081703 S    
O11   V4    2.000536 S    
O2    V1    2.003468 S    
C11   C45   1.498036 S    
C27   C28   1.401873 A    
C25   C26   1.521666 S    
O1    C2    1.300674 A    
C39   C40   1.400853 A    
O5    V1    2.000734 S    
O8    C3    1.304046 A    
C8    N1    1.428772 S    
C31   C32   1.399976 A    
C7    H4    1.083098 S    
O4    V1    2.003884 S    
C3    C23   1.483748 S    
O3    V1    2.002771 S    
V1    O10   1.711651 S    
O18   C45   1.302459 A    
C19   C20   1.402560 A    
C35   C42   1.489170 S    
O19   C46   1.301355 A    
C30   C31   1.410123 A    
O7    V2    1.710609 S    
V4    O20   2.159445 S    
C42   H24   1.111558 S    
C39   C43   1.485764 S    
C2    C36   1.485635 S    
C25   H10   1.110856 S    
C34   H19   1.111664 S    
C13   C18   1.417062 A    
O17   V3    2.161179 S    
C37   C38   1.410489 A    
O14   V3    2.003443 S    
C9    C10   1.430628 A    
C38   C39   1.410494 A    
O9    C4    1.298947 A    
C42   H25   1.111718 S    
