data_mof_unit_38920.cif
_audit_creation_date              2012-10-26T21:00:09-0400
_audit_creation_method            fapswitch 2.2
_symmetry_space_group_name_H-M    P1
_symmetry_Int_Tables_number       1
_space_group_crystal_system       triclinic
_cell_length_a                    19.27561
_cell_length_b                    8.685055
_cell_length_c                    7.491235
_cell_angle_alpha                 103.332693
_cell_angle_beta                  95.089999
_cell_angle_gamma                 93.045691
_cell_volume                      1211.98321575

loop_
_atom_site_label
_atom_site_type_symbol
_atom_type_description
_atom_site_fract_x
_atom_site_fract_y
_atom_site_fract_z
_atom_type_partial_charge
C1    C     C_R   0.497803 0.199635 0.452935 0.546008
C2    C     C_R   0.811718 0.462957 0.334389 0.072769
C3    C     C_R   0.145259 0.482599 0.497417 0.077835
C4    C     C_R   0.854741 0.517402 0.502584 0.077836
C5    C     C_R   0.175584 0.428590 0.330588 -0.021681
C6    C     C_R   0.824416 0.571412 0.669412 -0.021681
C7    C     C_R   0.248300 0.437591 0.334402 -0.171365
C8    C     C_R   0.751700 0.562410 0.665598 -0.171365
C9    C     C_R   0.291174 0.492432 0.500660 -0.013014
C10   C     C_R   0.708826 0.507568 0.499340 -0.013014
C11   C     C_R   0.930417 0.509466 0.502165 0.391750
C12   C     C_R   0.502197 0.800365 0.547065 0.546009
C13   C     C_R   0.069583 0.490536 0.497837 0.391750
C14   C     C_2   0.134472 0.356506 0.150130 0.264709
C15   C     C_2   0.865528 0.643496 0.849871 0.264708
C16   C     C_2   0.496652 0.031347 0.426895 -0.152947
C17   C     C_2   0.503348 0.968653 0.573105 -0.152948
C18   C     C_R   0.367445 0.498112 0.500641 0.546959
C19   C     C_R   0.632554 0.501888 0.499359 0.546958
C20   C     C_R   0.260970 0.539517 0.665840 -0.122973
C21   C     C_R   0.739030 0.460482 0.334161 -0.122975
C22   C     C_R   0.188282 0.537042 0.665612 0.072768
Cu1   Cu    Cu3+1 0.507710 0.517380 0.684380 0.990076
Cu2   Cu    Cu3+1 0.492290 0.482620 0.315620 0.990077
H1    H     H_    0.293963 0.581959 0.794682 0.126072
H2    H     H_    0.803719 0.379417 0.052712 0.216679
H3    H     H_    0.159790 0.341397 0.024074 0.127436
H4    H     H_    0.840209 0.658602 0.975926 0.127436
H5    H     H_    0.381661 0.384185 0.969273 0.213270
H6    H     H_    0.437267 0.240236 0.941949 0.213732
H7    H     H_    0.618340 0.615786 0.030754 0.213269
H8    H     H_    0.562746 0.759756 0.058016 0.213734
H9    H     H_    0.706037 0.418038 0.205319 0.126066
H10   H     H_    0.271644 0.397431 0.206884 0.110589
H11   H     H_    0.728356 0.602571 0.793116 0.110590
H12   H     H_    0.490236 0.958784 0.286435 0.129252
H13   H     H_    0.509764 0.041216 0.713565 0.129243
H14   H     H_    0.136022 0.699968 0.827844 0.261096
H15   H     H_    0.196281 0.620578 0.947290 0.216678
H16   H     H_    0.863978 0.300030 0.172161 0.261096
N1    N     N_R   0.034668 0.575282 0.392770 -0.165255
N2    N     N_3   0.570335 0.646385 0.077632 -0.446590
N3    N     N_R   0.965332 0.424720 0.607232 -0.165257
N4    N     N_R   0.966073 0.584140 0.394372 -0.148344
N5    N     N_R   0.033927 0.415862 0.605630 -0.148344
N6    N     N_2   0.480680 0.456420 0.038530 -0.023535
N7    N     N_2   0.519320 0.543580 0.961470 -0.023535
N8    N     N_3   0.157803 0.593548 0.834887 -0.592210
N9    N     N_3   0.842198 0.406450 0.165115 -0.592209
N10   N     N_3   0.429666 0.353613 0.922368 -0.446587
O1    O     O_R   0.505010 0.286130 0.619770 -0.477918
O2    O     O_2   0.926599 0.692889 0.860738 -0.439410
O3    O     O_R   0.494990 0.713870 0.380230 -0.477909
O4    O     O_R   0.491990 0.256780 0.308370 -0.513717
O5    O     O_R   0.508010 0.743220 0.691630 -0.513719
O6    O     O_R   0.406650 0.514660 0.655750 -0.481900
O7    O     O_R   0.593350 0.485340 0.344250 -0.481908
O8    O     O_R   0.393640 0.485310 0.344340 -0.517364
O9    O     O_R   0.606360 0.514690 0.655660 -0.517363
O10   O     O_2   0.073400 0.307120 0.139262 -0.439410

loop_
_geom_bond_atom_site_label_1
_geom_bond_atom_site_label_2
_ccdc_geom_bond_type
C12   C17   S    
C22   N8    S    
C1    O4    A    
Cu1   O5    S    
H7    N2    S    
C14   H3    S    
C14   O10   D    
N6    N10   S    
C9    C20   A    
Cu1   O1    S    
C12   O3    A    
C3    C13   S    
C18   O6    A    
C10   C19   S    
N2    N7    S    
Cu2   N6    S    
C2    C21   A    
C13   N1    A    
C15   H4    S    
Cu1   O6    S    
C1    C16   S    
C17   H13   S    
C15   O2    D    
C16   H12   S    
C4    C11   S    
Cu1   O9    S    
N3    N5    A    
C5    C14   S    
C16   C17   D    
C2    C4    A    
C4    C6    A    
N1    N4    A    
C20   C22   A    
C5    C7    A    
H5    N10   S    
C10   C21   A    
H6    N10   S    
C7    H10   S    
C11   N3    A    
C6    C15   S    
C12   O5    A    
C21   H9    S    
C20   H1    S    
Cu1   Cu2   S    
Cu2   O4    S    
H16   N9    S    
C9    C18   S    
C11   N4    A    
Cu1   N7    S    
C13   N5    A    
Cu2   O8    S    
H2    N9    S    
C7    C9    A    
H8    N2    S    
N6    N7    D    
H15   N8    S    
C3    C22   A    
C6    C8    A    
C1    O1    A    
C19   O9    A    
Cu2   O3    S    
H14   N8    S    
C18   O8    A    
C8    C10   A    
C19   O7    A    
C2    N9    S    
Cu2   O7    S    
C3    C5    A    
C8    H11   S    
