data_mof_unit_53461.cif
_audit_creation_date              2012-12-10T17:47:38-0500
_audit_creation_method            fapswitch 2.2
_symmetry_space_group_name_H-M    P1
_symmetry_Int_Tables_number       1
_space_group_crystal_system       triclinic
_cell_length_a                    10.69144
_cell_length_b                    10.598944
_cell_length_c                    9.942536
_cell_angle_alpha                 89.775009
_cell_angle_beta                  89.016693
_cell_angle_gamma                 93.44142
_cell_volume                      1124.45682072

loop_
_atom_site_label
_atom_site_type_symbol
_atom_type_description
_atom_site_fract_x
_atom_site_fract_y
_atom_site_fract_z
_atom_type_partial_charge
C1    C     C_R   0.522785 0.264329 0.500647 0.922932
C2    C     C_3   0.878850 0.511968 0.496009 0.019808
C3    C     C_3   0.937885 0.587870 0.372062 -0.138953
C4    C     C_3   0.917658 0.374025 0.491330 -0.505737
C5    C     C_R   0.587023 0.125719 0.752572 -0.170371
C6    C     C_R   0.549945 0.068177 0.874402 -0.211880
C7    C     C_R   0.477961 0.954125 0.873865 0.066563
C8    C     C_R   0.455417 0.891925 0.752246 -0.205684
C9    C     C_R   0.504549 0.943447 0.628882 0.077340
C10   C     C_R   0.552986 0.068585 0.628907 0.123418
C11   C     C_R   0.556006 0.134427 0.505066 -0.149342
C12   C     C_R   0.258124 0.503397 0.500740 0.963828
C13   C     C_R   0.562483 0.069308 0.384165 -0.246775
C14   C     C_R   0.542115 0.940339 0.384727 -0.214669
C15   C     C_R   0.506729 0.877060 0.504654 -0.125657
C16   C     C_R   0.294818 0.379181 0.140576 0.560131
C17   C     C_R   0.179263 0.371957 0.076689 -0.333414
C18   C     C_R   0.177324 0.379025 0.938124 -0.265180
C19   C     C_R   0.291312 0.386328 0.867122 0.048948
C20   C     C_R   0.399029 0.442525 0.929885 0.037637
C21   C     C_R   0.399996 0.440963 0.074001 0.044415
C22   C     C_R   0.593364 0.559883 0.069338 -0.084276
C23   C     C_R   0.496952 0.741037 0.500810 0.839154
C24   C     C_R   0.594293 0.558401 0.926525 -0.098744
C25   C     C_R   0.742148 0.508853 0.498665 0.846606
C26   C     C_3   0.069595 0.558156 0.637599 0.425259
C27   C     C_3   0.928904 0.575751 0.627501 -0.501584
C28   C     C_3   0.081816 0.592146 0.380943 -0.548547
C29   C     C_3   0.061422 0.371397 0.475996 0.326954
C30   C     C_3   0.121846 0.508135 0.500541 -0.076961
H1    H     H_    0.872476 0.322059 0.406122 0.152713
H2    H     H_    0.123909 0.558691 0.285201 0.209434
H3    H     H_    0.576109 0.118339 0.288724 0.169278
H4    H     H_    0.639967 0.215980 0.755509 0.159327
H5    H     H_    0.572340 0.115421 0.968161 0.130575
H6    H     H_    0.395560 0.806207 0.756203 0.195466
H7    H     H_    0.550786 0.890942 0.290326 0.188811
H8    H     H_    0.668280 0.611195 0.121113 0.146994
H9    H     H_    0.076124 0.478177 0.708696 0.147788
H10   H     H_    0.095773 0.335226 0.130150 0.168260
H11   H     H_    0.091949 0.344120 0.889877 0.174856
H12   H     H_    0.671260 0.606748 0.871570 0.144519
H13   H     H_    0.882585 0.532041 0.719002 0.180986
H14   H     H_    0.906320 0.676489 0.628982 0.179913
H15   H     H_    0.119632 0.691061 0.387138 0.176177
H16   H     H_    0.906496 0.686084 0.374343 0.122117
H17   H     H_    0.085117 0.344845 0.370524 0.135245
H18   H     H_    0.884492 0.324363 0.585534 0.196964
N1    N     N_R   0.498810 0.498800 0.142780 -0.110094
N2    N     N_R   0.498760 0.498720 0.857170 -0.114217
O1    O     O_R   0.500000 0.316780 0.614690 -0.632370
O2    O     O_R   0.499990 0.316750 0.385360 -0.552776
O3    O     O_R   0.314800 0.499990 0.614670 -0.589723
O4    O     O_R   0.314790 0.499970 0.385330 -0.599239
O5    O     O_R   0.500010 0.683250 0.614640 -0.623470
O6    O     O_R   0.500000 0.683220 0.385310 -0.620179
O7    O     O_R   0.685210 0.500030 0.614670 -0.644568
O8    O     O_R   0.685200 0.500010 0.385330 -0.629953
Zn1   Zn    Zn3+2 0.500010 0.500020 0.653130 0.959438
Zn2   Zn    Zn3+2 0.499990 0.499980 0.346870 0.984543
O9    O     O_3   0.137948 0.659776 0.702516 -0.587021
C31   C     C_3   0.153291 0.772623 0.626790 -0.299931
H19   H     H_    0.068217 0.797422 0.573054 0.142955
H20   H     H_    0.234769 0.768714 0.556845 0.145449
H21   H     H_    0.175315 0.851489 0.697115 0.186177
C32   C     C_1   0.901798 0.532197 0.240693 0.203101
N3    N     N_1   0.875421 0.487899 0.138043 -0.238559
C33   C     C_1   0.426221 0.900251 0.997390 0.112044
N4    N     N_1   0.383623 0.856422 0.095929 -0.220019
O10   O     O_3   0.307977 0.302780 0.251009 -0.569612
C34   C     C_3   0.312742 0.176281 0.207339 -0.332580
H22   H     H_    0.391670 0.165618 0.134586 0.156337
H23   H     H_    0.222693 0.140728 0.162813 0.154201
H24   H     H_    0.328241 0.115462 0.295543 0.202425
C35   C     C_1   0.301631 0.278188 0.782384 0.313704
N5    N     N_1   0.305100 0.186947 0.719379 -0.190758
O11   O     O_3   0.106514 0.282829 0.567873 -0.616695
C36   C     C_3   0.083894 0.158111 0.519765 -0.317805
H25   H     H_    0.146084 0.140703 0.432367 0.184399
H26   H     H_    0.984405 0.137173 0.492545 0.150036
H27   H     H_    0.104707 0.090301 0.600317 0.190115

loop_
_geom_bond_atom_site_label_1
_geom_bond_atom_site_label_2
_ccdc_geom_bond_type
C16   C21   A    
O5    Zn1   S    
C24   H12   S    
C19   C20   A    
C1    C11   S    
C21   N1    A    
O3    Zn1   S    
C7    C8    A    
O4    Zn2   S    
O11   C36   S    
C26   C27   S    
C29   C30   S    
N1    Zn2   S    
C29   H17   S    
N2    Zn1   S    
C3    C28   S    
C26   O9    S    
C5    C6    A    
C36   H26   S    
C26   H9    S    
O7    Zn1   S    
O8    Zn2   S    
C22   H8    S    
C6    H5    S    
C18   C19   A    
C8    H6    S    
C31   H20   S    
O2    Zn2   S    
C7    C33   S    
C33   N4    T    
C27   H14   S    
C8    C9    A    
C20   N2    A    
C2    C27   S    
C9    C10   A    
C12   O3    A    
C15   C23   S    
C32   N3    T    
C13   C14   A    
C25   O7    A    
C24   N2    A    
C28   H15   S    
C23   O6    A    
C16   O10   S    
C18   H11   S    
C34   H23   S    
C36   H25   S    
C16   C17   A    
O6    Zn2   S    
C17   H10   S    
C2    C4    S    
C35   N5    T    
C13   H3    S    
C31   H19   S    
C28   H2    S    
C5    H4    S    
C17   C18   A    
C1    O1    A    
O10   C34   S    
C22   N1    A    
C26   C30   S    
C22   C24   A    
C3    C32   S    
O1    Zn1   S    
C25   O8    A    
C4    H18   S    
C31   H21   S    
C12   C30   S    
C4    C29   S    
C34   H24   S    
C23   O5    A    
C6    C7    A    
C3    H16   S    
C19   C35   S    
C2    C3    S    
C9    C15   A    
C5    C10   A    
C14   H7    S    
C11   C13   A    
C36   H27   S    
C28   C30   S    
C2    C25   S    
O9    C31   S    
C1    O2    A    
C4    H1    S    
C10   C11   A    
C27   H13   S    
C34   H22   S    
C29   O11   S    
C20   C21   A    
C14   C15   A    
C12   O4    A    
