data_mof_unit_35027.cif
_audit_creation_date              2012-12-10T17:35:37-0500
_audit_creation_method            fapswitch 2.2
_symmetry_space_group_name_H-M    P1
_symmetry_Int_Tables_number       1
_space_group_crystal_system       triclinic
_cell_length_a                    10.730574
_cell_length_b                    12.313283
_cell_length_c                    13.248184
_cell_angle_alpha                 116.593497
_cell_angle_beta                  77.933399
_cell_angle_gamma                 101.959781
_cell_volume                      1517.70805269

loop_
_atom_site_label
_atom_site_type_symbol
_atom_type_description
_atom_site_fract_x
_atom_site_fract_y
_atom_site_fract_z
_atom_type_partial_charge
C1    C     C_R   0.506445 0.854517 0.287239 0.851388
C2    C     C_3   0.121305 0.001558 0.504438 -0.064640
C3    C     C_3   0.079739 0.130469 0.586968 0.354475
C4    C     C_3   0.034915 0.893395 0.529808 0.368960
C5    C     C_R   0.315611 0.268005 0.011577 -0.172941
C6    C     C_R   0.450439 0.226866 0.832191 -0.036537
C7    C     C_R   0.578891 0.815913 0.087377 -0.213309
C8    C     C_R   0.600446 0.738966 0.972849 -0.152094
C9    C     C_R   0.555621 0.615174 0.934638 -0.152108
C10   C     C_R   0.482332 0.565946 0.010272 0.016755
C11   C     C_R   0.443495 0.647615 0.125095 -0.013668
C12   C     C_R   0.739619 0.000934 0.501642 0.847070
C13   C     C_R   0.445005 0.437978 0.974059 0.064447
C14   C     C_R   0.355031 0.394008 0.045803 0.098745
C15   C     C_R   0.301114 0.475448 0.149689 -0.343079
C16   C     C_R   0.344133 0.602379 0.193045 0.486332
C17   C     C_R   0.495028 0.351595 0.868358 -0.242807
C18   C     C_R   0.362801 0.184735 0.904985 -0.184418
C19   C     C_R   0.504867 0.771874 0.165380 -0.079073
C20   C     C_R   0.703893 0.349321 0.330265 -0.304550
C21   C     C_R   0.328615 0.759075 0.646378 0.067624
C22   C     C_R   0.292023 0.661977 0.677752 -0.254969
C23   C     C_R   0.481074 0.145084 0.712871 0.801193
C24   C     C_R   0.356257 0.558791 0.622427 -0.204957
C25   C     C_R   0.458996 0.551328 0.534703 -0.009354
C26   C     C_R   0.493129 0.653424 0.505456 0.271468
C27   C     C_R   0.529528 0.447293 0.475470 -0.036021
C28   C     C_R   0.632613 0.448396 0.389276 0.177025
C29   C     C_R   0.664501 0.548435 0.362377 -0.288835
C30   C     C_R   0.596575 0.648186 0.418920 -0.188647
C31   C     C_R   0.503128 0.341429 0.497482 0.015137
C32   C     C_R   0.673249 0.248637 0.356244 0.063440
C33   C     C_R   0.259776 0.001093 0.502197 0.879891
C34   C     C_3   0.953624 0.979179 0.382743 0.359687
C35   C     C_3   0.098007 0.978323 0.383635 -0.617002
C36   C     C_3   0.932842 0.124963 0.593075 -0.551295
C37   C     C_3   0.892113 0.897574 0.535107 -0.412844
C38   C     C_3   0.877111 0.000483 0.502655 -0.030710
Cu1   Cu    Cu3+1 0.529690 0.098270 0.475420 0.929865
Cu2   Cu    Cu3+1 0.470310 0.901730 0.524580 0.952657
H1    H     H_    0.945502 0.058830 0.366176 0.082715
H2    H     H_    0.883352 0.137844 0.679582 0.197568
H3    H     H_    0.326623 0.088365 0.877815 0.134880
H4    H     H_    0.223562 0.437638 0.196129 0.140640
H5    H     H_    0.245856 0.234052 0.066293 0.124261
H6    H     H_    0.568529 0.378512 0.811742 0.142006
H7    H     H_    0.623562 0.910206 0.115269 0.146773
H8    H     H_    0.576757 0.560815 0.844406 0.127407
H9    H     H_    0.656507 0.774738 0.913670 0.137768
H10   H     H_    0.727896 0.171941 0.310940 0.111349
H11   H     H_    0.743532 0.549980 0.296677 0.164969
H12   H     H_    0.782968 0.349823 0.264378 0.132171
H13   H     H_    0.426259 0.332549 0.561161 0.118661
H14   H     H_    0.278781 0.838944 0.690312 0.150890
H15   H     H_    0.324235 0.486775 0.650438 0.123804
H16   H     H_    0.213746 0.666849 0.745488 0.143836
H17   H     H_    0.630063 0.719580 0.391808 0.220833
H18   H     H_    0.156805 0.049785 0.357731 0.158791
H19   H     H_    0.129013 0.194753 0.547784 0.091365
H20   H     H_    0.837782 0.911539 0.620116 0.174995
H21   H     H_    0.848928 0.807029 0.474585 0.187215
H22   H     H_    0.055185 0.809734 0.450873 0.138071
N1    N     N_R   0.574690 0.246280 0.438200 -0.179117
N2    N     N_R   0.426100 0.754320 0.561190 -0.214534
O1    O     O_R   0.537340 0.972510 0.318130 -0.599853
O2    O     O_R   0.487200 0.806530 0.359650 -0.561690
O3    O     O_R   0.707380 0.082980 0.479220 -0.600933
O4    O     O_R   0.657240 0.917000 0.520740 -0.607350
O5    O     O_R   0.512800 0.193470 0.640350 -0.590183
O6    O     O_R   0.462660 0.027490 0.681870 -0.598092
O7    O     O_R   0.342760 0.083000 0.479260 -0.604427
O8    O     O_R   0.292620 0.917020 0.520780 -0.551776
O9    O     O_3   0.063790 0.866138 0.615700 -0.603842
C39   C     C_3   0.043339 0.956224 0.728299 -0.231949
H23   H     H_    0.969533 0.014798 0.744035 0.185174
H24   H     H_    0.136126 0.012655 0.753433 0.204171
H25   H     H_    0.010059 0.909158 0.785420 0.137267
O10   O     O_3   0.114996 0.170610 0.696665 -0.596780
C40   C     C_3   0.144699 0.299103 0.749227 -0.356932
H26   H     H_    0.067674 0.346215 0.747490 0.161304
H27   H     H_    0.238425 0.328034 0.708183 0.161584
H28   H     H_    0.154286 0.327352 0.839674 0.204191
O11   O     O_3   0.902448 0.865567 0.300056 -0.577836
C41   C     C_3   0.905707 0.873456 0.196556 -0.352748
H29   H     H_    0.004991 0.902719 0.164041 0.162791
H30   H     H_    0.839039 0.936920 0.206754 0.152949
H31   H     H_    0.872773 0.781481 0.132146 0.198631
O12   O     O_3   0.280158 0.684642 0.292907 -0.586786
C42   C     C_3   0.221726 0.632396 0.370296 -0.261957
H32   H     H_    0.125325 0.582350 0.348559 0.139444
H33   H     H_    0.206288 0.705050 0.456889 0.232886
H34   H     H_    0.283239 0.572876 0.375310 0.150467
H35   H     H_    0.129718 0.889484 0.318820 0.229151
H36   H     H_    0.914586 0.202135 0.578329 0.153505

loop_
_geom_bond_atom_site_label_1
_geom_bond_atom_site_label_2
_ccdc_geom_bond_type
C2    C35   S    
C24   C25   A    
O9    C39   S    
C23   O5    A    
C36   H2    S    
C41   H31   S    
C7    C8    A    
C24   H15   S    
C12   O4    A    
C11   C19   A    
C29   C30   A    
Cu2   O6    S    
C35   H18   S    
C28   C29   A    
C41   H30   S    
C15   H4    S    
C20   C32   A    
C21   H14   S    
C15   C16   A    
C30   H17   S    
C4    H22   S    
C34   C35   S    
C26   N2    A    
C21   N2    A    
C33   O8    A    
C8    C9    A    
C39   H25   S    
C1    O1    A    
C42   H33   S    
C9    C10   A    
Cu2   O2    S    
C21   C22   A    
Cu1   O1    S    
C23   O6    A    
C34   H1    S    
C4    O9    S    
C4    C37   S    
C35   H35   S    
C6    C18   A    
C12   O3    A    
C1    C19   S    
C39   H23   S    
C27   C31   A    
C31   N1    A    
C17   H6    S    
Cu1   Cu2   S    
C40   H27   S    
O10   C40   S    
C22   H16   S    
C5    C18   A    
C20   C28   A    
C25   C26   A    
C5    H5    S    
C31   H13   S    
C7    H7    S    
C2    C4    S    
C37   C38   S    
C11   C16   A    
O11   C41   S    
C1    O2    A    
Cu1   O5    S    
C41   H29   S    
C42   H34   S    
C32   H10   S    
C5    C14   A    
C39   H24   S    
C2    C33   S    
C26   C30   A    
C7    C19   A    
C22   C24   A    
C34   O11   S    
C29   H11   S    
C6    C17   A    
Cu2   O8    S    
C34   C38   S    
Cu1   O3    S    
C32   N1    A    
C10   C13   A    
C40   H28   S    
C37   H21   S    
C25   C27   A    
Cu1   N1    S    
Cu2   N2    S    
C13   C17   A    
C36   C38   S    
C2    C3    S    
C20   H12   S    
C18   H3    S    
C3    C36   S    
C6    C23   S    
C12   C38   S    
C37   H20   S    
C10   C11   A    
C33   O7    A    
C40   H26   S    
C36   H36   S    
O12   C42   S    
C9    H8    S    
Cu2   O4    S    
C27   C28   A    
C16   O12   S    
Cu1   O7    S    
C14   C15   A    
C42   H32   S    
C13   C14   A    
C3    O10   S    
C8    H9    S    
C3    H19   S    
