data_mof_unit_67457.cif
_audit_creation_date              2012-12-10T16:46:02-0500
_audit_creation_method            fapswitch 2.2
_symmetry_space_group_name_H-M    P1
_symmetry_Int_Tables_number       1
_space_group_crystal_system       triclinic
_cell_length_a                    10.782989
_cell_length_b                    8.72635
_cell_length_c                    7.497705
_cell_angle_alpha                 103.202112
_cell_angle_beta                  95.174493
_cell_angle_gamma                 93.041152
_cell_volume                      682.083370403

loop_
_atom_site_label
_atom_site_type_symbol
_atom_type_description
_atom_site_fract_x
_atom_site_fract_y
_atom_site_fract_z
_atom_type_partial_charge
C1    C     C_R   0.497303 0.200080 0.454373 0.878255
C2    C     C_3   0.877574 0.493668 0.496514 -0.330272
C3    C     C_3   0.935517 0.670910 0.525633 0.383236
C4    C     C_3   0.909811 0.391487 0.303239 0.542755
C5    C     C_2   0.495760 0.032870 0.433730 -0.338113
C6    C     C_2   0.513605 0.967875 0.579275 0.142486
C7    C     C_R   0.260202 0.495286 0.500144 0.958209
C8    C     C_R   0.505704 0.799937 0.547532 0.853868
C9    C     C_R   0.739484 0.495808 0.498245 1.007221
C10   C     C_3   0.075577 0.389599 0.636324 0.512844
C11   C     C_3   0.934155 0.416721 0.656826 0.493743
C12   C     C_3   0.084091 0.672629 0.549797 0.338849
C13   C     C_3   0.057045 0.409560 0.296940 0.622019
C14   C     C_3   0.122240 0.493508 0.500034 -0.345249
Cu1   Cu    Cu3+1 0.514070 0.517380 0.684380 1.102578
Cu2   Cu    Cu3+1 0.485930 0.482620 0.315620 1.156878
H1    H     H_    0.477182 0.960363 0.294099 0.196600
H2    H     H_    0.399643 0.379223 0.948445 0.233288
N1    N     N_2   0.464720 0.456420 0.038520 -0.095312
N2    N     N_2   0.535280 0.543580 0.961480 0.079172
O1    O     O_R   0.509140 0.286130 0.619770 -0.574177
O2    O     O_R   0.485380 0.256770 0.308360 -0.561632
O3    O     O_R   0.329570 0.514650 0.655700 -0.620103
O4    O     O_R   0.305810 0.485300 0.344290 -0.502674
O5    O     O_R   0.514620 0.743230 0.691640 -0.558281
O6    O     O_R   0.490860 0.713870 0.380230 -0.561800
O7    O     O_R   0.694190 0.514700 0.655710 -0.551841
O8    O     O_R   0.670430 0.485350 0.344300 -0.471779
O9    O     O_3   0.144055 0.417327 0.812031 -0.647437
H3    H     H_    0.170228 0.529204 0.860176 0.367766
O10   O     O_3   0.850382 0.447392 0.158066 -0.578607
H4    H     H_    0.846116 0.361526 0.044981 0.421578
O11   O     O_3   0.135322 0.752774 0.426636 -0.677115
H5    H     H_    0.120624 0.866318 0.465824 0.379615
O12   O     O_3   0.895876 0.724182 0.367142 -0.641293
H6    H     H_    0.911112 0.840722 0.395216 0.382264
Br1   Br    Br    0.552529 0.078302 0.837586 -0.338525
O13   O     O_3   0.619919 0.645715 0.076422 -0.502722
H7    H     H_    0.664567 0.700071 0.995957 0.387079
O14   O     O_3   0.086786 0.228822 0.557679 -0.665294
H8    H     H_    0.177108 0.210607 0.563177 0.360138
Br2   Br    Br    0.840845 0.217048 0.661554 -0.323162
O15   O     O_3   0.918049 0.512902 0.830002 -0.650438
H9    H     H_    0.981621 0.602282 0.862976 0.358466
Br3   Br    Br    0.163498 0.798986 0.791940 -0.453670
Br4   Br    Br    0.866594 0.819430 0.729730 -0.377552
O16   O     O_3   0.090128 0.497032 0.168443 -0.618042
H10   H     H_    0.036325 0.584505 0.166748 0.414919
O17   O     O_3   0.103784 0.260581 0.236589 -0.690106
H11   H     H_    0.069003 0.217899 0.106190 0.401415
O18   O     O_3   0.859676 0.233237 0.278191 -0.693277
H12   H     H_    0.921704 0.165381 0.317221 0.393236

loop_
_geom_bond_atom_site_label_1
_geom_bond_atom_site_label_2
_ccdc_geom_bond_type
Cu2   O8    S    
C2    C4    S    
O15   H9    S    
C11   O15   S    
O9    H3    S    
O18   H12   S    
N2    O13   S    
C3    Br4   S    
Cu1   O7    S    
O10   H4    S    
C7    O3    A    
C3    O12   S    
Cu2   O2    S    
N1    N2    D    
Cu1   O3    S    
O11   H5    S    
C6    Br1   S    
C1    O2    A    
Cu2   O4    S    
C13   C14   S    
C1    O1    A    
C8    O5    A    
C10   O9    S    
C5    C6    D    
Cu2   N1    S    
C13   O17   S    
C2    C11   S    
O14   H8    S    
C12   C14   S    
C2    C3    S    
Cu2   O6    S    
Cu1   N2    S    
C1    C5    S    
Cu1   O5    S    
C4    O10   S    
C5    H1    S    
Cu1   Cu2   S    
C8    O6    A    
C4    O18   S    
C7    O4    A    
O16   H10   S    
Cu1   O1    S    
O13   H7    S    
C9    O7    A    
C11   Br2   S    
C10   O14   S    
O17   H11   S    
C10   C11   S    
C4    C13   S    
C13   O16   S    
H2    N1    S    
C6    C8    S    
C3    C12   S    
C12   O11   S    
C2    C9    S    
C7    C14   S    
O12   H6    S    
C9    O8    A    
C10   C14   S    
C12   Br3   S    
