data_mof_unit_34828.cif
_audit_creation_date              2012-12-10T17:56:18-0500
_audit_creation_method            fapswitch 2.2
_symmetry_space_group_name_H-M    P1
_symmetry_Int_Tables_number       1
_space_group_crystal_system       triclinic
_cell_length_a                    12.974846
_cell_length_b                    10.952204
_cell_length_c                    9.602597
_cell_angle_alpha                 88.564096
_cell_angle_beta                  97.253087
_cell_angle_gamma                 90.481387
_cell_volume                      1353.19643725

loop_
_atom_site_label
_atom_site_type_symbol
_atom_type_description
_atom_site_fract_x
_atom_site_fract_y
_atom_site_fract_z
_atom_type_partial_charge
C1    C     C_R   0.501238 0.262340 0.503036 0.844282
C2    C     C_R   0.499109 0.737785 0.497144 0.875350
C3    C     C_R   0.497312 0.871920 0.491972 -0.192930
C4    C     C_R   0.501869 0.128453 0.508395 -0.200616
C5    C     C_R   0.425542 0.437153 0.066016 0.487913
C6    C     C_R   0.573261 0.564693 0.933776 0.532424
C7    C     C_R   0.424879 0.437470 0.917014 0.336242
C8    C     C_R   0.574330 0.563692 0.082814 0.370482
C9    C     C_R   0.300407 0.505199 0.472032 0.883558
C10   C     C_R   0.699665 0.490166 0.528174 0.847924
C11   C     C_R   0.813821 0.472873 0.543863 -0.220644
C12   C     C_R   0.186336 0.510176 0.452090 -0.227417
C13   C     C_R   0.019508 0.575311 0.327852 0.282866
C14   C     C_R   0.974014 0.359442 0.620567 0.349105
C15   C     C_R   0.128970 0.584506 0.347118 0.321864
C16   C     C_R   0.870022 0.387685 0.639840 0.302536
C17   C     C_R   0.134526 0.435431 0.540191 -0.147101
C18   C     C_R   0.864406 0.531979 0.440895 -0.177704
C19   C     C_R   0.026333 0.436022 0.531803 -0.038219
C20   C     C_R   0.969638 0.514662 0.432722 -0.080661
C21   C     C_R   0.492630 0.071366 0.378706 -0.283387
C22   C     C_R   0.506073 0.929033 0.621673 -0.231852
C23   C     C_R   0.487987 0.945300 0.366760 0.368615
C24   C     C_R   0.509526 0.055297 0.633702 0.444559
Cu1   Cu    Cu3+1 0.500000 0.500020 0.640660 1.102741
Cu2   Cu    Cu3+1 0.500000 0.499980 0.359340 1.088895
H1    H     H_    0.821156 0.596931 0.370024 0.246186
H2    H     H_    0.180222 0.381009 0.620600 0.236959
H3    H     H_    0.488853 0.126513 0.283157 0.227527
H4    H     H_    0.509692 0.873656 0.716998 0.239830
N1    N     N_R   0.500030 0.500030 0.852080 -0.268358
N2    N     N_R   0.499970 0.499970 0.147920 -0.277215
O1    O     O_R   0.499990 0.319660 0.618740 -0.547499
O2    O     O_R   0.500010 0.680340 0.381260 -0.553235
O3    O     O_R   0.499990 0.319630 0.381170 -0.571175
O4    O     O_R   0.500010 0.680370 0.618830 -0.559648
O5    O     O_R   0.349000 0.499990 0.599490 -0.593623
O6    O     O_R   0.651000 0.500010 0.400510 -0.604750
O7    O     O_R   0.348990 0.499960 0.361920 -0.483603
O8    O     O_R   0.651010 0.500040 0.638080 -0.469694
S1    S     S_3+6 0.812509 0.314208 0.779079 0.094107
O9    O     O_2   0.749228 0.401685 0.850180 -0.234431
O10   O     O_2   0.744748 0.212522 0.716779 -0.248758
O11   O     O_3   0.901597 0.256416 0.905315 -0.442718
H5    H     H_    0.861172 0.208583 0.968806 0.383927
S2    S     S_3+6 0.192148 0.701752 0.258470 0.107418
O12   O     O_2   0.278939 0.753921 0.357896 -0.314549
O13   O     O_2   0.234788 0.647891 0.135300 -0.200079
O14   O     O_3   0.110967 0.816520 0.202022 -0.429262
H6    H     H_    0.152984 0.873891 0.150710 0.403573
S3    S     S_3+6 0.945483 0.619128 0.164862 0.102305
O15   O     O_2   0.897938 0.742267 0.178205 -0.186750
O16   O     O_2   0.011248 0.624191 0.046712 -0.180358
O17   O     O_3   0.849641 0.516805 0.124733 -0.472331
H7    H     H_    0.885255 0.437231 0.124015 0.365086
S4    S     S_3+6 0.033574 0.217604 0.681489 0.087090
O18   O     O_2   0.097158 0.235564 0.821650 -0.212447
O19   O     O_2   0.953688 0.119171 0.694401 -0.177841
O20   O     O_3   0.112114 0.170396 0.566975 -0.533424
H8    H     H_    0.154397 0.104375 0.617532 0.395945
S5    S     S_3+6 0.478253 0.894718 0.190525 0.073586
O21   O     O_2   0.417667 0.778961 0.163185 -0.181516
O22   O     O_2   0.425092 0.991623 0.094651 -0.200498
O23   O     O_3   0.599351 0.875871 0.150437 -0.482165
H9    H     H_    0.637547 0.950872 0.182277 0.360007
S6    S     S_3+6 0.514273 0.106034 0.809534 0.063799
O24   O     O_2   0.404290 0.118262 0.840483 -0.249734
O25   O     O_2   0.567334 0.009000 0.905232 -0.226475
O26   O     O_3   0.578544 0.236777 0.848191 -0.459654
H10   H     H_    0.584197 0.241702 0.951766 0.353834
O27   O     O_3   0.353573 0.371419 0.132048 -0.644215
H11   H     H_    0.305729 0.326500 0.062690 0.387728
O28   O     O_3   0.643531 0.633025 0.867440 -0.624690
H12   H     H_    0.690198 0.679560 0.936626 0.402049
O29   O     O_3   0.345440 0.375188 0.840779 -0.679487
H13   H     H_    0.372901 0.339647 0.760523 0.393495
O30   O     O_3   0.653459 0.626475 0.158857 -0.646082
H14   H     H_    0.626667 0.659839 0.240678 0.392989

loop_
_geom_bond_atom_site_label_1
_geom_bond_atom_site_label_2
_ccdc_geom_bond_type
Cu1   N1    S    
S6    O25   D    
C11   C18   A    
Cu2   N2    S    
S1    O9    D    
C3    C23   A    
C19   C20   A    
C1    O1    A    
O30   H14   S    
S2    O14   S    
Cu1   O8    S    
C4    C24   A    
Cu2   O7    S    
S6    O26   S    
C9    O7    A    
S4    O18   D    
C10   O8    A    
O28   H12   S    
S5    O22   D    
Cu1   O5    S    
S2    O12   D    
Cu2   O2    S    
C12   C17   A    
C18   C20   A    
C24   S6    S    
C5    N2    A    
C2    O2    A    
C6    N1    A    
O20   H8    S    
C13   S3    S    
S1    O10   D    
S5    O21   D    
S2    O13   D    
C7    N1    A    
S3    O15   D    
C8    N2    A    
C5    C7    A    
Cu2   O6    S    
C7    O29   S    
Cu1   Cu2   S    
C21   H3    S    
S3    O16   D    
S5    O23   S    
O29   H13   S    
C11   C16   A    
C12   C15   A    
C9    O5    A    
C13   C15   A    
C8    O30   S    
S1    O11   S    
C14   C16   A    
O11   H5    S    
C1    O3    A    
C6    O28   S    
C2    O4    A    
O17   H7    S    
C22   H4    S    
C13   C20   A    
C17   H2    S    
C14   C19   A    
C18   H1    S    
C6    C8    A    
C14   S4    S    
S4    O20   S    
C10   O6    A    
S3    O17   S    
O23   H9    S    
C1    C4    S    
C21   C23   A    
C2    C3    S    
O27   H11   S    
C5    O27   S    
C4    C21   A    
C17   C19   A    
S4    O19   D    
S6    O24   D    
C22   C24   A    
O26   H10   S    
C9    C12   S    
C10   C11   S    
Cu1   O4    S    
Cu2   O3    S    
C23   S5    S    
O14   H6    S    
C3    C22   A    
C15   S2    S    
C16   S1    S    
Cu1   O1    S    
