data_mof_unit_64619.cif
_audit_creation_date              2012-12-10T18:08:46-0500
_audit_creation_method            fapswitch 2.2
_symmetry_space_group_name_H-M    P1
_symmetry_Int_Tables_number       1
_space_group_crystal_system       triclinic
_cell_length_a                    36.955907
_cell_length_b                    18.365805
_cell_length_c                    18.36594
_cell_angle_alpha                 89.754688
_cell_angle_beta                  119.85284
_cell_angle_gamma                 90.134266
_cell_volume                      10811.2455896

loop_
_atom_site_label
_atom_site_type_symbol
_atom_type_description
_atom_site_fract_x
_atom_site_fract_y
_atom_site_fract_z
_atom_type_partial_charge
C1    C     C_R   0.500087 0.000132 0.360223 0.848108
C2    C     C_R   0.500017 0.999872 0.639881 0.843669
C3    C     C_R   0.000089 0.500132 0.360224 0.847579
C4    C     C_R   0.000020 0.499873 0.639885 0.843620
C5    C     C_1   0.837511 0.000352 0.836301 0.151243
C6    C     C_1   0.162409 0.000404 0.162050 0.153964
C7    C     C_1   0.337495 0.498008 0.836041 0.162533
C8    C     C_1   0.662412 0.500450 0.162118 0.154188
C9    C     C_1   0.662394 0.000940 0.662292 0.151617
C10   C     C_1   0.337568 0.999820 0.337047 0.117953
C11   C     C_1   0.162458 0.500963 0.661591 0.133031
C12   C     C_1   0.837572 0.499783 0.337369 0.118054
C13   C     C_1   0.624697 0.000192 0.625019 -0.223758
C14   C     C_1   0.375272 0.999902 0.375045 -0.251177
C15   C     C_1   0.124717 0.500200 0.624695 -0.223586
C16   C     C_1   0.875275 0.499884 0.375272 -0.251234
C17   C     C_1   0.500120 0.000368 0.282805 -0.188643
C18   C     C_1   0.500008 0.999651 0.717325 -0.192094
C19   C     C_1   0.000122 0.500368 0.282807 -0.189766
C20   C     C_1   0.000012 0.499653 0.717328 -0.192507
C21   C     C_1   0.500092 0.000323 0.217526 -0.189837
C22   C     C_1   0.499988 0.999702 0.782556 -0.189112
C23   C     C_1   0.000094 0.500324 0.217528 -0.190359
C24   C     C_1   0.999990 0.499705 0.782558 -0.189317
C25   C     C_R   1.000000 0.139697 0.999875 0.845090
C26   C     C_R   0.000004 0.860303 0.000130 0.844480
C27   C     C_R   0.500000 0.639697 0.999875 0.844612
C28   C     C_R   0.499995 0.360303 0.000121 0.842293
C29   C     C_R   0.919992 0.000039 0.919910 0.813311
C30   C     C_R   0.079984 0.000051 0.080021 0.813830
C31   C     C_R   0.419987 0.499983 0.919912 0.808351
C32   C     C_R   0.579984 0.500064 0.080023 0.813333
C33   C     C_R   0.499996 0.859958 0.999902 0.850388
C34   C     C_R   0.500004 0.140042 0.000106 0.849855
C35   C     C_R   0.999996 0.359958 0.999903 0.850798
C36   C     C_R   0.000005 0.640042 0.000109 0.849947
C37   C     C_R   0.500024 0.000127 0.140000 0.849262
C38   C     C_R   0.499991 0.999890 0.860016 0.851130
C39   C     C_R   0.000025 0.500127 0.140000 0.849453
C40   C     C_R   0.999991 0.499892 0.860016 0.851503
C41   C     C_1   0.999994 0.217189 0.999659 -0.190780
C42   C     C_1   0.000010 0.782811 0.000353 -0.191121
C43   C     C_1   0.499994 0.717189 0.999658 -0.190830
C44   C     C_1   0.500001 0.282812 0.000341 -0.191758
C45   C     C_R   0.579980 0.000014 0.580233 0.813813
C46   C     C_R   0.420009 0.999982 0.419991 0.819068
C47   C     C_R   0.079986 0.500015 0.580224 0.814630
C48   C     C_R   0.920010 0.499979 0.420061 0.819433
C49   C     C_1   0.499991 0.782464 0.999714 -0.187023
C50   C     C_1   0.500007 0.217537 0.000292 -0.186719
C51   C     C_1   0.999991 0.282464 0.999714 -0.186806
C52   C     C_1   0.000012 0.717536 0.000301 -0.186499
C53   C     C_3   0.724697 0.035484 0.800819 0.315796
C54   C     C_3   0.274527 0.967511 0.352470 0.296258
C55   C     C_3   0.274912 0.084441 0.262198 0.315614
C56   C     C_3   0.725404 0.051520 0.655953 0.312352
C57   C     C_3   0.224864 0.539775 0.797684 0.311788
C58   C     C_3   0.774494 0.469310 0.353435 0.296953
C59   C     C_3   0.774940 0.584137 0.260593 0.315987
C60   C     C_3   0.226113 0.547536 0.652798 0.328446
C61   C     C_3   0.775240 0.036376 0.697494 0.759243
C62   C     C_3   0.224441 0.084069 0.222348 0.761045
C63   C     C_3   0.224388 0.960337 0.296799 0.758898
C64   C     C_3   0.774965 0.046719 0.842622 0.757946
C65   C     C_3   0.275108 0.526383 0.693823 0.747869
C66   C     C_3   0.724455 0.584045 0.220552 0.761675
C67   C     C_3   0.724349 0.462106 0.297868 0.759108
C68   C     C_3   0.275281 0.549971 0.838192 0.767889
C69   C     C_1   0.875225 0.000199 0.874814 -0.256462
C70   C     C_1   0.124706 0.000234 0.124675 -0.270018
C71   C     C_1   0.375212 0.499158 0.874812 -0.245364
C72   C     C_1   0.624708 0.500271 0.124692 -0.270201
C73   C     C_3   0.708865 0.001317 0.707730 -0.250872
C74   C     C_3   0.291293 0.999847 0.290168 -0.261029
C75   C     C_3   0.208897 0.501179 0.706824 -0.260483
C76   C     C_3   0.791298 0.499811 0.290486 -0.261288
C77   C     C_3   0.791097 0.000589 0.789206 -0.254467
C78   C     C_3   0.208803 0.000753 0.208198 -0.252801
C79   C     C_3   0.291109 0.497588 0.788214 -0.257703
C80   C     C_3   0.708806 0.500788 0.208345 -0.252975
C81   C     C_3   0.774742 0.917743 0.776878 0.734572
C82   C     C_3   0.225013 0.957258 0.153681 0.708232
C83   C     C_3   0.274311 0.415920 0.784667 0.742772
C84   C     C_3   0.725045 0.455626 0.154939 0.708110
C85   C     C_3   0.724770 0.918746 0.716574 0.682892
C86   C     C_3   0.275434 0.953322 0.205308 0.696693
C87   C     C_3   0.224598 0.417719 0.720053 0.677039
C88   C     C_3   0.775463 0.451697 0.206733 0.696637
Cu1   Cu    Cu3+1 0.500000 0.072550 0.500000 0.935137
Cu2   Cu    Cu3+1 0.500000 0.927450 0.500000 0.942607
Cu3   Cu    Cu3+1 0.000000 0.572550 0.500000 0.934070
Cu4   Cu    Cu3+1 0.000000 0.427450 0.500000 0.942530
Cu5   Cu    Cu3+1 0.000010 0.000000 0.927480 0.933262
Cu6   Cu    Cu3+1 0.999990 0.000000 0.072520 0.934112
Cu7   Cu    Cu3+1 0.500010 0.500000 0.927480 0.931886
Cu8   Cu    Cu3+1 0.499990 0.500000 0.072520 0.940347
Cu9   Cu    Cu3+1 0.541320 0.000000 0.041310 0.929813
Cu10  Cu    Cu3+1 0.458680 1.000000 0.958690 0.937229
Cu11  Cu    Cu3+1 0.041320 0.500000 0.041310 0.929025
Cu12  Cu    Cu3+1 0.958680 0.500000 0.958690 0.935741
O1    O     O_R   0.500010 0.061270 0.394200 -0.588101
O2    O     O_R   0.499990 0.938730 0.605800 -0.580696
O3    O     O_R   0.499990 0.061270 0.605800 -0.584735
O4    O     O_R   0.500010 0.938730 0.394200 -0.584177
O5    O     O_R   0.000010 0.561270 0.394200 -0.588602
O6    O     O_R   0.999990 0.438730 0.605800 -0.580322
O7    O     O_R   0.999990 0.561270 0.605800 -0.585066
O8    O     O_R   0.000010 0.438730 0.394200 -0.583823
O9    O     O_R   0.560280 0.061270 0.560280 -0.582048
O10   O     O_R   0.439720 0.938730 0.439720 -0.584237
O11   O     O_R   0.439720 0.061270 0.439720 -0.586730
O12   O     O_R   0.560280 0.938730 0.560280 -0.582206
O13   O     O_R   0.060280 0.561270 0.560280 -0.583291
O14   O     O_R   0.939720 0.438730 0.439720 -0.584463
O15   O     O_R   0.939720 0.561270 0.439720 -0.586751
O16   O     O_R   0.060280 0.438730 0.560280 -0.581613
O17   O     O_R   0.000000 0.105620 0.938740 -0.582304
O18   O     O_R   0.000000 0.894380 0.061260 -0.585512
O19   O     O_R   1.000000 0.105620 0.061260 -0.584835
O20   O     O_R   0.000000 0.894380 0.938740 -0.583138
O21   O     O_R   0.500000 0.605620 0.938740 -0.581731
O22   O     O_R   0.500000 0.394380 0.061260 -0.583806
O23   O     O_R   0.500000 0.605620 0.061260 -0.584951
O24   O     O_R   0.500000 0.394380 0.938740 -0.584884
O25   O     O_R   0.939730 0.000000 0.878470 -0.585710
O26   O     O_R   0.060270 0.000000 0.121530 -0.584286
O27   O     O_R   0.439730 0.500000 0.878470 -0.588718
O28   O     O_R   0.560270 0.500000 0.121530 -0.584796
O29   O     O_R   0.939720 0.000000 0.000940 -0.581565
O30   O     O_R   0.060280 0.000000 0.999060 -0.584900
O31   O     O_R   0.439720 0.500000 0.000940 -0.572570
O32   O     O_R   0.560280 0.500000 0.999060 -0.584717
O33   O     O_R   0.534900 0.894160 0.034870 -0.589157
O34   O     O_R   0.465100 0.105840 0.965130 -0.588149
O35   O     O_R   0.465100 0.894160 0.965130 -0.587194
O36   O     O_R   0.534900 0.105840 0.034870 -0.586460
O37   O     O_R   0.034900 0.394160 0.034870 -0.589126
O38   O     O_R   0.965100 0.605840 0.965130 -0.588330
O39   O     O_R   0.965100 0.394160 0.965130 -0.587093
O40   O     O_R   0.034900 0.605840 0.034870 -0.586442
O41   O     O_R   0.534890 0.000000 0.140680 -0.595666
O42   O     O_R   0.465110 0.000000 0.859320 -0.586596
O43   O     O_R   0.034890 0.500000 0.140680 -0.596258
O44   O     O_R   0.965110 0.500000 0.859320 -0.587118
O45   O     O_R   0.465110 1.000000 0.070890 -0.584626
O46   O     O_R   0.534890 0.000000 0.929110 -0.588976
O47   O     O_R   0.965110 0.500000 0.070890 -0.584524
O48   O     O_R   0.034890 0.500000 0.929110 -0.589063
O49   O     O_3   0.782487 0.122901 0.836335 -0.517076
C89   C     C_3   0.824476 0.147569 0.884132 -0.233289
H1    H     H_    0.837649 0.159059 0.842797 0.204243
H2    H     H_    0.846032 0.110622 0.935144 0.173639
H3    H     H_    0.824456 0.200029 0.913810 0.133773
O50   O     O_3   0.205273 0.994806 0.339187 -0.547068
C90   C     C_3   0.211939 0.959587 0.413831 -0.241996
H4    H     H_    0.234334 0.991477 0.469292 0.194507
H5    H     H_    0.222711 0.902368 0.420935 0.168014
H6    H     H_    0.182007 0.958997 0.414150 0.139845
O51   O     O_3   0.215368 0.116594 0.282892 -0.513204
C91   C     C_3   0.173084 0.135647 0.255020 -0.211628
H7    H     H_    0.159237 0.097837 0.281563 0.203201
H8    H     H_    0.152311 0.137890 0.186082 0.162185
H9    H     H_    0.172642 0.190445 0.279723 0.135915
O52   O     O_3   0.797118 0.103808 0.707547 -0.562517
C92   C     C_3   0.798473 0.129193 0.635581 -0.312943
H10   H     H_    0.794094 0.188993 0.630153 0.155329
H11   H     H_    0.774855 0.103809 0.575704 0.171701
H12   H     H_    0.830091 0.121322 0.644210 0.153016
O53   O     O_3   0.282884 0.624781 0.825750 -0.518600
C93   C     C_3   0.324887 0.649789 0.870493 -0.239173
H13   H     H_    0.325001 0.704921 0.895024 0.135716
H14   H     H_    0.337775 0.655960 0.827849 0.206491
H15   H     H_    0.346527 0.615908 0.924881 0.173772
O54   O     O_3   0.705235 0.498077 0.339388 -0.546787
C94   C     C_3   0.711860 0.464475 0.414814 -0.245000
H16   H     H_    0.734236 0.497144 0.469527 0.192881
H17   H     H_    0.722643 0.407185 0.423306 0.168702
H18   H     H_    0.681911 0.464596 0.415064 0.139329
O55   O     O_3   0.715305 0.618241 0.280175 -0.513686
C95   C     C_3   0.673005 0.637624 0.251686 -0.215181
H19   H     H_    0.659108 0.600738 0.278974 0.202991
H20   H     H_    0.652295 0.638774 0.182694 0.163061
H21   H     H_    0.672535 0.692987 0.275100 0.134722
O56   O     O_3   0.299565 0.589398 0.699382 -0.568441
C96   C     C_3   0.300203 0.610281 0.625621 -0.328466
H22   H     H_    0.297616 0.670302 0.618970 0.161758
H23   H     H_    0.275203 0.585584 0.567329 0.157898
H24   H     H_    0.331152 0.597731 0.632832 0.159818
O57   O     O_3   0.704553 0.105479 0.785224 -0.502979
C97   C     C_3   0.710266 0.145952 0.855730 -0.235967
H25   H     H_    0.734578 0.188102 0.871951 0.192334
H26   H     H_    0.716792 0.112992 0.911430 0.114973
H27   H     H_    0.680858 0.175650 0.837514 0.151526
O58   O     O_3   0.282430 0.022897 0.414516 -0.501209
C98   C     C_3   0.324880 0.035317 0.478528 -0.172962
H28   H     H_    0.337412 0.087446 0.470482 0.208862
H29   H     H_    0.347197 0.992043 0.485567 0.120334
H30   H     H_    0.325880 0.040968 0.539616 0.127668
O59   O     O_3   0.292551 0.125691 0.338302 -0.533044
C99   C     C_3   0.287505 0.202589 0.332047 -0.254084
H31   H     H_    0.263620 0.219227 0.348394 0.206752
H32   H     H_    0.280317 0.226551 0.270980 0.123682
H33   H     H_    0.317289 0.227503 0.379789 0.145658
O60   O     O_3   0.720604 0.125356 0.675930 -0.487915
C100  C     C_3   0.719184 0.183880 0.623921 -0.168051
H34   H     H_    0.744536 0.222758 0.662355 0.185294
H35   H     H_    0.689635 0.214203 0.602396 0.137119
H36   H     H_    0.720820 0.168463 0.567517 0.117068
O61   O     O_3   0.204946 0.610099 0.777667 -0.504911
C101  C     C_3   0.210741 0.654484 0.845549 -0.239601
H37   H     H_    0.235017 0.696058 0.858878 0.191970
H38   H     H_    0.217373 0.624610 0.903239 0.115566
H39   H     H_    0.181338 0.684793 0.825639 0.152322
O62   O     O_3   0.782419 0.525894 0.414239 -0.501606
C102  C     C_3   0.824876 0.538757 0.477952 -0.176618
H40   H     H_    0.837427 0.590384 0.468717 0.208879
H41   H     H_    0.847174 0.495107 0.485971 0.121499
H42   H     H_    0.825884 0.545792 0.538896 0.125223
O63   O     O_3   0.792509 0.626705 0.335739 -0.532880
C103  C     C_3   0.787479 0.703568 0.327723 -0.256560
H43   H     H_    0.763559 0.721142 0.343569 0.205442
H44   H     H_    0.780341 0.726293 0.266158 0.124504
H45   H     H_    0.817251 0.728874 0.374959 0.145523
O64   O     O_3   0.224081 0.622897 0.671575 -0.488607
C104  C     C_3   0.223103 0.678438 0.616671 -0.165269
H46   H     H_    0.249279 0.716593 0.652879 0.182124
H47   H     H_    0.193987 0.710320 0.594288 0.140268
H48   H     H_    0.224265 0.659890 0.560715 0.116979
C105  C     C_R   0.696326 0.040166 0.557128 0.099537
C106  C     C_R   0.657019 0.076443 0.516450 -0.165409
C107  C     C_R   0.629571 0.071420 0.430219 -0.170205
C108  C     C_R   0.639991 0.029756 0.380519 -0.100165
C109  C     C_R   0.677577 0.992141 0.417331 -0.196321
C110  C     C_R   0.705164 0.996335 0.503872 -0.120111
H49   H     H_    0.647100 0.109621 0.551813 0.171619
H50   H     H_    0.600046 0.100005 0.401997 0.141053
H51   H     H_    0.618657 0.025694 0.313653 0.145788
H52   H     H_    0.685083 0.957968 0.378768 0.131160
H53   H     H_    0.731022 0.960120 0.524889 0.225175
C111  C     C_R   0.294021 0.118221 0.208686 0.137788
C112  C     C_R   0.336160 0.142517 0.252344 -0.109379
C113  C     C_R   0.355608 0.172650 0.210703 -0.153955
C114  C     C_R   0.333839 0.179856 0.123848 -0.104691
C115  C     C_R   0.292647 0.156596 0.078550 -0.180585
C116  C     C_R   0.273013 0.126105 0.119788 -0.077563
H54   H     H_    0.354342 0.139762 0.320047 0.161455
H55   H     H_    0.387681 0.190801 0.246204 0.134057
H56   H     H_    0.348901 0.203336 0.091592 0.120831
H57   H     H_    0.275796 0.161675 0.010803 0.116580
H58   H     H_    0.241855 0.107826 0.079413 0.228577
C117  C     C_R   0.292429 0.891330 0.401206 0.104749
C118  C     C_R   0.305833 0.884363 0.488604 -0.169735
C119  C     C_R   0.323195 0.820288 0.533950 -0.162062
C120  C     C_R   0.324720 0.758100 0.493069 -0.108720
C121  C     C_R   0.306216 0.758944 0.406306 -0.181463
C122  C     C_R   0.288710 0.823147 0.361274 -0.068712
H59   H     H_    0.301606 0.927109 0.523487 0.140904
H60   H     H_    0.334301 0.818430 0.600727 0.127721
H61   H     H_    0.337667 0.708143 0.527854 0.115452
H62   H     H_    0.303532 0.708791 0.373196 0.127120
H63   H     H_    0.268583 0.814733 0.295593 0.240667
C123  C     C_R   0.706943 0.988663 0.849347 0.126674
C124  C     C_R   0.664375 0.998611 0.826505 -0.110363
C125  C     C_R   0.645341 0.957882 0.862531 -0.150609
C126  C     C_R   0.668135 0.906332 0.923975 -0.098869
C127  C     C_R   0.710157 0.896487 0.950422 -0.171469
C128  C     C_R   0.729424 0.937176 0.914644 -0.077917
H64   H     H_    0.645332 0.039393 0.780981 0.155248
H65   H     H_    0.612790 0.966790 0.842897 0.135112
H66   H     H_    0.653413 0.874778 0.952004 0.122721
H67   H     H_    0.728137 0.857306 0.999534 0.122309
H68   H     H_    0.761942 0.926949 0.941646 0.225767
C129  C     C_R   0.196364 0.536814 0.554096 0.108729
C130  C     C_R   0.156527 0.571133 0.515918 -0.161916
C131  C     C_R   0.127985 0.565801 0.430233 -0.169256
C132  C     C_R   0.138539 0.528369 0.378010 -0.101931
C133  C     C_R   0.177942 0.497535 0.411320 -0.191768
C134  C     C_R   0.206662 0.502221 0.497307 -0.146824
H69   H     H_    0.147377 0.604084 0.552721 0.171903
H70   H     H_    0.097748 0.591695 0.404237 0.141519
H71   H     H_    0.116484 0.524420 0.311473 0.147143
H72   H     H_    0.186476 0.469829 0.370115 0.131096
H73   H     H_    0.235866 0.477587 0.514113 0.199110
C135  C     C_R   0.794151 0.616239 0.206525 0.138058
C136  C     C_R   0.836283 0.640598 0.249807 -0.109068
C137  C     C_R   0.855842 0.669192 0.207660 -0.157269
C138  C     C_R   0.834194 0.674731 0.120652 -0.103873
C139  C     C_R   0.793004 0.651380 0.075723 -0.175762
C140  C     C_R   0.773254 0.622459 0.117479 -0.080502
H74   H     H_    0.854382 0.639061 0.317569 0.161527
H75   H     H_    0.887910 0.687421 0.242873 0.133854
H76   H     H_    0.849351 0.696988 0.087999 0.120775
H77   H     H_    0.776247 0.655133 0.007872 0.121016
H78   H     H_    0.742111 0.603940 0.077427 0.228757
C141  C     C_R   0.792349 0.393815 0.403851 0.104957
C142  C     C_R   0.805762 0.388516 0.491383 -0.169592
C143  C     C_R   0.823133 0.325080 0.538154 -0.163173
C144  C     C_R   0.824642 0.261949 0.498667 -0.108116
C145  C     C_R   0.806098 0.261248 0.411903 -0.180920
C146  C     C_R   0.788587 0.324822 0.365449 -0.068914
H79   H     H_    0.801547 0.432147 0.525298 0.140599
H80   H     H_    0.834263 0.324476 0.604962 0.127281
H81   H     H_    0.837611 0.212499 0.534558 0.114949
H82   H     H_    0.803397 0.210415 0.379924 0.127462
H83   H     H_    0.768441 0.315399 0.299971 0.240717
C147  C     C_R   0.206590 0.497397 0.848381 0.131617
C148  C     C_R   0.163733 0.508155 0.822989 -0.106706
C149  C     C_R   0.144070 0.471209 0.860327 -0.148649
C150  C     C_R   0.166647 0.423701 0.926699 -0.088177
C151  C     C_R   0.209125 0.414995 0.957254 -0.182852
C152  C     C_R   0.228958 0.452031 0.920096 -0.099572
H84   H     H_    0.144960 0.547185 0.774750 0.155205
H85   H     H_    0.111259 0.480265 0.838154 0.133546
H86   H     H_    0.151493 0.395156 0.955910 0.122751
H87   H     H_    0.227080 0.380003 0.011030 0.120395
H88   H     H_    0.261879 0.444614 0.952110 0.228695
O65   O     O_3   0.782682 0.986007 0.647127 -0.614927
C153  C     C_3   0.824087 0.979249 0.661354 -0.225358
H89   H     H_    0.847704 0.014151 0.711281 0.173299
H90   H     H_    0.823846 0.992530 0.602126 0.131726
H91   H     H_    0.834662 0.921990 0.676276 0.208098
O66   O     O_3   0.203026 0.120897 0.142827 -0.622344
C154  C     C_3   0.202928 0.198403 0.144362 -0.390733
H92   H     H_    0.209694 0.223394 0.204353 0.181489
H93   H     H_    0.171374 0.217321 0.096666 0.184772
H94   H     H_    0.224736 0.221390 0.125553 0.163775
O67   O     O_3   0.212749 0.884805 0.282328 -0.618439
C155  C     C_3   0.170595 0.866896 0.256002 -0.245719
H95   H     H_    0.152165 0.910068 0.264579 0.176527
H96   H     H_    0.170374 0.818770 0.292464 0.155826
H97   H     H_    0.154416 0.850813 0.188962 0.197619
O68   O     O_3   0.797505 0.021563 0.927872 -0.626181
C156  C     C_3   0.796100 0.066108 0.989506 -0.396832
H98   H     H_    0.790183 0.124466 0.973696 0.181704
H99   H     H_    0.826951 0.062734 0.047546 0.186115
H100  H     H_    0.773110 0.045258 0.006294 0.161887
O69   O     O_3   0.279386 0.467864 0.647429 -0.593927
C157  C     C_3   0.318535 0.457762 0.652191 -0.236097
H101  H     H_    0.345266 0.483478 0.706854 0.172525
H102  H     H_    0.316836 0.477426 0.593413 0.125076
H103  H     H_    0.324451 0.398659 0.653024 0.195442
O70   O     O_3   0.703117 0.619484 0.140166 -0.622032
C158  C     C_3   0.703036 0.697018 0.139858 -0.390644
H104  H     H_    0.709727 0.723272 0.199188 0.181675
H105  H     H_    0.671513 0.715570 0.091594 0.184106
H106  H     H_    0.724911 0.719017 0.120683 0.163649
O71   O     O_3   0.712666 0.386540 0.285151 -0.618494
C159  C     C_3   0.670503 0.369076 0.259221 -0.245464
H107  H     H_    0.652084 0.412930 0.266717 0.176731
H108  H     H_    0.670255 0.321865 0.296828 0.155620
H109  H     H_    0.654332 0.351762 0.192593 0.197556
O72   O     O_3   0.298062 0.530139 0.925436 -0.595630
C160  C     C_3   0.297225 0.580191 0.983429 -0.374260
H110  H     H_    0.291278 0.637488 0.962651 0.174810
H111  H     H_    0.328291 0.579093 0.041113 0.187393
H112  H     H_    0.274546 0.563177 0.002811 0.153985
O73   O     O_3   0.704203 0.877839 0.752549 -0.587981
C161  C     C_3   0.709448 0.801344 0.757524 -0.257341
H113  H     H_    0.712554 0.777275 0.705950 0.151899
H114  H     H_    0.681025 0.776721 0.753242 0.161819
H115  H     H_    0.735565 0.785005 0.819690 0.190449
O74   O     O_3   0.288395 0.879270 0.223113 -0.627852
C162  C     C_3   0.331222 0.863915 0.252467 -0.333522
H116  H     H_    0.348288 0.905621 0.237476 0.207533
H117  H     H_    0.333110 0.812233 0.223526 0.161009
H118  H     H_    0.347893 0.854847 0.321285 0.186861
O75   O     O_3   0.292824 0.985243 0.158018 -0.588302
C163  C     C_3   0.287462 0.946303 0.086649 -0.243274
H119  H     H_    0.261036 0.968854 0.028411 0.186807
H120  H     H_    0.284017 0.886712 0.089501 0.160814
H121  H     H_    0.315733 0.955001 0.081216 0.156863
O76   O     O_3   0.714961 0.891487 0.635622 -0.588068
C164  C     C_3   0.672929 0.869065 0.582049 -0.307910
H122  H     H_    0.654162 0.858991 0.612922 0.198617
H123  H     H_    0.673289 0.817728 0.550847 0.162178
H124  H     H_    0.655970 0.909772 0.531901 0.187220
O77   O     O_3   0.202834 0.377230 0.753869 -0.585598
C165  C     C_3   0.199388 0.300883 0.739561 -0.261128
H125  H     H_    0.220816 0.278834 0.719000 0.187801
H126  H     H_    0.166783 0.286491 0.692923 0.154062
H127  H     H_    0.205180 0.272233 0.797540 0.149934
O78   O     O_3   0.788408 0.377762 0.226258 -0.627928
C166  C     C_3   0.831238 0.362063 0.256048 -0.333349
H128  H     H_    0.847886 0.354242 0.325062 0.186806
H129  H     H_    0.848323 0.402978 0.240102 0.207735
H130  H     H_    0.833130 0.309647 0.228370 0.160737
O79   O     O_3   0.792891 0.482097 0.158790 -0.588324
C167  C     C_3   0.787556 0.441627 0.088370 -0.243473
H131  H     H_    0.784090 0.382195 0.092583 0.161007
H132  H     H_    0.815849 0.449512 0.082820 0.156725
H133  H     H_    0.761155 0.463453 0.029595 0.186777
O80   O     O_3   0.217738 0.389012 0.641117 -0.546872
C168  C     C_3   0.176310 0.368441 0.581028 -0.264542
H134  H     H_    0.165523 0.399111 0.522034 0.186094
H135  H     H_    0.152715 0.375440 0.600506 0.172916
H136  H     H_    0.176365 0.310214 0.565275 0.159847
O81   O     O_3   0.784318 0.885730 0.855514 -0.621220
C169  C     C_3   0.826676 0.866980 0.910880 -0.310226
H137  H     H_    0.827343 0.814946 0.942409 0.152487
H138  H     H_    0.841603 0.908484 0.960861 0.214700
H139  H     H_    0.845927 0.858991 0.880683 0.187247
O82   O     O_3   0.207298 0.885399 0.139175 -0.563465
C170  C     C_3   0.211126 0.842358 0.079431 -0.261341
H140  H     H_    0.237385 0.803498 0.111308 0.191111
H141  H     H_    0.214001 0.873411 0.030864 0.157105
H142  H     H_    0.182454 0.808946 0.045652 0.149138
O83   O     O_3   0.212623 0.995317 0.076468 -0.614704
C171  C     C_3   0.170036 0.990912 0.013171 -0.284226
H143  H     H_    0.168542 0.984521 0.951712 0.147305
H144  H     H_    0.154068 0.042798 0.010235 0.211078
H145  H     H_    0.152427 0.944839 0.019762 0.189264
O84   O     O_3   0.794650 0.878443 0.739015 -0.558473
C172  C     C_3   0.789311 0.801989 0.732672 -0.256760
H146  H     H_    0.786649 0.776278 0.784289 0.154897
H147  H     H_    0.817467 0.777933 0.735438 0.148958
H148  H     H_    0.762805 0.786943 0.670543 0.195404
O85   O     O_3   0.283934 0.397825 0.868284 -0.604552
C173  C     C_3   0.285039 0.323385 0.890387 -0.285852
H149  H     H_    0.316121 0.311281 0.945220 0.155789
H150  H     H_    0.279470 0.283851 0.840739 0.171231
H151  H     H_    0.262370 0.314040 0.912252 0.174810
O86   O     O_3   0.707317 0.383864 0.142097 -0.563519
C174  C     C_3   0.711165 0.339327 0.083418 -0.261472
H152  H     H_    0.737408 0.300580 0.116239 0.190996
H153  H     H_    0.714081 0.369158 0.034184 0.157334
H154  H     H_    0.682483 0.305832 0.050369 0.149054
O87   O     O_3   0.712692 0.492156 0.076869 -0.614552
C175  C     C_3   0.670118 0.487274 0.013619 -0.283972
H155  H     H_    0.652490 0.441787 0.021238 0.189056
H156  H     H_    0.668657 0.479470 0.952366 0.147305
H157  H     H_    0.654146 0.539463 0.009423 0.211089
O88   O     O_3   0.292581 0.364888 0.752587 -0.532489
C176  C     C_3   0.334311 0.341963 0.808354 -0.284752
H158  H     H_    0.347950 0.360836 0.874012 0.180892
H159  H     H_    0.355309 0.360468 0.785303 0.149580
H160  H     H_    0.335285 0.281589 0.809262 0.157980

loop_
_geom_bond_atom_site_label_1
_geom_bond_atom_site_label_2
_ccdc_geom_bond_type
Cu7   O24   S    
C116  H58   S    
O73   C161  S    
C162  H117  S    
C64   C77   S    
O87   C175  S    
C67   O71   S    
O69   C157  S    
C27   O21   A    
C94   H17   S    
C156  H98   S    
C3    O5    A    
C125  H65   S    
C137  H75   S    
Cu11  O43   S    
C135  C136  A    
C170  H141  S    
C59   C66   S    
C53   C64   S    
C45   O9    A    
C54   C63   S    
C22   C38   S    
C55   C62   S    
C104  H48   S    
O76   C164  S    
C161  H115  S    
C6    C70   T    
C130  C131  A    
C105  C110  A    
C9    C13   T    
C35   O39   A    
C54   C74   S    
C55   C74   S    
C11   C15   T    
C119  H60   S    
C55   O59   S    
C12   C16   T    
C66   O70   S    
C54   C117  S    
C3    C19   S    
C107  H50   S    
Cu5   O20   S    
C98   H30   S    
O59   C99   S    
C172  H147  S    
C90   H6    S    
C25   O19   A    
C163  H119  S    
C160  H111  S    
C95   H20   S    
C174  H154  S    
C29   C69   S    
C47   O16   A    
C4    O7    A    
C57   O61   S    
C154  H92   S    
C91   H9    S    
Cu3   O7    S    
C117  C118  A    
C174  H153  S    
Cu12  O44   S    
C164  H124  S    
C25   C41   S    
O70   C158  S    
C88   O79   S    
C28   C44   S    
C17   C21   T    
C19   C23   T    
C126  H66   S    
C105  C106  A    
C128  H68   S    
C33   O35   A    
C94   H16   S    
C34   O36   A    
C176  H160  S    
O72   C160  S    
C147  C148  A    
C150  C151  A    
Cu4   O16   S    
Cu2   O4    S    
O50   C90   S    
C58   O62   S    
Cu4   O6    S    
C142  C143  A    
C171  H144  S    
C60   C65   S    
C46   O10   A    
C35   C51   S    
C111  C116  A    
C144  C145  A    
C5    C77   S    
C166  H128  S    
C1    O1    A    
Cu3   Cu4   S    
C7    C79   S    
C66   O55   S    
C156  H100  S    
C44   C50   T    
C56   C73   S    
C153  H91   S    
Cu1   O1    S    
C84   C88   S    
C168  H134  S    
C129  C134  A    
C131  H70   S    
C35   O37   A    
C13   C45   S    
C117  C122  A    
C120  H61   S    
C159  H107  S    
C82   O82   S    
C56   C105  S    
C149  H85   S    
C98   H28   S    
C4    C20   S    
C58   C67   S    
C99   H32   S    
C114  H56   S    
C90   H4    S    
C87   O77   S    
C165  H125  S    
C41   C51   T    
C163  H121  S    
C42   C52   T    
C118  C119  A    
C146  H83   S    
C133  H72   S    
C97   H25   S    
C65   C79   S    
C29   O25   A    
Cu7   Cu8   S    
Cu3   O5    S    
C65   O69   S    
C31   O27   A    
Cu9   Cu10  S    
C58   C76   S    
C115  C116  A    
C61   O65   S    
O84   C172  S    
C26   O20   A    
C127  H67   S    
C119  C120  A    
C28   O22   A    
C96   H23   S    
O74   C162  S    
C2    O2    A    
C67   O54   S    
C85   O73   S    
O56   C96   S    
C148  H84   S    
O54   C94   S    
C38   O46   A    
C153  H90   S    
Cu4   O8    S    
C29   O29   A    
C61   C77   S    
C125  C126  A    
C145  H82   S    
C36   C52   S    
C68   C79   S    
C31   C71   S    
C92   H11   S    
C133  C134  A    
Cu1   O3    S    
O57   C97   S    
Cu5   O17   S    
C103  H43   S    
C104  H46   S    
C173  H150  S    
C100  H35   S    
C168  H136  S    
C84   O86   S    
C115  H57   S    
C130  H69   S    
O68   C156  S    
C10   C14   T    
C102  H42   S    
C123  C128  A    
C4    O6    A    
Cu10  O35   S    
C159  H109  S    
C74   C86   S    
C154  H93   S    
C91   H8    S    
Cu12  O39   S    
Cu7   O27   S    
C173  H151  S    
C143  H80   S    
C84   O87   S    
O61   C101  S    
C161  H114  S    
C73   C85   S    
Cu8   O31   S    
C75   C87   S    
C101  H38   S    
C134  H73   S    
C158  H105  S    
C108  H51   S    
C162  H118  S    
C169  H138  S    
C57   C68   S    
O78   C166  S    
C175  H155  S    
C26   C42   S    
O82   C170  S    
C121  H62   S    
C88   O78   S    
Cu8   O23   S    
C18   C22   T    
C62   C78   S    
C26   O18   A    
C155  H95   S    
C28   O24   A    
C123  C124  A    
Cu10  O45   S    
C3    O8    A    
C101  H39   S    
C66   C80   S    
C1    C17   S    
C147  C152  A    
C64   O49   S    
C167  H131  S    
C57   C75   S    
C81   O81   S    
C83   O85   S    
C166  H130  S    
C141  C142  A    
C11   C75   S    
O81   C169  S    
C58   C141  S    
Cu6   O18   S    
O86   C174  S    
C169  H137  S    
C167  H133  S    
C111  C112  A    
C104  H47   S    
O66   C154  S    
C144  H81   S    
C57   C147  S    
O60   C100  S    
C138  H76   S    
Cu11  O37   S    
C122  H63   S    
C53   O57   S    
C59   C76   S    
C103  H45   S    
C81   C85   S    
C98   H29   S    
C63   C78   S    
C83   C87   S    
C172  H146  S    
C90   H5    S    
C61   O52   S    
C131  C132  A    
C80   C84   S    
O64   C104  S    
C163  H120  S    
C160  H110  S    
C64   O68   S    
C124  C125  A    
C14   C46   S    
Cu5   Cu6   S    
C37   O41   A    
C54   O58   S    
O52   C92   S    
C164  H123  S    
Cu12  O47   S    
C33   C49   S    
C114  C115  A    
Cu8   O28   S    
Cu9   O46   S    
C5    C69   T    
C97   H27   S    
C48   O14   A    
C85   O76   S    
O75   C163  S    
C176  H159  S    
C89   H3    S    
C162  H116  S    
C15   C47   S    
C55   C111  S    
C175  H157  S    
Cu7   O21   S    
O58   C98   S    
C46   O11   A    
C155  H97   S    
C30   C70   S    
C118  H59   S    
C94   H18   S    
C151  H87   S    
C156  H99   S    
C124  H64   S    
C8    C72   T    
C40   O48   A    
C148  C149  A    
O53   C93   S    
C170  H142  S    
O63   C103  S    
C30   O30   A    
C112  H54   S    
C109  H52   S    
C120  C121  A    
O51   C91   S    
C77   C81   S    
C159  H108  S    
C113  C114  A    
C106  H49   S    
C139  H77   S    
Cu9   O41   S    
C81   O84   S    
Cu12  O38   S    
C135  C140  A    
C172  H148  S    
C12   C76   S    
C165  H126  S    
C157  H103  S    
O71   C159  S    
C160  H112  S    
C95   H19   S    
C47   O13   A    
Cu1   O11   S    
C151  C152  A    
C97   H26   S    
C67   C80   S    
C113  H55   S    
C63   O50   S    
O80   C168  S    
C150  H86   S    
C141  C146  A    
C60   C75   S    
C140  H78   S    
Cu8   O22   S    
C165  H127  S    
O67   C155  S    
C82   C86   S    
O49   C89   S    
C91   H7    S    
C79   C83   S    
C158  H104  S    
C32   O28   A    
C96   H22   S    
C86   O74   S    
C93   H14   S    
C2    O3    A    
C108  C109  A    
C59   C135  S    
Cu3   O15   S    
C106  C107  A    
Cu5   O25   S    
C6    C78   S    
O55   C95   S    
C27   C43   S    
C21   C37   S    
C171  H143  S    
C167  H132  S    
C93   H13   S    
C34   O34   A    
C56   C61   S    
Cu1   Cu2   S    
C164  H122  S    
C36   O38   A    
C93   H15   S    
Cu11  O48   S    
C30   O26   A    
C92   H10   S    
C2    C18   S    
C143  C144  A    
C170  H140  S    
Cu2   O12   S    
C102  H40   S    
C16   C48   S    
C103  H44   S    
O85   C173  S    
C45   O12   A    
C100  H34   S    
C168  H135  S    
C136  C137  A    
C157  H102  S    
C63   O67   S    
C112  C113  A    
C102  H41   S    
C7    C71   T    
C137  C138  A    
C132  H71   S    
Cu1   O9    S    
C68   O53   S    
C78   C82   S    
C87   O80   S    
Cu2   O2    S    
C20   C24   T    
C99   H31   S    
C31   O31   A    
O83   C171  S    
C126  C127  A    
C76   C88   S    
C95   H21   S    
C86   O75   S    
C152  H88   S    
C38   O42   A    
C169  H139  S    
O65   C153  S    
C9    C73   S    
O79   C167  S    
C60   O64   S    
C175  H156  S    
Cu6   O26   S    
C142  H79   S    
C34   C50   S    
Cu6   O29   S    
C60   C129  S    
C155  H96   S    
C174  H152  S    
C145  C146  A    
C27   O23   A    
O62   C102  S    
C43   C49   T    
C96   H24   S    
C136  H74   S    
C53   C123  S    
Cu3   O13   S    
C166  H129  S    
C153  H89   S    
Cu6   O19   S    
Cu11  Cu12  S    
C171  H145  S    
C129  C130  A    
C132  C133  A    
C36   O40   A    
C1    O4    A    
O77   C165  S    
C68   O72   S    
C48   O15   A    
C39   O43   A    
C176  H158  S    
C92   H12   S    
C40   O44   A    
C138  C139  A    
C89   H2    S    
Cu11  O40   S    
Cu2   O10   S    
C121  C122  A    
C32   O32   A    
C149  C150  A    
C173  H149  S    
C109  C110  A    
C100  H36   S    
O88   C176  S    
C89   H1    S    
C53   C73   S    
C25   O17   A    
C56   O60   S    
Cu10  O34   S    
C82   O83   S    
C154  H94   S    
C139  C140  A    
C59   O63   S    
C83   O88   S    
C10   C74   S    
Cu7   O32   S    
C99   H33   S    
C23   C39   S    
C24   C40   S    
C110  H53   S    
C101  H37   S    
C161  H113  S    
C127  C128  A    
C62   O66   S    
C33   O33   A    
C157  H101  S    
C158  H106  S    
C39   O47   A    
C107  C108  A    
C8    C80   S    
C62   O51   S    
Cu9   O33   S    
Cu9   O36   S    
C37   O45   A    
Cu4   O14   S    
C65   O56   S    
Cu10  O42   S    
Cu5   O30   S    
C32   C72   S    
