data_mof_unit_66231.cif
_audit_creation_date              2012-12-10T19:00:35-0500
_audit_creation_method            fapswitch 2.2
_symmetry_space_group_name_H-M    P1
_symmetry_Int_Tables_number       1
_space_group_crystal_system       triclinic
_cell_length_a                    37.148358
_cell_length_b                    30.298969
_cell_length_c                    21.316686
_cell_angle_alpha                 89.999983
_cell_angle_beta                  54.484546
_cell_angle_gamma                 89.999987
_cell_volume                      19529.4321501

loop_
_atom_site_label
_atom_site_type_symbol
_atom_type_description
_atom_site_fract_x
_atom_site_fract_y
_atom_site_fract_z
_atom_type_partial_charge
C1    C     C_R   0.913855 0.500025 0.087470 0.868521
C2    C     C_R   0.086145 0.500025 0.912530 0.868521
C3    C     C_R   0.413855 0.000025 0.087470 0.868522
C4    C     C_R   0.586145 0.000025 0.912530 0.868521
C5    C     C_3   0.011144 0.459585 0.219260 0.217072
C6    C     C_3   0.988855 0.459585 0.780740 0.217073
C7    C     C_3   0.511144 0.959585 0.219260 0.217072
C8    C     C_3   0.488856 0.959585 0.780740 0.217072
C9    C     C_3   0.041498 0.488457 0.229570 -0.225801
C10   C     C_3   0.958502 0.488458 0.770430 -0.225803
C11   C     C_3   0.541498 0.988457 0.229570 -0.225802
C12   C     C_3   0.458502 0.988457 0.770430 -0.225803
C13   C     C_3   0.031130 0.528837 0.198247 0.168524
C14   C     C_3   0.968870 0.528837 0.801753 0.168524
C15   C     C_3   0.531130 0.028837 0.198247 0.168525
C16   C     C_3   0.468870 0.028837 0.801753 0.168524
C17   C     C_3   0.001265 0.499645 0.187770 -0.092409
C18   C     C_3   0.998734 0.499645 0.812230 -0.092409
C19   C     C_3   0.501265 0.999645 0.187770 -0.092409
C20   C     C_3   0.498734 0.999645 0.812230 -0.092408
C21   C     C_R   0.798972 0.531480 0.159023 0.203913
C22   C     C_R   0.201028 0.531481 0.840976 0.203913
C23   C     C_R   0.298972 0.031480 0.159023 0.203913
C24   C     C_R   0.701028 0.031480 0.840976 0.203913
C25   C     C_R   0.844920 0.529727 0.116196 -0.258241
C26   C     C_R   0.155080 0.529727 0.883803 -0.258240
C27   C     C_R   0.344920 0.029727 0.116196 -0.258240
C28   C     C_R   0.655080 0.029727 0.883804 -0.258241
C29   C     C_R   0.865974 0.500365 0.135810 -0.104081
C30   C     C_R   0.134026 0.500365 0.864190 -0.104081
C31   C     C_R   0.365974 0.000365 0.135810 -0.104080
C32   C     C_R   0.634026 0.000365 0.864190 -0.104081
C33   C     C_R   0.841097 0.472563 0.200692 0.164539
C34   C     C_R   0.158902 0.472562 0.799308 0.164539
C35   C     C_R   0.341097 0.972563 0.200693 0.164539
C36   C     C_R   0.658902 0.972562 0.799307 0.164539
C37   C     C_R   0.795172 0.473969 0.243063 -0.236005
C38   C     C_R   0.204828 0.473969 0.756937 -0.236006
C39   C     C_R   0.295172 0.973969 0.243063 -0.236005
C40   C     C_R   0.704828 0.973969 0.756937 -0.236006
C41   C     C_R   0.774141 0.502899 0.222796 0.011673
C42   C     C_R   0.225859 0.502899 0.777204 0.011674
C43   C     C_R   0.274141 0.002899 0.222796 0.011674
C44   C     C_R   0.725859 0.002899 0.777204 0.011674
C45   C     C_R   0.000578 0.499927 0.120999 0.874893
C46   C     C_R   0.999422 0.499926 0.879001 0.874894
C47   C     C_R   0.500578 0.999927 0.120999 0.874892
C48   C     C_R   0.499422 0.999927 0.879001 0.874894
C49   C     C_R   0.703388 0.488708 0.240431 -0.162620
C50   C     C_R   0.296612 0.488708 0.759569 -0.162621
C51   C     C_R   0.203388 0.988707 0.240432 -0.162620
C52   C     C_R   0.796612 0.988708 0.759569 -0.162620
C53   C     C_R   0.657527 0.488013 0.287026 -0.203657
C54   C     C_R   0.342473 0.488014 0.712974 -0.203657
C55   C     C_R   0.157527 0.988013 0.287026 -0.203658
C56   C     C_R   0.842473 0.988014 0.712974 -0.203657
C57   C     C_R   0.634346 0.500575 0.364617 -0.029695
C58   C     C_R   0.365654 0.500575 0.635383 -0.029696
C59   C     C_R   0.134346 0.000575 0.364617 -0.029695
C60   C     C_R   0.865654 0.000575 0.635383 -0.029695
C61   C     C_R   0.657341 0.513933 0.395178 -0.194916
C62   C     C_R   0.342659 0.513933 0.604822 -0.194916
C63   C     C_R   0.157341 0.013934 0.395177 -0.194916
C64   C     C_R   0.842659 0.013933 0.604822 -0.194915
C65   C     C_R   0.703166 0.515163 0.348258 -0.189539
C66   C     C_R   0.296834 0.515162 0.651741 -0.189540
C67   C     C_R   0.203165 0.015163 0.348258 -0.189539
C68   C     C_R   0.796834 0.015162 0.651741 -0.189540
C69   C     C_R   0.726127 0.502804 0.270858 0.116933
C70   C     C_R   0.273873 0.502804 0.729142 0.116934
C71   C     C_R   0.226127 0.002804 0.270858 0.116933
C72   C     C_R   0.773873 0.002804 0.729142 0.116933
C73   C     C_R   0.000000 0.366257 0.500000 -0.093926
C74   C     C_R   0.500000 0.866257 0.500000 -0.093926
C75   C     C_R   0.000000 0.274337 0.500000 0.027998
C76   C     C_R   0.500000 0.774337 0.500000 0.027998
C77   C     C_R   0.500000 0.274243 0.500000 0.029521
C78   C     C_R   1.000000 0.774242 0.500000 0.029521
C79   C     C_R   1.000000 0.586362 0.500000 0.893592
C80   C     C_R   0.500000 0.086362 0.500000 0.893592
C81   C     C_R   0.983717 0.343242 0.463589 0.135855
C82   C     C_R   0.016283 0.343242 0.536410 0.135855
C83   C     C_R   0.483717 0.843242 0.463589 0.135855
C84   C     C_R   0.516283 0.843242 0.536410 0.135855
C85   C     C_R   0.000171 0.500178 0.378249 0.889914
C86   C     C_R   0.999828 0.500178 0.621751 0.889913
C87   C     C_R   0.500171 0.000178 0.378249 0.889915
C88   C     C_R   0.499828 0.000178 0.621751 0.889913
C89   C     C_R   1.000000 0.413945 0.500000 0.863010
C90   C     C_R   0.500000 0.913945 0.500000 0.863010
C91   C     C_R   0.500000 0.634234 0.500000 -0.030592
C92   C     C_R   0.000000 0.134234 0.500000 -0.030592
C93   C     C_R   0.500000 0.586280 0.500000 0.869409
C94   C     C_R   0.000000 0.086280 0.500000 0.869409
C95   C     C_R   0.586321 0.500015 0.413397 0.868417
C96   C     C_R   0.413679 0.500015 0.586603 0.868416
C97   C     C_R   0.086321 0.000015 0.413397 0.868417
C98   C     C_R   0.913679 0.000015 0.586603 0.868416
C99   C     C_R   0.487236 0.657279 0.566943 -0.196605
C100  C     C_R   0.512764 0.657279 0.433057 -0.196605
C101  C     C_R   0.987236 0.157279 0.566943 -0.196604
C102  C     C_R   0.012764 0.157279 0.433057 -0.196605
C103  C     C_R   0.500000 0.413774 0.500000 0.899640
C104  C     C_R   1.000000 0.913774 0.500000 0.899640
C105  C     C_R   0.965902 0.704065 0.564267 -0.175471
C106  C     C_R   0.034097 0.704065 0.435734 -0.175470
C107  C     C_R   0.465902 0.204065 0.564266 -0.175471
C108  C     C_R   0.534098 0.204066 0.435734 -0.175471
C109  C     C_R   0.965413 0.658187 0.565670 0.149070
C110  C     C_R   0.034587 0.658187 0.434330 0.149070
C111  C     C_R   0.465413 0.158187 0.565670 0.149071
C112  C     C_R   0.534587 0.158187 0.434330 0.149070
C113  C     C_R   0.000000 0.634683 0.500000 -0.077764
C114  C     C_R   0.500000 0.134683 0.500000 -0.077765
C115  C     C_R   0.486982 0.703043 0.567076 -0.178496
C116  C     C_R   0.513018 0.703043 0.432924 -0.178497
C117  C     C_R   0.986982 0.203043 0.567076 -0.178498
C118  C     C_R   0.013018 0.203043 0.432924 -0.178497
C119  C     C_R   1.000000 0.726482 0.500000 0.003052
C120  C     C_R   0.500000 0.226482 0.500000 0.003052
C121  C     C_R   0.485726 0.297192 0.460348 0.172333
C122  C     C_R   0.514274 0.297192 0.539652 0.172333
C123  C     C_R   0.985726 0.797192 0.460348 0.172333
C124  C     C_R   0.014274 0.797192 0.539652 0.172333
C125  C     C_R   0.486264 0.343095 0.460445 -0.230490
C126  C     C_R   0.513735 0.343095 0.539555 -0.230490
C127  C     C_R   0.986264 0.843095 0.460445 -0.230489
C128  C     C_R   0.013735 0.843095 0.539555 -0.230489
C129  C     C_R   0.500000 0.365928 0.500000 -0.114402
C130  C     C_R   1.000000 0.865928 0.500000 -0.114402
C131  C     C_R   0.500000 0.726141 0.500000 0.144463
C132  C     C_R   1.000000 0.226141 0.500000 0.144464
C133  C     C_R   0.983494 0.297291 0.464884 -0.204611
C134  C     C_R   0.016506 0.297291 0.535116 -0.204612
C135  C     C_R   0.483494 0.797291 0.464884 -0.204611
C136  C     C_R   0.516506 0.797291 0.535116 -0.204611
C137  C     C_3   0.960505 0.511319 0.268762 -0.240211
C138  C     C_3   0.039495 0.511318 0.731238 -0.240212
C139  C     C_3   0.460506 0.011319 0.268762 -0.240211
C140  C     C_3   0.539494 0.011319 0.731238 -0.240211
C141  C     C_3   0.990584 0.540416 0.279580 0.240594
C142  C     C_3   0.009416 0.540416 0.720419 0.240594
C143  C     C_3   0.490584 0.040416 0.279580 0.240595
C144  C     C_3   0.509416 0.040416 0.720419 0.240595
C145  C     C_3   0.000578 0.500252 0.310532 -0.058766
C146  C     C_3   0.999422 0.500252 0.689468 -0.058765
C147  C     C_3   0.500578 0.000252 0.310532 -0.058766
C148  C     C_3   0.499422 0.000252 0.689468 -0.058765
C149  C     C_3   0.970528 0.470792 0.300826 -0.209460
C150  C     C_3   0.029472 0.470792 0.699174 -0.209460
C151  C     C_3   0.470528 0.970792 0.300826 -0.209460
C152  C     C_3   0.529472 0.970792 0.699174 -0.209460
H1    H     H_    0.775506 0.452711 0.292968 0.151877
H2    H     H_    0.224494 0.452710 0.707033 0.151878
H3    H     H_    0.275506 0.952712 0.292969 0.151877
H4    H     H_    0.724494 0.952711 0.707032 0.151878
H5    H     H_    0.721142 0.478110 0.181014 0.139618
H6    H     H_    0.278858 0.478111 0.818986 0.139617
H7    H     H_    0.221142 0.978109 0.181015 0.139617
H8    H     H_    0.778858 0.978110 0.818986 0.139617
H9    H     H_    0.640263 0.477165 0.262736 0.154444
H10   H     H_    0.359737 0.477166 0.737264 0.154444
H11   H     H_    0.140263 0.977164 0.262737 0.154444
H12   H     H_    0.859737 0.977165 0.737264 0.154444
H13   H     H_    0.639950 0.523858 0.454909 0.154034
H14   H     H_    0.360050 0.523857 0.545090 0.154034
H15   H     H_    0.139950 0.023859 0.454908 0.154034
H16   H     H_    0.860050 0.023858 0.545091 0.154034
H17   H     H_    0.720792 0.525738 0.372042 0.134632
H18   H     H_    0.279207 0.525737 0.627957 0.134632
H19   H     H_    0.220793 0.025738 0.372042 0.134632
H20   H     H_    0.779207 0.025737 0.627957 0.134632
H21   H     H_    0.476178 0.720372 0.619732 0.128354
H22   H     H_    0.523821 0.720372 0.380268 0.128354
H23   H     H_    0.976178 0.220372 0.619732 0.128355
H24   H     H_    0.023821 0.220372 0.380268 0.128354
H25   H     H_    0.476920 0.639970 0.619374 0.153690
H26   H     H_    0.523080 0.639971 0.380626 0.153690
H27   H     H_    0.976920 0.139970 0.619374 0.153689
H28   H     H_    0.023080 0.139971 0.380626 0.153690
H29   H     H_    0.939675 0.722675 0.613256 0.145704
H30   H     H_    0.060325 0.722675 0.386744 0.145704
H31   H     H_    0.439674 0.222675 0.613256 0.145704
H32   H     H_    0.560325 0.222675 0.386744 0.145704
H33   H     H_    0.927640 0.520676 0.282974 0.143231
H34   H     H_    0.072360 0.520675 0.717026 0.143231
H35   H     H_    0.427640 0.020677 0.282974 0.143231
H36   H     H_    0.572360 0.020676 0.717026 0.143231
H37   H     H_    0.970337 0.279360 0.438348 0.141403
H38   H     H_    0.029663 0.279360 0.561652 0.141404
H39   H     H_    0.470337 0.779360 0.438348 0.141403
H40   H     H_    0.529663 0.779360 0.561652 0.141403
H41   H     H_    0.475131 0.361025 0.430629 0.166396
H42   H     H_    0.524868 0.361025 0.569371 0.166396
H43   H     H_    0.975131 0.861025 0.430629 0.166396
H44   H     H_    0.024869 0.861025 0.569371 0.166395
H45   H     H_    0.945851 0.446945 0.344096 0.153014
H46   H     H_    0.054148 0.446944 0.655904 0.153014
H47   H     H_    0.445851 0.946946 0.344097 0.153014
H48   H     H_    0.554148 0.946945 0.655904 0.153014
H49   H     H_    0.074337 0.478719 0.215077 0.156165
H50   H     H_    0.925663 0.478720 0.784923 0.156166
H51   H     H_    0.574336 0.978719 0.215078 0.156165
H52   H     H_    0.425663 0.978719 0.784922 0.156166
H53   H     H_    0.864508 0.551513 0.067076 0.157203
H54   H     H_    0.135492 0.551514 0.932923 0.157203
H55   H     H_    0.364508 0.051513 0.067075 0.157202
H56   H     H_    0.635492 0.051513 0.932924 0.157203
O1    O     O_R   0.934530 0.463050 0.065470 -0.614923
O2    O     O_R   0.065470 0.463050 0.934530 -0.614923
O3    O     O_R   0.434530 0.963050 0.065470 -0.614923
O4    O     O_R   0.565470 0.963050 0.934530 -0.614923
O5    O     O_R   0.565480 0.500000 0.487030 -0.626450
O6    O     O_R   0.434520 0.500000 0.512970 -0.626451
O7    O     O_R   0.065480 0.000000 0.487030 -0.626450
O8    O     O_R   0.934520 0.000000 0.512970 -0.626451
O9    O     O_R   0.565480 0.499990 0.382000 -0.625668
O10   O     O_R   0.434520 0.499990 0.618000 -0.625668
O11   O     O_R   0.065480 0.999990 0.382000 -0.625668
O12   O     O_R   0.934520 0.999990 0.618000 -0.625668
O13   O     O_R   0.500000 0.434520 0.552520 -0.626572
O14   O     O_R   0.500000 0.434520 0.447480 -0.626573
O15   O     O_R   0.000000 0.934520 0.552520 -0.626572
O16   O     O_R   1.000000 0.934520 0.447480 -0.626572
O17   O     O_R   0.934550 0.536970 0.065450 -0.626346
O18   O     O_R   0.065450 0.536970 0.934550 -0.626347
O19   O     O_R   0.434550 0.036970 0.065450 -0.626347
O20   O     O_R   0.565450 0.036970 0.934550 -0.626347
O21   O     O_R   0.000010 0.463050 0.093020 -0.616692
O22   O     O_R   0.999990 0.463050 0.906980 -0.616692
O23   O     O_R   0.500010 0.963050 0.093020 -0.616692
O24   O     O_R   0.499990 0.963050 0.906980 -0.616692
O25   O     O_R   0.000020 0.536970 0.093000 -0.633793
O26   O     O_R   0.999980 0.536970 0.907000 -0.633793
O27   O     O_R   0.500020 0.036970 0.093000 -0.633793
O28   O     O_R   0.499980 0.036970 0.907000 -0.633793
O29   O     O_R   0.036960 0.565440 0.463030 -0.619382
O30   O     O_R   0.963040 0.565440 0.536970 -0.619382
O31   O     O_R   0.536960 0.065440 0.463030 -0.619382
O32   O     O_R   0.463040 0.065440 0.536970 -0.619382
O33   O     O_R   0.036960 0.499960 0.370010 -0.631003
O34   O     O_R   0.963040 0.499960 0.629990 -0.631003
O35   O     O_R   0.536960 0.999960 0.370010 -0.631002
O36   O     O_R   0.463040 0.999960 0.629990 -0.631003
O37   O     O_R   0.963040 0.499940 0.443930 -0.620300
O38   O     O_R   0.036960 0.499940 0.556070 -0.620299
O39   O     O_R   0.463040 0.999940 0.443930 -0.620300
O40   O     O_R   0.536960 0.999940 0.556070 -0.620299
O41   O     O_R   0.036980 0.434490 0.463020 -0.620128
O42   O     O_R   0.963020 0.434490 0.536980 -0.620128
O43   O     O_R   0.536980 0.934490 0.463020 -0.620128
O44   O     O_R   0.463020 0.934490 0.536980 -0.620128
O45   O     O_R   0.500030 0.565470 0.552480 -0.625653
O46   O     O_R   0.499970 0.565470 0.447520 -0.625652
O47   O     O_R   0.000030 0.065470 0.552480 -0.625653
O48   O     O_R   0.999970 0.065470 0.447520 -0.625652
Zn1   Zn    Zn3+2 0.000000 0.450650 0.000000 0.932267
Zn2   Zn    Zn3+2 0.500000 0.950650 0.000000 0.932268
Zn3   Zn    Zn3+2 1.000000 0.549370 0.000000 0.926764
Zn4   Zn    Zn3+2 0.500000 0.049370 0.000000 0.926765
Zn5   Zn    Zn3+2 0.049370 0.499970 0.450630 0.934393
Zn6   Zn    Zn3+2 0.950630 0.499970 0.549370 0.934393
Zn7   Zn    Zn3+2 0.549370 0.999970 0.450630 0.934393
Zn8   Zn    Zn3+2 0.450630 0.999970 0.549370 0.934392
Zn9   Zn    Zn3+2 0.500010 0.500000 0.570110 0.939134
Zn10  Zn    Zn3+2 0.499990 0.500000 0.429890 0.939133
Zn11  Zn    Zn3+2 0.000010 0.000000 0.570110 0.939134
Zn12  Zn    Zn3+2 0.999990 1.000000 0.429890 0.939133
C153  C     C_3   0.977176 0.585784 0.317116 -0.921665
H57   H     H_    0.974674 0.609116 0.279691 0.244628
H58   H     H_    0.944630 0.583535 0.373910 0.246633
H59   H     H_    0.001935 0.598106 0.326022 0.231029
C154  C     C_3   0.022825 0.585784 0.682882 -0.921663
H60   H     H_    0.025327 0.609115 0.720308 0.244628
H61   H     H_    0.055371 0.583534 0.626089 0.246633
H62   H     H_    0.998066 0.598106 0.673977 0.231029
C155  C     C_3   0.477177 0.085785 0.317116 -0.921664
H63   H     H_    0.474674 0.109116 0.279690 0.244628
H64   H     H_    0.444630 0.083535 0.373909 0.246633
H65   H     H_    0.501935 0.098106 0.326021 0.231029
C156  C     C_3   0.522824 0.085784 0.682883 -0.921663
H66   H     H_    0.525326 0.109116 0.720309 0.244628
H67   H     H_    0.555370 0.083535 0.626090 0.246633
H68   H     H_    0.498065 0.098106 0.673978 0.231028
C157  C     C_3   0.967405 0.366295 0.421328 -0.413555
C158  C     C_3   0.916980 0.367478 0.470493 -0.835690
H69   H     H_    0.903897 0.385882 0.524788 0.273645
H70   H     H_    0.905832 0.384250 0.438271 0.235128
H71   H     H_    0.903329 0.333445 0.484638 0.250884
H72   H     H_    0.980314 0.400472 0.404568 0.199176
H73   H     H_    0.979854 0.348593 0.366581 0.196140
C159  C     C_3   0.032595 0.366295 0.578672 -0.413556
C160  C     C_3   0.083019 0.367478 0.529507 -0.835690
H74   H     H_    0.096103 0.385882 0.475212 0.273645
H75   H     H_    0.094168 0.384250 0.561729 0.235128
H76   H     H_    0.096671 0.333445 0.515362 0.250884
H77   H     H_    0.019686 0.400472 0.595431 0.199176
H78   H     H_    0.020146 0.348593 0.633419 0.196140
C161  C     C_3   0.467405 0.866295 0.421328 -0.413554
C162  C     C_3   0.416980 0.867478 0.470493 -0.835688
H79   H     H_    0.403897 0.885882 0.524787 0.273645
H80   H     H_    0.405832 0.884250 0.438271 0.235127
H81   H     H_    0.403329 0.833445 0.484638 0.250883
H82   H     H_    0.480314 0.900472 0.404568 0.199176
H83   H     H_    0.479854 0.848593 0.366581 0.196140
C163  C     C_3   0.532595 0.866295 0.578672 -0.413557
C164  C     C_3   0.583020 0.867478 0.529507 -0.835690
H84   H     H_    0.596103 0.885883 0.475212 0.273645
H85   H     H_    0.594168 0.884250 0.561729 0.235128
H86   H     H_    0.596671 0.833445 0.515362 0.250884
H87   H     H_    0.519686 0.900472 0.595432 0.199176
H88   H     H_    0.520146 0.848593 0.633419 0.196140
C165  C     C_3   0.928049 0.635777 0.638167 -0.883787
H89   H     H_    0.941249 0.610722 0.657724 0.236866
H90   H     H_    0.908313 0.659574 0.686236 0.223835
H91   H     H_    0.905256 0.619872 0.627276 0.258766
C166  C     C_3   0.071951 0.635777 0.361833 -0.883787
H92   H     H_    0.058751 0.610722 0.342276 0.236864
H93   H     H_    0.091687 0.659574 0.313765 0.223835
H94   H     H_    0.094744 0.619872 0.372724 0.258767
C167  C     C_3   0.428048 0.135777 0.638167 -0.883786
H95   H     H_    0.441248 0.110722 0.657724 0.236864
H96   H     H_    0.408313 0.159574 0.686235 0.223834
H97   H     H_    0.405256 0.119872 0.627275 0.258767
C168  C     C_3   0.571952 0.135777 0.361833 -0.883787
H98   H     H_    0.558752 0.110722 0.342276 0.236865
H99   H     H_    0.591687 0.159574 0.313765 0.223835
H100  H     H_    0.594744 0.119872 0.372725 0.258767
C169  C     C_3   0.468878 0.274108 0.418926 -0.414588
C170  C     C_3   0.502951 0.276087 0.331682 -0.863176
H101  H     H_    0.509969 0.310868 0.311487 0.256311
H102  H     H_    0.534183 0.259867 0.314836 0.257916
H103  H     H_    0.489924 0.258621 0.302972 0.249372
H104  H     H_    0.460400 0.239041 0.436420 0.220224
H105  H     H_    0.437795 0.290219 0.434527 0.199229
C171  C     C_3   0.531122 0.274108 0.581075 -0.414589
C172  C     C_3   0.497049 0.276087 0.668318 -0.863175
H106  H     H_    0.490031 0.310868 0.688513 0.256311
H107  H     H_    0.465816 0.259867 0.685164 0.257916
H108  H     H_    0.510075 0.258621 0.697028 0.249372
H109  H     H_    0.539600 0.239041 0.563580 0.220224
H110  H     H_    0.562204 0.290219 0.565473 0.199230
C173  C     C_3   0.968878 0.774108 0.418926 -0.414587
C174  C     C_3   0.002951 0.776087 0.331683 -0.863175
H111  H     H_    0.009968 0.810868 0.311488 0.256311
H112  H     H_    0.034183 0.759867 0.314837 0.257916
H113  H     H_    0.989923 0.758621 0.302973 0.249372
H114  H     H_    0.960399 0.739041 0.436421 0.220224
H115  H     H_    0.937795 0.790219 0.434528 0.199229
C175  C     C_3   0.031122 0.774108 0.581074 -0.414589
C176  C     C_3   0.997049 0.776087 0.668318 -0.863174
H116  H     H_    0.990031 0.810868 0.688512 0.256311
H117  H     H_    0.965817 0.759868 0.685164 0.257916
H118  H     H_    0.010076 0.758621 0.697027 0.249372
H119  H     H_    0.039600 0.739041 0.563579 0.220224
H120  H     H_    0.062205 0.790219 0.565472 0.199229
C177  C     C_3   0.022873 0.413125 0.186110 -0.889584
H121  H     H_    0.029269 0.392094 0.221287 0.225224
H122  H     H_    0.995002 0.398867 0.187188 0.251537
H123  H     H_    0.052977 0.414090 0.125881 0.245570
C178  C     C_3   0.977126 0.413126 0.813892 -0.889583
H124  H     H_    0.970730 0.392095 0.778715 0.225224
H125  H     H_    0.004997 0.398867 0.812813 0.251536
H126  H     H_    0.947022 0.414091 0.874120 0.245570
C179  C     C_3   0.522872 0.913125 0.186110 -0.889584
H127  H     H_    0.529268 0.892094 0.221287 0.225224
H128  H     H_    0.495001 0.898868 0.187189 0.251537
H129  H     H_    0.552976 0.914089 0.125882 0.245570
C180  C     C_3   0.477127 0.913126 0.813890 -0.889582
H130  H     H_    0.470731 0.892094 0.778713 0.225224
H131  H     H_    0.504998 0.898868 0.812812 0.251537
H132  H     H_    0.447023 0.914090 0.874119 0.245570
C181  C     C_3   0.065640 0.560691 0.136651 -0.393784
C182  C     C_3   0.094940 0.580230 0.158153 -0.881506
H133  H     H_    0.074961 0.600048 0.211616 0.265831
H134  H     H_    0.112371 0.553662 0.166495 0.259960
H135  H     H_    0.120056 0.602177 0.111042 0.248662
H136  H     H_    0.086787 0.542542 0.081331 0.191987
H137  H     H_    0.048562 0.587789 0.128570 0.222028
C183  C     C_3   0.934361 0.560692 0.863349 -0.393783
C184  C     C_3   0.905061 0.580231 0.841846 -0.881508
H138  H     H_    0.925040 0.600050 0.788383 0.265831
H139  H     H_    0.887630 0.553664 0.833503 0.259961
H140  H     H_    0.879945 0.602179 0.888957 0.248663
H141  H     H_    0.913213 0.542543 0.918668 0.191987
H142  H     H_    0.951439 0.587789 0.871429 0.222028
C185  C     C_3   0.565640 0.060691 0.136650 -0.393784
C186  C     C_3   0.594941 0.080229 0.158152 -0.881506
H143  H     H_    0.574962 0.100048 0.211616 0.265831
H144  H     H_    0.612372 0.053661 0.166495 0.259960
H145  H     H_    0.620057 0.102177 0.111042 0.248662
H146  H     H_    0.586788 0.042542 0.081331 0.191987
H147  H     H_    0.548563 0.087788 0.128569 0.222028
C187  C     C_3   0.434360 0.060691 0.863349 -0.393785
C188  C     C_3   0.405060 0.080230 0.841847 -0.881507
H148  H     H_    0.425039 0.100049 0.788384 0.265831
H149  H     H_    0.387629 0.053662 0.833504 0.259960
H150  H     H_    0.379943 0.102177 0.888958 0.248663
H151  H     H_    0.413213 0.042542 0.918669 0.191987
H152  H     H_    0.451438 0.087789 0.871430 0.222029
C189  C     C_3   0.778123 0.565384 0.136985 -0.422080
C190  C     C_3   0.785282 0.553481 0.060843 -0.878357
H153  H     H_    0.821086 0.553156 0.013047 0.261181
H154  H     H_    0.771032 0.520535 0.064830 0.256376
H155  H     H_    0.768783 0.578358 0.047300 0.251376
H156  H     H_    0.742147 0.569130 0.181976 0.217383
H157  H     H_    0.793134 0.598216 0.131190 0.203475
C191  C     C_3   0.221877 0.565385 0.863013 -0.422081
C192  C     C_3   0.214718 0.553482 0.939156 -0.878356
H158  H     H_    0.178914 0.553157 0.986951 0.261182
H159  H     H_    0.228969 0.520537 0.935169 0.256376
H160  H     H_    0.231217 0.578360 0.952698 0.251375
H161  H     H_    0.257852 0.569131 0.818023 0.217384
H162  H     H_    0.206865 0.598217 0.868807 0.203475
C193  C     C_3   0.278123 0.065383 0.136984 -0.422079
C194  C     C_3   0.285282 0.053479 0.060842 -0.878357
H163  H     H_    0.321086 0.053154 0.013047 0.261182
H164  H     H_    0.271031 0.020533 0.064830 0.256376
H165  H     H_    0.268783 0.078356 0.047299 0.251376
H166  H     H_    0.242147 0.069129 0.181975 0.217383
H167  H     H_    0.293134 0.098216 0.131189 0.203475
C195  C     C_3   0.721877 0.065384 0.863014 -0.422080
C196  C     C_3   0.714718 0.053481 0.939156 -0.878358
H168  H     H_    0.678914 0.053156 0.986952 0.261182
H169  H     H_    0.728969 0.020535 0.935169 0.256377
H170  H     H_    0.731217 0.078358 0.952699 0.251376
H171  H     H_    0.757853 0.069130 0.818023 0.217383
H172  H     H_    0.706866 0.098216 0.868809 0.203475
C197  C     C_3   0.861803 0.443173 0.229194 -0.408822
C198  C     C_3   0.863435 0.395264 0.205629 -0.824682
H173  H     H_    0.829472 0.382630 0.231523 0.247334
H174  H     H_    0.882972 0.392384 0.141937 0.272408
H175  H     H_    0.879276 0.374614 0.226293 0.237898
H176  H     H_    0.895579 0.454311 0.207821 0.208732
H177  H     H_    0.842103 0.445117 0.293101 0.190456
C199  C     C_3   0.138197 0.443173 0.770807 -0.408820
C200  C     C_3   0.136565 0.395263 0.794373 -0.824682
H178  H     H_    0.120724 0.374613 0.773709 0.237897
H179  H     H_    0.170528 0.382629 0.768480 0.247334
H180  H     H_    0.117028 0.392384 0.858065 0.272408
H181  H     H_    0.104421 0.454310 0.792179 0.208732
H182  H     H_    0.157897 0.445115 0.706900 0.190456
C201  C     C_3   0.361803 0.943174 0.229194 -0.408823
C202  C     C_3   0.363435 0.895264 0.205631 -0.824684
H183  H     H_    0.379276 0.874615 0.226295 0.237898
H184  H     H_    0.329472 0.882630 0.231524 0.247334
H185  H     H_    0.382972 0.892384 0.141939 0.272409
H186  H     H_    0.395579 0.954312 0.207822 0.208732
H187  H     H_    0.342103 0.945118 0.293102 0.190456
C203  C     C_3   0.638197 0.943173 0.770806 -0.408822
C204  C     C_3   0.636565 0.895263 0.794372 -0.824684
H188  H     H_    0.620724 0.874614 0.773708 0.237898
H189  H     H_    0.670528 0.882629 0.768478 0.247334
H190  H     H_    0.617028 0.892384 0.858063 0.272409
H191  H     H_    0.604421 0.954311 0.792179 0.208732
H192  H     H_    0.657897 0.945116 0.706899 0.190457

loop_
_geom_bond_atom_site_label_1
_geom_bond_atom_site_label_2
_ccdc_geom_bond_type
C24   C195  S    
C177  H121  S    
C55   C59   A    
C108  C120  A    
C74   C83   A    
O31   Zn7   S    
C172  H106  S    
C121  C169  S    
O25   Zn3   S    
C200  H178  S    
C199  C200  S    
C156  H68   S    
C8    C180  S    
C136  H40   S    
C16   C144  S    
C60   C98   S    
C76   C131  S    
C29   C33   A    
C143  C155  S    
C154  H62   S    
C5    C149  S    
C152  H48   S    
C117  C132  A    
C142  C146  S    
C77   C122  A    
C146  C150  S    
C11   C15   S    
C6    C178  S    
C12   C16   S    
C169  H104  S    
C91   C100  A    
C140  C152  S    
C104  O15   A    
C141  C145  S    
C180  H132  S    
O48   Zn12  S    
C49   C69   A    
C159  H77   S    
C26   H54   S    
C51   C71   A    
C73   C81   A    
C196  H170  S    
C47   O27   A    
C25   C29   A    
C178  H126  S    
C170  H101  S    
C108  H32   S    
C27   C31   A    
O11   Zn12  S    
C28   C32   A    
C15   C185  S    
O17   Zn3   S    
C35   C201  S    
O7    Zn11  S    
C30   C34   A    
C93   O46   A    
C126  C129  A    
C1    O1    A    
C34   C199  S    
C82   C134  A    
C166  H94   S    
C6    C10   S    
C52   C72   A    
C127  H43   S    
O1    Zn1   S    
C203  H191  S    
C125  H41   S    
C86   O34   A    
C1    C29   S    
C163  C164  S    
C88   C148  S    
C3    C31   S    
C10   H50   S    
C189  H157  S    
O38   Zn5   S    
C87   C147  S    
C143  C147  S    
C177  H123  S    
C7    C19   S    
C153  H58   S    
C184  H138  S    
C28   H56   S    
C185  C186  S    
C107  C120  A    
C172  H108  S    
C174  H112  S    
C162  H79   S    
C2    O18   A    
C41   C69   S    
C200  H180  S    
O46   Zn10  S    
C43   C71   S    
C158  H71   S    
C23   C43   A    
C171  C172  S    
C57   C61   A    
C33   C197  S    
C56   H12   S    
C59   C63   A    
C60   C64   A    
C67   H19   S    
C194  H163  S    
C74   C90   S    
C50   C70   A    
C55   H11   S    
C179  H127  S    
C103  O13   A    
C158  H70   S    
C66   C70   A    
C49   C53   A    
C95   O9    A    
C44   C72   S    
C51   C55   A    
C175  C176  S    
C198  H174  S    
C12   C148  S    
O13   Zn9   S    
C187  C188  S    
C61   C65   A    
C19   C139  S    
O9    Zn10  S    
C144  C156  S    
C17   C137  S    
C192  H158  S    
O43   Zn7   S    
C183  C184  S    
C21   C189  S    
C52   H8    S    
C14   C142  S    
C102  H28   S    
C110  C166  S    
C176  H116  S    
C100  H26   S    
C112  C114  A    
C189  C190  S    
C75   C134  A    
C96   O6    A    
C197  C198  S    
C50   H6    S    
O2    Zn1   S    
C5    C9    S    
C171  H109  S    
C64   C68   A    
C8    C152  S    
C17   C45   S    
O14   Zn10  S    
C19   C47   S    
C165  H90   S    
O5    Zn9   S    
C42   C70   S    
C18   C138  S    
C168  H99   S    
C182  H133  S    
O42   Zn6   S    
C171  H110  S    
C139  C143  S    
O27   Zn4   S    
C184  H140  S    
C13   C181  S    
C161  H82   S    
C162  H81   S    
C204  H190  S    
C117  H23   S    
C63   H15   S    
C118  H24   S    
C195  H171  S    
C155  H63   S    
C201  H187  S    
C85   O37   A    
C49   H5    S    
O35   Zn7   S    
O32   Zn8   S    
C76   C135  A    
C182  H134  S    
C3    O3    A    
C16   C187  S    
O28   Zn4   S    
C62   C66   A    
O29   Zn5   S    
C194  H165  S    
C10   C14   S    
C179  H129  S    
C161  H83   S    
C39   H3    S    
C202  H183  S    
C182  H135  S    
C147  C151  S    
C63   C67   A    
C121  C125  A    
C160  H74   S    
C125  C129  A    
C88   O40   A    
C123  C127  A    
O22   Zn1   S    
C8    C12   S    
C167  H97   S    
O34   Zn6   S    
C183  H142  S    
C192  H160  S    
C78   C123  A    
C142  C154  S    
C199  H182  S    
O19   Zn4   S    
C10   C146  S    
C15   C143  S    
C62   H14   S    
C26   C30   A    
C141  C153  S    
C79   C113  S    
C97   O7    A    
C195  C196  S    
C81   C157  S    
C98   O12   A    
C75   C132  S    
C190  H153  S    
C21   C25   A    
C191  H161  S    
C107  C111  A    
C148  C152  S    
C74   C84   A    
O16   Zn12  S    
O20   Zn4   S    
C81   C133  A    
C92   C102  A    
C156  H67   S    
C90   O43   A    
C157  H73   S    
C163  H87   S    
C13   C17   S    
C2    C30   S    
C164  H86   S    
C193  H167  S    
C181  H137  S    
C115  H21   S    
C94   O47   A    
C84   C163  S    
O47   Zn11  S    
C175  H119  S    
C186  H145  S    
C95   O5    A    
C139  C151  S    
C154  H61   S    
C61   H13   S    
C12   H52   S    
C37   C41   A    
C22   C191  S    
C118  C132  A    
C199  H181  S    
O44   Zn8   S    
C204  H188  S    
C112  C168  S    
C40   C44   A    
C174  H111  S    
C155  H65   S    
C38   H2    S    
O33   Zn5   S    
C79   O30   A    
C105  H29   S    
O12   Zn11  S    
C104  O16   A    
C7    C179  S    
C180  H131  S    
C83   C161  S    
C58   C62   A    
C106  C119  A    
C159  H78   S    
C100  C116  A    
C77   C120  S    
C196  H169  S    
C15   C19   S    
C178  H125  S    
C50   C54   A    
C89   O41   A    
C202  H185  S    
C80   O31   A    
C138  H34   S    
C45   O25   A    
C160  H76   S    
C187  H151  S    
C99   C115  A    
C188  H150  S    
C93   O45   A    
C5    C17   S    
C197  H177  S    
C86   C146  S    
C9    C13   S    
C122  C171  S    
C166  H93   S    
C105  C109  A    
C203  H192  S    
C162  H80   S    
C170  H103  S    
O36   Zn8   S    
C13   C141  S    
C189  H156  S    
C124  C128  A    
C32   C36   A    
C177  H122  S    
C104  C130  S    
C153  H57   S    
C46   O22   A    
C25   H53   S    
C18   C46   S    
C172  H107  S    
C124  C175  S    
C137  H33   S    
C200  H179  S    
O26   Zn3   S    
C36   C203  S    
C176  H118  S    
O6    Zn10  S    
C164  H84   S    
C140  H36   S    
C24   C28   A    
C138  C142  S    
C53   C57   A    
C33   C37   A    
C108  C112  A    
C65   H17   S    
C68   C72   A    
C194  H164  S    
C35   C39   A    
C161  C162  S    
C157  C158  S    
C37   H1    S    
C91   C93   S    
C126  H42   S    
C174  H113  S    
C85   O33   A    
C169  H105  S    
C11   H51   S    
C103  C129  S    
C198  H175  S    
C135  H39   S    
C201  H186  S    
C20   C48   S    
C9    H49   S    
C92   C101  A    
C7    C151  S    
C24   C44   A    
C31   C35   A    
O30   Zn6   S    
C3    O19   A    
C73   C82   A    
C1    O17   A    
C137  C141  S    
C84   C136  A    
C89   O42   A    
C109  C165  S    
C140  C144  S    
C85   C145  S    
C128  C130  A    
C88   O36   A    
C188  H148  S    
C75   C133  A    
C99   H25   S    
C167  H95   S    
C116  H22   S    
C101  C117  A    
C20   C140  S    
C78   C119  S    
C73   C89   S    
C64   H16   S    
C68   H20   S    
C80   O32   A    
C165  H89   S    
C65   C69   A    
C173  H115  S    
C9    C145  S    
C111  C114  A    
C67   C71   A    
C4    O20   A    
C168  H98   S    
C5    C177  S    
C6    C150  S    
C56   C60   A    
C191  C192  S    
O3    Zn2   S    
C186  H144  S    
C22   C26   A    
C153  H59   S    
C184  H139  S    
C193  H166  S    
C105  C119  A    
C150  H46   S    
C145  C149  S    
C204  H189  S    
O21   Zn1   S    
C173  C174  S    
C195  H172  S    
C169  C170  S    
C14   C18   S    
C144  C148  S    
C76   C136  A    
C87   O39   A    
C115  C131  A    
C138  C150  S    
C7    C11   S    
C8    C20   S    
C185  H147  S    
C159  C160  S    
O24   Zn2   S    
C38   C42   A    
C179  H128  S    
C103  O14   A    
C158  H69   S    
C47   O23   A    
O10   Zn9   S    
C202  H184  S    
O4    Zn2   S    
C58   C96   S    
C198  H173  S    
C106  H30   S    
O8    Zn12  S    
C167  H96   S    
C97   O11   A    
C23   C27   A    
C192  H159  S    
C78   C124  A    
O15   Zn11  S    
O39   Zn8   S    
C102  C118  A    
C16   C20   S    
O40   Zn7   S    
C203  C204  S    
C86   O38   A    
C173  H114  S    
C137  C149  S    
C45   O21   A    
C111  C167  S    
C139  H35   S    
O37   Zn6   S    
C92   C94   S    
C190  H154  S    
C6    C18   S    
O23   Zn2   S    
C191  H162  S    
C2    O2    A    
C151  H47   S    
C36   C40   A    
C77   C121  A    
C185  H146  S    
C196  H168  S    
C186  H143  S    
C165  H91   S    
C39   C43   A    
O45   Zn9   S    
C156  H66   S    
C90   O44   A    
C157  H72   S    
C11   C147  S    
C163  H88   S    
C107  H31   S    
C164  H85   S    
C122  C126  A    
C168  H100  S    
C181  H136  S    
C176  H117  S    
C101  H27   S    
C94   O48   A    
C190  H155  S    
C87   O35   A    
C193  C194  S    
C175  H120  S    
C46   O26   A    
C154  H60   S    
C170  H102  S    
C4    C32   S    
C54   H10   S    
C109  C113  A    
C110  C113  A    
C48   O28   A    
C82   C159  S    
C80   C114  S    
C155  H64   S    
C57   C95   S    
C59   C97   S    
C21   C41   A    
C79   O29   A    
C180  H130  S    
C54   C58   A    
C98   O8    A    
C34   C38   A    
C83   C135  A    
C66   H18   S    
C128  H44   S    
C23   C193  S    
O18   Zn3   S    
C123  C173  S    
C178  H124  S    
C4    O4    A    
C91   C99   A    
C134  H38   S    
C127  C130  A    
C201  C202  S    
C160  H75   S    
C187  H152  S    
C181  C182  S    
C188  H149  S    
C53   H9    S    
C22   C42   A    
C116  C131  A    
C197  H176  S    
C96   O10   A    
C51   H7    S    
C183  H141  S    
C27   H55   S    
C166  H92   S    
C14   C183  S    
C48   O24   A    
C106  C110  A    
C133  H37   S    
C40   H4    S    
O41   Zn5   S    
C52   C56   A    
C149  H45   S    
