data_mof_unit_40897.cif
_audit_creation_date              2013-03-05T15:58:06-0500
_audit_creation_method            fapswitch 2.2
_symmetry_space_group_name_H-M    P1
_symmetry_Int_Tables_number       1
_space_group_crystal_system       triclinic
_cell_length_a                    15.08674
_cell_length_b                    13.70064
_cell_length_c                    10.761322
_cell_angle_alpha                 90.266546
_cell_angle_beta                  89.804629
_cell_angle_gamma                 89.930815
_cell_volume                      2224.30499946

loop_
_atom_site_label
_atom_site_type_symbol
_atom_site_description
_atom_site_fract_x
_atom_site_fract_y
_atom_site_fract_z
_atom_type_partial_charge
O1    O     O_R   0.370250 0.582280 0.500040 -0.578003
O2    O     O_R   0.370250 0.417720 0.500040 -0.597604
C1    C     C_R   0.328478 0.500111 0.499743 0.829050
O3    O     O_R   0.499970 0.582270 0.317700 -0.538902
O4    O     O_R   0.499970 0.417730 0.317700 -0.564952
C2    C     C_R   0.500253 0.499657 0.259623 0.804199
Cu1   Cu    Cu3+1 0.499990 0.597420 0.500010 0.992614
Cu2   Cu    Cu3+1 0.499990 0.402580 0.500010 0.981306
O5    O     O_R   0.629730 0.582260 0.499980 -0.606472
O6    O     O_R   0.629730 0.417740 0.499980 -0.588740
O7    O     O_R   0.500000 0.582270 0.682320 -0.587989
O8    O     O_R   0.500000 0.417730 0.682320 -0.593550
C3    C     C_R   0.671473 0.499973 0.499360 0.820990
C4    C     C_R   0.500022 0.500057 0.740216 0.798365
C5    C     C_3   0.410656 0.542663 0.071525 0.146865
C6    C     C_3   0.506184 0.391731 0.068786 0.179762
H1    H     H_    0.356597 0.491290 0.098066 0.094216
H2    H     H_    0.445255 0.352256 0.099189 0.116073
C7    C     C_3   0.413092 0.547001 0.927465 -0.409910
C8    C     C_3   0.505421 0.393226 0.926138 -0.400200
H3    H     H_    0.354621 0.507634 0.889236 0.146512
H4    H     H_    0.447512 0.350350 0.892362 0.169154
H5    H     H_    0.408404 0.623588 0.894153 0.240957
H6    H     H_    0.565856 0.357100 0.887824 0.224657
H7    H     H_    0.574705 0.637010 0.103536 0.238329
H8    H     H_    0.643125 0.533705 0.108141 0.205831
H9    H     H_    0.579201 0.633792 0.892123 0.205550
H10   H     H_    0.643051 0.523263 0.894738 0.185104
C9    C     C_3   0.579056 0.560218 0.071035 -0.310079
C10   C     C_3   0.500088 0.499039 0.121566 -0.115711
C11   C     C_3   0.499677 0.499666 0.877770 0.003679
C12   C     C_3   0.580347 0.557679 0.927807 -0.354200
C13   C     C_R   0.815079 0.412010 0.505236 -0.184185
C14   C     C_R   0.768239 0.500181 0.498286 -0.077984
C15   C     C_R   0.814088 0.588870 0.490587 -0.214204
C16   C     C_R   0.906443 0.590136 0.490722 0.065842
C17   C     C_R   0.953524 0.501744 0.498624 0.067079
C18   C     C_R   0.907446 0.412157 0.505554 0.097197
C19   C     C_R   0.951827 0.678767 0.484031 -0.161407
C20   C     C_R   0.044787 0.681910 0.485846 -0.043612
C21   C     C_R   0.092915 0.592612 0.492688 0.015231
C22   C     C_R   0.046490 0.502685 0.499566 0.069413
C23   C     C_R   0.092876 0.413091 0.507089 0.102194
C24   C     C_R   0.046539 0.324663 0.513873 -0.159791
C25   C     C_R   0.954324 0.324191 0.513066 -0.160155
C26   C     C_R   0.185881 0.589600 0.491104 -0.189255
C27   C     C_R   0.231604 0.500756 0.499522 -0.070639
C28   C     C_R   0.185000 0.412941 0.507584 -0.208412
H11   H     H_    0.779807 0.343262 0.511078 0.190017
H12   H     H_    0.777975 0.657184 0.484682 0.155360
H13   H     H_    0.914136 0.746106 0.479191 0.183009
H14   H     H_    0.224159 0.655484 0.481652 0.157326
H15   H     H_    0.220379 0.344203 0.513870 0.188720
H16   H     H_    0.081696 0.255803 0.519666 0.198917
H17   H     H_    0.919662 0.255078 0.518336 0.189363
C29   C     C_R   0.436831 0.793504 0.565062 0.100860
C30   C     C_R   0.436608 0.207112 0.564604 0.078594
N1    N     N_R   0.499930 0.743810 0.499950 -0.210219
N2    N     N_R   0.499930 0.256190 0.499950 -0.222521
C31   C     C_R   0.563389 0.792229 0.434701 0.087505
C32   C     C_R   0.565133 0.207087 0.438314 0.118301
C33   C     C_R   0.565514 0.895704 0.430954 0.021378
C34   C     C_R   0.568628 0.103587 0.437128 0.016004
C35   C     C_R   0.501006 0.948179 0.499952 0.026163
C36   C     C_R   0.501382 0.051762 0.500673 0.019469
C37   C     C_R   0.435935 0.896706 0.568398 -0.154802
C38   C     C_R   0.434751 0.103912 0.565999 -0.152975
C39   C     C_R   0.631660 0.947531 0.363886 -0.066486
C40   C     C_R   0.635604 0.051088 0.371676 -0.072174
C41   C     C_R   0.369360 0.052270 0.633406 0.263686
C42   C     C_R   0.370875 0.949089 0.636527 0.250310
H18   H     H_    0.387262 0.751715 0.614073 0.165213
H19   H     H_    0.388191 0.249350 0.615939 0.171559
H20   H     H_    0.612694 0.748814 0.387177 0.165655
H21   H     H_    0.613474 0.250033 0.389068 0.205248
N3    N     N_R   0.388309 0.638514 0.125304 0.163692
O9    O     O_R   0.431873 0.716752 0.094530 -0.306143
O10   O     O_R   0.320067 0.646810 0.198904 -0.341278
N4    N     N_R   0.582921 0.335786 0.113421 0.147218
O11   O     O_R   0.663525 0.361872 0.086075 -0.365473
O12   O     O_R   0.569925 0.249013 0.158354 -0.373590
C43   C     C_2   0.088456 0.779484 0.483105 0.468531
H22   H     H_    0.157110 0.789050 0.508674 0.097450
O13   O     O_2   0.046974 0.852322 0.453388 -0.501226
C44   C     C_2   0.698873 0.894907 0.287160 0.303283
H23   H     H_    0.768268 0.915133 0.292951 0.096255
O14   O     O_2   0.676733 0.832289 0.212396 -0.522198
C45   C     C_2   0.709530 0.102930 0.308170 0.400800
H24   H     H_    0.728780 0.082110 0.214468 0.116315
O15   O     O_2   0.752325 0.165588 0.362167 -0.557122
N5    N     N_R   0.302357 0.104191 0.701960 0.140688
O16   O     O_R   0.294569 0.091946 0.821313 -0.270708
O17   O     O_R   0.244478 0.157386 0.643719 -0.372452
N6    N     N_R   0.305310 0.898083 0.708237 0.130227
O18   O     O_R   0.221424 0.915275 0.691011 -0.290268
O19   O     O_R   0.329503 0.842282 0.799612 -0.321700

loop_
_geom_bond_atom_site_label_1
_geom_bond_atom_site_label_2
_geom_bond_distance
_ccdc_geom_bond_type
C19   H13   1.084718 S    
C34   C36   1.415117 A    
C21   C22   1.420063 A    
C15   C16   1.393464 A    
C4    C11   1.480292 S    
C7    C11   1.550135 S    
Cu1   Cu2   2.669431 S    
C42   N6    1.436591 S    
C44   H23   1.085245 S    
C32   H21   1.077140 S    
Cu1   O7    1.973807 S    
C31   H20   1.078042 S    
C17   C18   1.413476 A    
C16   C17   1.406284 A    
C7    H3    1.113499 S    
N3    O10   1.301355 A    
C9    C12   1.541612 S    
Cu2   N2    2.005635 S    
C34   C40   1.422370 A    
O4    C2    1.287268 A    
O7    C4    1.289739 A    
C30   N2    1.360224 A    
C13   H11   1.084345 S    
C26   H14   1.077193 S    
C31   C33   1.418823 A    
C14   C15   1.401565 A    
C30   H19   1.080222 S    
C17   C22   1.402693 A    
C32   C34   1.418931 A    
O5    C3    1.290664 A    
C18   C25   1.399443 A    
C33   C35   1.415547 A    
C5    C7    1.552001 S    
C41   N5    1.435411 S    
C39   C40   1.422207 A    
C29   H18   1.079986 S    
C21   C26   1.403143 A    
C41   C42   1.414362 A    
C23   C28   1.389872 A    
Cu1   N1    2.005639 S    
C6    C8    1.535395 S    
C5    N3    1.470942 S    
C39   C44   1.488894 S    
C30   C38   1.414367 A    
O3    Cu1   1.971887 S    
C44   O14   1.221060 D    
H7    C9    1.108959 S    
C28   H15   1.084438 S    
N2    C32   1.360144 A    
C27   C28   1.397126 A    
C20   C43   1.491438 S    
H10   C12   1.113088 S    
N3    O9    1.301592 A    
O3    C2    1.290380 A    
N5    O16   1.301020 A    
N4    O12   1.300340 A    
C36   C38   1.415625 A    
C16   C19   1.396777 A    
O1    C1    1.290813 A    
C35   C37   1.416032 A    
C7    H5    1.112657 S    
C23   C24   1.401555 A    
C9    C10   1.555601 S    
C24   H16   1.083893 S    
N5    O17   1.301106 A    
C37   C42   1.415809 A    
Cu2   O8    1.971886 S    
C15   H12   1.084630 S    
C13   C14   1.401211 A    
N6    O19   1.301289 A    
C40   C45   1.488838 S    
Cu2   O6    1.968593 S    
C20   C21   1.424263 A    
C2    C10   1.485668 S    
C45   O15   1.220948 D    
C43   O13   1.221723 D    
C22   C23   1.415024 A    
C6    C10   1.576088 S    
C19   C20   1.403373 A    
C24   C25   1.391300 A    
C5    C10   1.572784 S    
C5    H1    1.115264 S    
C26   C27   1.401833 A    
H9    C12   1.113071 S    
O1    Cu1   1.968562 S    
C11   C12   1.551023 S    
O2    Cu2   1.968063 S    
C8    H4    1.114396 S    
O6    C3    1.291409 A    
O4    Cu2   1.973807 S    
C13   C18   1.393532 A    
C33   C39   1.422159 A    
C38   C41   1.414795 A    
C35   C36   1.419160 A    
C6    N4    1.470913 S    
O2    C1    1.292174 A    
O8    C4    1.286025 A    
C3    C14   1.459896 S    
C29   C37   1.414279 A    
C1    C27   1.461539 S    
C29   N1    1.360209 A    
N6    O18   1.301069 A    
N4    O11   1.301047 A    
Cu1   O5    1.968094 S    
C45   H24   1.085178 S    
C25   H17   1.083875 S    
H8    C9    1.108514 S    
C6    H2    1.115934 S    
C43   H22   1.080576 S    
N1    C31   1.360510 A    
C8    H6    1.113883 S    
C8    C11   1.553104 S    
