data_mof_unit_11228.cif
_audit_creation_date              2013-03-05T15:46:52-0500
_audit_creation_method            fapswitch 2.2
_symmetry_space_group_name_H-M    P1
_symmetry_Int_Tables_number       1
_space_group_crystal_system       triclinic
_cell_length_a                    15.033011
_cell_length_b                    15.067658
_cell_length_c                    15.027046
_cell_angle_alpha                 109.039489
_cell_angle_beta                  109.771729
_cell_angle_gamma                 110.034286
_cell_volume                      2606.03848005

loop_
_atom_site_label
_atom_site_type_symbol
_atom_site_description
_atom_site_fract_x
_atom_site_fract_y
_atom_site_fract_z
_atom_type_partial_charge
C1    C     C_R   0.197789 0.998959 0.908141 -0.137103
C2    C     C_R   0.748733 0.935906 0.027514 -0.160777
H1    H     H_    0.169846 0.028004 0.853513 0.147164
H2    H     H_    0.764685 0.887467 0.063228 0.165495
N1    N     N_R   0.293810 0.002730 0.945950 -0.072489
N2    N     N_R   0.706190 0.997270 0.054050 -0.077051
C3    C     C_R   0.803181 0.210036 0.300857 -0.080483
C4    C     C_R   0.249859 0.777318 0.685957 -0.084907
H3    H     H_    0.830476 0.178008 0.352428 0.092426
H4    H     H_    0.237429 0.798357 0.622593 0.132722
N3    N     N_R   0.706160 0.152130 0.208910 -0.049922
N4    N     N_R   0.293840 0.847870 0.791090 -0.060076
C5    C     C_R   0.408479 0.981753 0.218309 -0.042617
C6    C     C_R   0.590389 0.082624 0.784839 -0.036319
H5    H     H_    0.323986 0.954310 0.196251 0.156211
H6    H     H_    0.672912 0.139585 0.810360 0.171770
N5    N     N_R   0.443140 0.945920 0.152090 -0.043440
N6    N     N_R   0.556860 0.054080 0.847910 -0.066582
C7    C     C_R   0.591265 0.314827 0.060182 -0.041001
C8    C     C_R   0.408339 0.702189 0.004917 -0.092610
H7    H     H_    0.675500 0.380926 0.105794 0.134883
H8    H     H_    0.324370 0.650979 0.981828 0.155559
N7    N     N_R   0.556830 0.208940 0.002760 -0.049108
N8    N     N_R   0.443170 0.791060 0.997240 -0.046544
C9    C     C_R   0.591417 0.065495 0.314009 -0.059626
C10   C     C_R   0.407527 0.992974 0.695610 -0.059396
H9    H     H_    0.675652 0.111963 0.380080 0.120120
H10   H     H_    0.323864 0.968104 0.641408 0.112220
N9    N     N_R   0.556790 0.002750 0.208910 -0.066257
N10   N     N_R   0.443210 0.997250 0.791090 -0.060608
C11   C     C_R   0.408400 0.218535 0.979159 -0.093735
C12   C     C_R   0.590875 0.790217 0.091987 -0.076192
H11   H     H_    0.324536 0.194779 0.955741 0.134616
H12   H     H_    0.675668 0.818502 0.144850 0.103929
N11   N     N_R   0.443180 0.152110 0.945950 -0.055810
N12   N     N_R   0.556820 0.847890 0.054050 -0.052189
C13   C     C_R   0.803138 0.301111 0.210080 -0.091975
C14   C     C_R   0.251056 0.686229 0.777936 -0.059998
H13   H     H_    0.830365 0.353064 0.178256 0.136294
H14   H     H_    0.241230 0.623788 0.800203 0.103954
N13   N     N_R   0.706170 0.208950 0.152090 -0.050419
N14   N     N_R   0.293830 0.791050 0.847910 -0.047021
C15   C     C_R   0.196320 0.904806 0.995369 0.333304
C16   C     C_R   0.757461 0.034453 0.943046 0.324107
N15   N     N_R   0.293800 0.945910 0.002760 -0.093430
N16   N     N_R   0.706200 0.054090 0.997240 -0.095868
C17   C     C_R   0.137034 0.939611 0.939630 -0.007065
C18   C     C_R   0.780347 0.956696 0.956958 0.037460
C19   C     C_R   0.866572 0.303622 0.303518 0.054757
C20   C     C_R   0.224169 0.675119 0.675280 0.041411
C21   C     C_R   0.498530 0.052894 0.321332 0.155322
C22   C     C_R   0.498039 0.041310 0.688022 0.148174
C23   C     C_R   0.497694 0.321953 0.043709 0.054604
C24   C     C_R   0.498776 0.698677 0.062812 0.057003
Ni1   Ni    Ni4+2 0.369690 0.999990 0.869700 0.228005
Ni2   Ni    Ni4+2 0.630310 0.000010 0.130300 0.223059
Ni3   Ni    Ni4+2 0.369670 0.869670 0.000000 0.314320
Ni4   Ni    Ni4+2 0.630330 0.130330 0.000000 0.291289
H15   H     H_    0.097918 0.035408 0.600905 0.227565
H16   H     H_    0.916757 0.011961 0.482807 0.210035
C25   C     C_R   0.263798 0.168570 0.693825 -0.236969
C26   C     C_R   0.745968 0.898286 0.410130 -0.201094
H17   H     H_    0.283597 0.132578 0.633669 0.205637
H18   H     H_    0.735682 0.956267 0.464818 0.212557
C27   C     C_R   0.343957 0.268707 0.789788 0.352476
C28   C     C_R   0.656401 0.793322 0.329476 0.348496
C29   C     C_R   0.316352 0.312298 0.868582 -0.320302
C30   C     C_R   0.671904 0.719653 0.257672 -0.307507
C31   C     C_R   0.206663 0.258377 0.845905 0.193998
C32   C     C_R   0.778406 0.751330 0.271739 0.206383
C33   C     C_R   0.128060 0.158329 0.748415 0.399742
C34   C     C_R   0.866590 0.856964 0.353900 0.421565
C35   C     C_R   0.157556 0.113696 0.674137 -0.307452
C36   C     C_R   0.849544 0.929833 0.421532 -0.288050
C37   C     C_R   0.403300 0.506027 0.989071 -0.105021
C38   C     C_R   0.572415 0.517356 0.153693 -0.106706
H19   H     H_    0.339501 0.500045 0.921738 0.117942
H20   H     H_    0.637471 0.520646 0.217323 0.140626
C39   C     C_R   0.492317 0.606753 0.076541 0.074727
C40   C     C_R   0.488811 0.417532 0.059755 0.069548
C41   C     C_R   0.576514 0.613690 0.162376 0.193145
C42   C     C_R   0.402392 0.411811 0.976604 0.200701
C43   C     C_R   0.034241 0.478937 0.380162 -0.100372
C44   C     C_R   0.125296 0.473337 0.572267 -0.108825
H21   H     H_    0.000088 0.484332 0.307591 0.160179
H22   H     H_    0.157643 0.469019 0.645836 0.123644
C45   C     C_R   0.125984 0.571901 0.473272 -0.071344
C46   C     C_R   0.033616 0.380297 0.479188 -0.106929
H23   H     H_    0.158972 0.645241 0.468799 0.179799
H24   H     H_    0.998983 0.307934 0.484758 0.125811
C47   C     C_R   0.163908 0.572364 0.572532 0.103196
C48   C     C_R   0.981291 0.385988 0.385981 0.094358
C49   C     C_R   0.572458 0.147499 0.611177 -0.176014
C50   C     C_R   0.407015 0.974482 0.403037 -0.165913
H25   H     H_    0.634056 0.215289 0.692926 0.210153
H26   H     H_    0.346078 0.903033 0.323407 0.199454
C51   C     C_R   0.571216 0.156452 0.521462 0.340046
C52   C     C_R   0.411143 0.963718 0.490874 0.373323
C53   C     C_R   0.489467 0.066785 0.416776 -0.092200
C54   C     C_R   0.494339 0.051106 0.595597 -0.112755
C55   C     C_R   0.943551 0.880456 0.844370 -0.199158
C56   C     C_R   0.967527 0.003816 0.045218 -0.233712
H27   H     H_    0.935910 0.833261 0.767375 0.187636
H28   H     H_    0.976882 0.053704 0.122363 0.188485
C57   C     C_R   0.853043 0.881474 0.847543 0.575593
C58   C     C_R   0.057252 0.003291 0.042348 0.545322
C59   C     C_R   0.866585 0.943652 0.948635 -0.086318
C60   C     C_R   0.044209 0.940736 0.941573 -0.054406
N17   N     N_R   0.452865 0.323365 0.807056 0.251098
O1    O     O_R   0.511161 0.429333 0.858423 -0.332937
O2    O     O_R   0.490059 0.267377 0.761853 -0.406112
N18   N     N_R   0.550865 0.763391 0.321173 0.257069
O3    O     O_R   0.483583 0.663793 0.291588 -0.306085
O4    O     O_R   0.526334 0.838044 0.354414 -0.394946
N19   N     N_R   0.176670 0.301896 0.923919 0.268723
O5    O     O_R   0.233494 0.328802 0.025263 -0.330748
O6    O     O_R   0.090809 0.312584 0.893335 -0.254056
N20   N     N_R   0.795750 0.679307 0.198587 0.260702
O7    O     O_R   0.738843 0.639343 0.093734 -0.330286
O8    O     O_R   0.870887 0.656054 0.236872 -0.311685
Cl1   Cl    Cl    0.994026 0.082026 0.721251 -0.545343
Cl2   Cl    Cl    0.997706 0.903262 0.367801 -0.550007
N21   N     N_R   0.652184 0.254997 0.537451 0.241470
O9    O     O_R   0.629550 0.285183 0.464774 -0.354442
O10   O     O_R   0.745250 0.320385 0.629294 -0.328682
N22   N     N_R   0.337788 0.859382 0.471586 0.227214
O11   O     O_R   0.234399 0.806375 0.397089 -0.337035
O12   O     O_R   0.377168 0.809519 0.514627 -0.350105
Cl3   Cl    Cl    0.725559 0.806597 0.725457 -0.502036
Cl4   Cl    Cl    0.185013 0.085501 0.165612 -0.573248
N23   N     N_R   0.150852 0.813104 0.009437 0.232823
O13   O     O_R   0.054479 0.776776 0.000416 -0.314611
O14   O     O_R   0.202101 0.760205 0.023167 -0.397949
N24   N     N_R   0.816492 0.110965 0.918531 0.225279
O15   O     O_R   0.850615 0.213896 0.975571 -0.372632
O16   O     O_R   0.843923 0.080222 0.845615 -0.292084

loop_
_geom_bond_atom_site_label_1
_geom_bond_atom_site_label_2
_geom_bond_distance
_ccdc_geom_bond_type
N7    Ni4   1.876488 S    
C43   C45   1.383477 A    
N22   O11   1.302218 A    
C45   C47   1.401818 A    
C34   C36   1.394630 A    
N5    N9    1.383805 A    
C6    N6    1.333391 A    
C28   C30   1.420092 A    
N18   O4    1.301159 A    
N21   O9    1.301582 A    
C3    N3    1.332580 A    
C43   C48   1.402105 A    
C57   C59   1.399439 A    
N15   Ni3   1.876397 S    
N8    N12   1.383807 A    
C37   C39   1.392393 A    
C1    N1    1.333256 A    
C30   C41   1.485423 S    
C12   N12   1.331472 A    
C7    H7    1.080998 S    
C38   H20   1.084607 S    
N13   Ni4   1.863290 S    
C14   N14   1.332983 A    
N17   O2    1.300755 A    
C56   H28   1.085097 S    
N21   O10   1.301880 A    
C18   C59   1.415335 S    
C50   C52   1.365108 A    
N19   O5    1.301188 A    
C9    N9    1.338465 A    
C25   H17   1.082873 S    
C31   C33   1.407996 A    
N20   O7    1.301219 A    
C26   H18   1.082875 S    
C5    C21   1.372407 A    
N6    Ni4   1.863555 S    
C6    C22   1.371863 A    
C46   C48   1.402506 A    
N8    Ni3   1.876486 S    
C27   C29   1.420347 A    
N4    N14   1.392464 A    
C11   H11   1.072317 S    
N3    N13   1.392464 A    
N6    N10   1.383805 A    
C44   C47   1.401575 A    
H15   C35   1.080396 S    
C30   C32   1.420369 A    
C7    C23   1.391664 A    
C55   C60   1.394862 A    
C55   H27   1.083907 S    
N16   Ni4   1.876396 S    
C16   N24   1.431629 S    
C2    N2    1.326680 A    
N1    Ni1   1.871221 S    
N14   Ni3   1.863292 S    
C12   C24   1.377654 A    
N18   O3    1.301264 A    
C51   C53   1.406448 A    
C16   N16   1.329729 A    
C21   C53   1.440598 S    
C55   C57   1.382571 A    
C26   C28   1.403384 A    
N11   Ni1   1.866059 S    
C8    N8    1.319790 A    
C23   C40   1.441168 S    
C3    C19   1.383792 A    
C8    C24   1.373745 A    
C39   C41   1.411941 A    
C7    N7    1.338570 A    
C1    C17   1.366220 A    
C57   Cl3   1.760925 S    
C25   C35   1.392103 A    
N1    N15   1.392343 A    
C22   C54   1.428624 S    
C1    H1    1.081179 S    
C12   H12   1.076729 S    
C2    H2    1.080111 S    
C9    C21   1.390666 A    
N12   Ni2   1.866059 S    
C10   C22   1.369309 A    
C13   C19   1.384573 A    
C4    N4    1.333833 A    
C56   C59   1.392827 A    
C11   C23   1.367750 A    
C50   H26   1.082694 S    
C15   N15   1.329112 A    
C37   H19   1.084663 S    
C49   C54   1.402479 A    
C27   N17   1.440616 S    
C28   N18   1.440529 S    
C51   N21   1.440520 S    
C40   C42   1.418188 A    
C43   H21   1.080321 S    
C46   H24   1.080277 S    
C10   N10   1.321292 A    
N7    N11   1.383805 A    
C5    H5    1.077084 S    
C6    H6    1.075439 S    
C38   C40   1.397785 A    
C8    H8    1.082061 S    
C19   C48   1.460923 S    
N23   O13   1.300889 A    
C49   C51   1.392619 A    
C33   C35   1.394317 A    
C24   C39   1.441620 S    
C58   Cl4   1.766430 S    
N19   O6    1.300986 A    
C31   N19   1.437448 S    
N22   O12   1.302311 A    
N2    N16   1.392343 A    
C34   Cl2   1.760584 S    
C33   Cl1   1.760265 S    
C26   C36   1.392484 A    
C44   C46   1.383417 A    
N2    Ni2   1.871222 S    
N23   O14   1.300744 A    
C38   C41   1.391925 A    
N24   O16   1.300246 A    
C37   C42   1.364561 A    
N24   O15   1.301275 A    
C14   C20   1.390809 A    
N9    Ni2   1.871195 S    
C9    H9    1.080687 S    
N10   Ni1   1.871197 S    
C10   H10   1.081913 S    
C5    N5    1.321437 A    
C2    C18   1.379759 A    
C15   N23   1.436077 S    
C13   H13   1.079893 S    
N17   O1    1.301061 A    
C14   H14   1.078229 S    
C49   H25   1.083308 S    
C58   C60   1.400474 A    
C50   C53   1.404159 A    
C32   N20   1.436492 S    
H16   C36   1.081923 S    
C56   C58   1.366649 A    
C4    C20   1.391259 A    
C11   N11   1.316561 A    
C25   C27   1.402565 A    
C13   N13   1.332962 A    
C52   C54   1.400935 A    
N20   O8    1.301007 A    
N4    Ni1   1.865673 S    
C3    H3    1.079978 S    
C20   C47   1.461085 S    
C52   N22   1.438818 S    
C29   C42   1.489604 S    
C4    H4    1.076668 S    
C17   C60   1.411333 S    
C45   H23   1.080337 S    
C44   H22   1.080641 S    
C32   C34   1.407111 A    
C29   C31   1.420045 A    
C15   C17   1.368466 A    
N3    Ni2   1.865673 S    
C16   C18   1.386400 A    
N5    Ni3   1.863552 S    
