data_mof_unit_49827.cif
_audit_creation_date              2012-12-11T15:39:26-0500
_audit_creation_method            fapswitch 2.2
_symmetry_space_group_name_H-M    P1
_symmetry_Int_Tables_number       1
_space_group_crystal_system       triclinic
_cell_length_a                    17.331715
_cell_length_b                    24.213595
_cell_length_c                    15.040827
_cell_angle_alpha                 89.962639
_cell_angle_beta                  125.875749
_cell_angle_gamma                 90.098748
_cell_volume                      5114.60607249

loop_
_atom_site_label
_atom_site_type_symbol
_atom_type_description
_atom_site_fract_x
_atom_site_fract_y
_atom_site_fract_z
_atom_type_partial_charge
C1    C     C_R   0.309292 0.375869 0.907257 -0.125825
C2    C     C_R   0.547204 0.501182 0.723613 0.168290
C3    C     C_R   0.118829 0.816008 0.999550 0.053110
C4    C     C_R   0.052685 0.999993 0.357889 0.125219
C5    C     C_R   0.040186 0.000085 0.716742 0.082522
C6    C     C_R   0.197650 0.500804 0.631879 0.086844
C7    C     C_R   0.826034 0.501060 0.276683 0.064988
C8    C     C_R   0.697999 0.000801 0.631561 0.089154
C9    C     C_R   0.326123 0.001047 0.276823 0.080096
C10   C     C_R   0.073027 0.552567 0.466144 0.158679
C11   C     C_R   0.979017 0.552867 0.376269 0.167808
C12   C     C_R   0.573384 0.052529 0.465616 0.201950
C13   C     C_R   0.648622 0.347796 0.090849 -0.138832
C14   C     C_R   0.479255 0.052804 0.375952 0.171773
C15   C     C_R   0.118974 0.502570 0.515343 0.029166
C16   C     C_R   0.929007 0.503063 0.332738 0.036490
C17   C     C_R   0.619374 0.002552 0.514943 0.064904
C18   C     C_R   0.429139 0.003005 0.332743 0.022580
C19   C     C_R   0.077396 0.453668 0.454634 -0.195133
C20   C     C_R   0.982213 0.453985 0.362675 -0.175908
C21   C     C_R   0.577668 0.953628 0.454373 -0.147785
C22   C     C_R   0.482341 0.953915 0.362673 -0.203698
C23   C     C_3   0.958191 0.603506 0.416173 -0.515164
C24   C     C_R   0.809324 0.875772 0.907178 -0.128686
C25   C     C_3   0.061014 0.603262 0.513794 -0.519859
C26   C     C_3   0.458652 0.103577 0.415729 -0.528456
C27   C     C_3   0.561574 0.103359 0.513131 -0.533996
C28   C     C_R   0.157189 0.686338 0.898723 -0.159140
C29   C     C_R   0.707425 0.769601 0.097639 -0.173728
C30   C     C_R   0.657323 0.186675 0.898079 -0.153877
C31   C     C_R   0.208145 0.269282 0.097614 -0.161440
C32   C     C_R   0.610188 0.232605 0.898464 -0.144850
C33   C     C_R   0.255566 0.315221 0.097238 -0.156571
C34   C     C_R   0.110050 0.732308 0.899036 -0.165509
C35   C     C_R   0.148632 0.847812 0.090950 -0.138055
C36   C     C_R   0.755238 0.815323 0.097155 -0.131522
C37   C     C_R   0.642552 0.258306 0.998267 0.128098
C38   C     C_R   0.237037 0.333603 0.998009 0.132011
C39   C     C_R   0.142752 0.758254 0.998736 0.138735
C40   C     C_R   0.737035 0.833419 0.997903 0.142818
C41   C     C_R   0.401559 0.624137 0.090985 -0.121915
C42   C     C_R   0.556059 0.652292 0.908807 -0.127842
C43   C     C_R   0.901525 0.124503 0.090688 -0.094034
C44   C     C_R   0.056907 0.151958 0.908541 -0.139553
C45   C     C_R   0.708804 0.231078 0.097116 -0.167502
C46   C     C_R   0.311193 0.636944 0.998563 0.041624
C47   C     C_R   0.156340 0.314019 0.898680 -0.143540
C48   C     C_R   0.209495 0.731269 0.097713 -0.169845
C49   C     C_R   0.656325 0.813843 0.898608 -0.164581
C50   C     C_R   0.256403 0.685183 0.097294 -0.163422
C51   C     C_R   0.608193 0.768303 0.898982 -0.167329
C52   C     C_R   0.755688 0.184997 0.096614 -0.130151
C53   C     C_R   0.108643 0.268208 0.898944 -0.141881
C54   C     C_R   0.237593 0.666634 0.998036 0.142615
C55   C     C_R   0.640414 0.742573 0.998722 0.136510
C56   C     C_R   0.737381 0.166763 0.997428 0.137240
C57   C     C_R   0.616750 0.684709 0.999629 0.052645
C58   C     C_R   0.141204 0.242290 0.998612 0.131927
C59   C     C_R   0.522259 0.544624 0.565183 -0.219759
C60   C     C_R   0.525844 0.544237 0.477365 -0.217836
C61   C     C_R   0.131968 0.000791 0.643315 -0.206595
C62   C     C_R   0.135102 0.000749 0.553990 -0.224654
C63   C     C_R   0.577877 0.503650 0.468667 -0.069723
C64   C     C_R   0.570753 0.504402 0.646609 -0.075004
C65   C     C_R   0.049795 0.999981 0.449252 -0.094246
C66   C     C_R   0.043617 0.000105 0.625502 -0.086739
C67   C     C_R   0.634580 0.465757 0.554343 0.377680
C68   C     C_R   0.811130 0.137138 0.998193 0.049989
C69   C     C_R   0.630567 0.466010 0.644654 0.384026
C70   C     C_R   0.960584 0.999336 0.430532 0.388830
C71   C     C_R   0.957288 0.999438 0.519940 0.385310
C72   C     C_R   0.547320 0.454428 0.302790 -0.109339
C73   C     C_R   0.516904 0.454268 0.748192 -0.092942
C74   C     C_R   0.042747 0.953952 0.299765 -0.083990
C75   C     C_R   0.014494 0.953646 0.746631 -0.055737
C76   C     C_R   0.246815 0.546099 0.696013 -0.158766
C77   C     C_R   0.767582 0.546588 0.246536 -0.134718
C78   C     C_R   0.747048 0.046083 0.695816 -0.134023
C79   C     C_R   0.117569 0.184419 0.999414 0.055829
C80   C     C_R   0.267648 0.046581 0.246691 -0.148963
C81   C     C_R   0.549107 0.546182 0.302178 -0.169138
C82   C     C_R   0.520450 0.546750 0.754300 -0.155340
C83   C     C_R   0.042729 0.046028 0.299698 -0.086569
C84   C     C_R   0.014445 0.046439 0.746576 -0.056611
C85   C     C_R   0.244532 0.454595 0.695339 -0.131657
C86   C     C_R   0.769634 0.454317 0.251260 -0.072701
C87   C     C_R   0.744737 0.954605 0.695161 -0.113864
C88   C     C_R   0.269657 0.954316 0.251290 -0.129980
C89   C     C_R   0.309349 0.624096 0.907163 -0.123025
C90   C     C_R   0.562620 0.500761 0.364118 0.160497
C91   C     C_R   0.647181 0.652712 0.090869 -0.142968
C92   C     C_R   0.809336 0.124115 0.906954 -0.115028
C93   C     C_R   0.147475 0.152615 0.090760 -0.140738
C94   C     C_R   0.401495 0.375748 0.091007 -0.122046
C95   C     C_R   0.557392 0.348250 0.908412 -0.081321
C96   C     C_R   0.901581 0.875387 0.090863 -0.098277
C97   C     C_R   0.057369 0.848177 0.908534 -0.142901
C98   C     C_R   0.311028 0.363028 0.998592 0.044331
C99   C     C_R   0.618801 0.316050 0.999350 0.054094
C100  C     C_R   0.811111 0.862742 0.998467 0.049207
Cl1   Cl    Cl    0.711756 0.419704 0.550946 -0.611307
Cl2   Cl    Cl    0.700219 0.419228 0.754061 -0.596604
Cl3   Cl    Cl    0.853564 0.998491 0.295719 -0.600504
Cl4   Cl    Cl    0.845486 0.998824 0.499388 -0.617139
H1    H     H_    0.250996 0.370936 0.821928 0.097174
H2    H     H_    0.730080 0.752850 0.176080 0.112668
H3    H     H_    0.636893 0.171055 0.819741 0.111159
H4    H     H_    0.231084 0.252388 0.176049 0.109291
H5    H     H_    0.731445 0.247800 0.175557 0.117170
H6    H     H_    0.135775 0.329796 0.820382 0.115886
H7    H     H_    0.232515 0.748194 0.176149 0.105978
H8    H     H_    0.636029 0.829400 0.820277 0.108320
H9    H     H_    0.313671 0.668301 0.175462 0.105426
H10   H     H_    0.552599 0.750617 0.820756 0.106664
H11   H     H_    0.812548 0.167851 0.174728 0.126983
H12   H     H_    0.686454 0.333702 0.174641 0.096571
H13   H     H_    0.053034 0.250543 0.820698 0.116609
H14   H     H_    0.474882 0.574190 0.564079 0.141071
H15   H     H_    0.481700 0.573612 0.412088 0.141335
H16   H     H_    0.197541 0.001342 0.725612 0.153696
H17   H     H_    0.203159 0.001291 0.565947 0.149737
H18   H     H_    0.428888 0.629304 0.175859 0.090205
H19   H     H_    0.508760 0.665873 0.824681 0.080998
H20   H     H_    0.928792 0.130358 0.175303 0.097784
H21   H     H_    0.010295 0.165313 0.824198 0.095554
H22   H     H_    0.559860 0.411969 0.329951 0.143846
H23   H     H_    0.751004 0.870935 0.821829 0.092453
H24   H     H_    0.521894 0.411807 0.730095 0.135260
H25   H     H_    0.055176 0.911602 0.327777 0.084804
H26   H     H_    0.017305 0.911124 0.726882 0.099910
H27   H     H_    0.241587 0.587934 0.668120 0.100620
H28   H     H_    0.785739 0.589314 0.249071 0.109751
H29   H     H_    0.741970 0.087905 0.667938 0.112349
H30   H     H_    0.285838 0.089308 0.249330 0.113361
H31   H     H_    0.566174 0.588587 0.329958 0.101866
H32   H     H_    0.530654 0.589688 0.744207 0.105631
H33   H     H_    0.055123 0.088402 0.327618 0.086594
H34   H     H_    0.186427 0.833769 0.174767 0.084230
H35   H     H_    0.017257 0.088985 0.726828 0.100986
H36   H     H_    0.234399 0.412474 0.666749 0.085288
H37   H     H_    0.791375 0.411639 0.262785 0.093933
H38   H     H_    0.734700 0.912484 0.666596 0.088591
H39   H     H_    0.291380 0.911637 0.262739 0.095163
H40   H     H_    0.251088 0.629019 0.821795 0.093207
H41   H     H_    0.684328 0.666882 0.174563 0.087766
H42   H     H_    0.751109 0.128907 0.821538 0.093717
H43   H     H_    0.184432 0.166883 0.174364 0.086321
H44   H     H_    0.428785 0.370435 0.175801 0.094163
H45   H     H_    0.939689 0.639635 0.361440 0.191499
H46   H     H_    0.510798 0.334842 0.824073 0.078709
H47   H     H_    0.928878 0.869565 0.175490 0.097727
H48   H     H_    0.010757 0.834677 0.824259 0.090851
H49   H     H_    0.113081 0.414316 0.484787 0.126925
H50   H     H_    0.948187 0.414881 0.325393 0.130699
H51   H     H_    0.613373 0.914281 0.484546 0.127708
H52   H     H_    0.448260 0.914793 0.325600 0.130719
H53   H     H_    0.909362 0.595749 0.440095 0.206726
H54   H     H_    0.101815 0.639038 0.514805 0.189137
H55   H     H_    0.409994 0.095972 0.439947 0.199455
H56   H     H_    0.069733 0.595503 0.592132 0.204524
H57   H     H_    0.602340 0.139057 0.513797 0.210583
H58   H     H_    0.555137 0.250456 0.820245 0.113018
H59   H     H_    0.313025 0.332059 0.175422 0.113259
H60   H     H_    0.054641 0.749979 0.820785 0.110651
H61   H     H_    0.812638 0.832239 0.175294 0.126507
H62   H     H_    0.440054 0.139606 0.360748 0.201714
H63   H     H_    0.570477 0.095775 0.591620 0.194883
H64   H     H_    0.136427 0.670482 0.820397 0.109784
N1    N     N_R   0.394180 0.396910 0.943210 -0.044596
N2    N     N_R   0.474350 0.471570 0.793850 -0.055218
N3    N     N_R   0.025650 0.971570 0.206150 -0.042591
N4    N     N_R   0.974350 0.971570 0.793850 -0.042021
N5    N     N_R   0.319480 0.528420 0.793810 -0.037773
N6    N     N_R   0.680520 0.528420 0.206190 -0.040918
N7    N     N_R   0.819480 0.028420 0.793810 -0.042183
N8    N     N_R   0.180520 0.028420 0.206190 -0.046021
N9    N     N_R   0.525640 0.528390 0.206120 -0.043006
N10   N     N_R   0.474360 0.528390 0.793880 -0.046633
N11   N     N_R   0.025640 0.028390 0.206120 -0.042827
N12   N     N_R   0.605820 0.396910 0.056790 -0.041024
N13   N     N_R   0.974360 0.028390 0.793880 -0.042166
N14   N     N_R   0.319490 0.471590 0.793840 -0.039819
N15   N     N_R   0.680510 0.471590 0.206160 -0.039871
N16   N     N_R   0.819490 0.971590 0.793840 -0.040759
N17   N     N_R   0.180510 0.971590 0.206160 -0.045755
N18   N     N_R   0.394130 0.603080 0.943110 -0.040883
N19   N     N_R   0.605870 0.603080 0.056890 -0.037813
N20   N     N_R   0.894130 0.103080 0.943110 -0.042122
N21   N     N_R   0.105870 0.103080 0.056890 -0.040165
N22   N     N_R   0.450990 0.396900 0.056840 -0.042724
N23   N     N_R   0.894180 0.896910 0.943210 -0.041922
N24   N     N_R   0.549010 0.396900 0.943160 -0.041515
N25   N     N_R   0.950990 0.896900 0.056840 -0.044991
N26   N     N_R   0.049010 0.896900 0.943160 -0.043264
N27   N     N_R   0.105820 0.896910 0.056790 -0.039516
N28   N     N_R   0.450950 0.603070 0.056740 -0.040211
N29   N     N_R   0.549050 0.603070 0.943260 -0.035839
N30   N     N_R   0.950950 0.103070 0.056740 -0.045226
N31   N     N_R   0.049050 0.103070 0.943260 -0.043658
N32   N     N_R   0.525650 0.471570 0.206150 -0.050249
Ni1   Ni    Ni4+2 0.434860 0.434850 0.869700 0.211313
Ni2   Ni    Ni4+2 0.565140 0.434850 0.130300 0.235983
Ni3   Ni    Ni4+2 0.934860 0.934850 0.869700 0.226581
Ni4   Ni    Ni4+2 0.065140 0.934850 0.130300 0.208824
Ni5   Ni    Ni4+2 0.565130 0.565140 0.130240 0.217854
Ni6   Ni    Ni4+2 0.434870 0.565140 0.869760 0.209143
Ni7   Ni    Ni4+2 0.065130 0.065140 0.130240 0.209951
Ni8   Ni    Ni4+2 0.934870 0.065140 0.869760 0.231253

loop_
_geom_bond_atom_site_label_1
_geom_bond_atom_site_label_2
_ccdc_geom_bond_type
C97   N26   A    
C71   Cl4   S    
C13   C99   A    
C77   N6    A    
C53   C58   A    
C30   H3    S    
N14   Ni1   S    
C89   N18   A    
C14   C18   A    
C35   H34   S    
C19   C20   A    
C89   H40   S    
C91   H41   S    
C38   C98   S    
C75   N4    A    
C47   H6    S    
N23   N25   A    
N8    N17   A    
C46   C89   A    
C22   H52   S    
C69   Cl2   S    
C96   N25   A    
C15   C19   A    
C29   C36   A    
C67   Cl1   S    
C26   C27   S    
C85   N14   A    
C6    C85   A    
C20   H50   S    
N2    N10   A    
C60   C63   A    
N1    N22   A    
N8    Ni7   S    
N18   N28   A    
C84   N13   A    
C33   H59   S    
C79   C93   A    
C41   N28   A    
C34   H60   S    
C10   C15   A    
C9    C88   A    
C4    C65   S    
C76   H27   S    
C45   H5    S    
C7    C86   A    
C94   C98   A    
C95   C99   A    
C40   C49   A    
N10   Ni6   S    
N28   Ni5   S    
C80   H30   S    
C60   H15   S    
C51   C55   A    
C31   H4    S    
C74   N3    A    
C11   C23   S    
N3    Ni4   S    
C36   H61   S    
N2    Ni1   S    
C6    C15   S    
N4    N13   A    
N20   Ni8   S    
C84   H35   S    
C43   C68   A    
C49   C51   A    
N9    N32   A    
C32   H58   S    
C12   C17   A    
C24   H23   S    
C41   C46   A    
C31   C33   A    
N5    Ni6   S    
C3    C35   A    
C43   N30   A    
C47   C53   A    
N6    Ni5   S    
C88   H39   S    
C4    C74   A    
C46   C54   S    
C75   H26   S    
C35   N27   A    
C7    C77   A    
N21   N31   A    
C48   C50   A    
N26   N27   A    
C23   H45   S    
C28   C34   A    
C59   C60   A    
N16   Ni3   S    
C18   C22   A    
C21   C22   A    
C61   H16   S    
C8    C78   A    
C65   C70   A    
N3    N11   A    
N29   Ni6   S    
N23   Ni3   S    
N7    Ni8   S    
C61   C66   A    
C42   C57   A    
C2    C64   S    
C42   H19   S    
C81   H31   S    
C63   C67   A    
C42   N29   A    
C94   H44   S    
N11   Ni7   S    
C44   H21   S    
C51   H10   S    
N18   Ni6   S    
C12   C27   S    
C92   H42   S    
C34   C39   A    
C36   C40   A    
N13   Ni8   S    
C80   N8    A    
N12   N24   A    
C87   N16   A    
C5    C84   A    
C28   C54   A    
C70   Cl3   S    
N22   Ni2   S    
N27   Ni4   S    
C29   C55   A    
C45   C52   A    
C32   C37   A    
C96   H47   S    
C30   C56   A    
C17   C21   A    
C72   H22   S    
C67   C69   A    
C9    C80   A    
C41   H18   S    
C5    C75   A    
N4    Ni3   S    
C31   C58   A    
C94   N22   A    
C72   N32   A    
C72   C90   A    
C11   C16   A    
C3    C97   A    
C66   C71   A    
N20   N30   A    
N24   Ni1   S    
C82   N10   A    
C25   H56   S    
C21   H51   S    
C26   H55   S    
C95   H46   S    
C16   C20   A    
C64   C69   A    
C14   C26   S    
N25   Ni4   S    
C85   H36   S    
C38   C47   A    
C70   C71   A    
C2    C73   A    
C95   N24   A    
C49   H8    S    
C81   C90   A    
C58   C79   S    
C10   C25   S    
C88   N17   A    
N19   N29   A    
N5    N14   A    
C59   H14   S    
C55   C57   S    
C78   N7    A    
C19   H49   S    
C29   H2    S    
C2    C82   A    
C37   C45   A    
C13   N12   A    
N1    Ni1   S    
C83   H33   S    
N17   Ni4   S    
C52   H11   S    
C91   N19   A    
C76   N5    A    
C57   C91   A    
C62   C65   A    
N30   Ni7   S    
C24   C100  A    
N15   Ni2   S    
C44   C79   A    
C7    C16   S    
C8    C17   S    
C12   C14   A    
C5    C66   S    
C1    C98   A    
C40   C100  S    
N19   Ni5   S    
C92   N20   A    
C6    C76   A    
C93   N21   A    
C73   H24   S    
C96   C100  A    
N12   Ni2   S    
C33   C38   A    
C83   N11   A    
C50   H9    S    
C8    C87   A    
C81   N9    A    
C50   C54   A    
C56   C68   S    
C27   H57   S    
C30   C32   A    
C37   C99   S    
C86   N15   A    
C4    C83   A    
N21   Ni7   S    
N26   Ni3   S    
C23   H53   S    
C63   C90   S    
C1    N1    A    
N31   Ni8   S    
C68   C92   A    
C97   H48   S    
N9    Ni5   S    
C93   H43   S    
C24   N23   A    
C53   H13   S    
C23   C25   S    
C87   H38   S    
C82   H32   S    
C61   C62   A    
C78   H29   S    
C13   H12   S    
C10   C11   A    
C28   H64   S    
C3    C39   S    
C59   C64   A    
C9    C18   S    
C48   H7    S    
C44   N31   A    
N32   Ni2   S    
C26   H62   S    
C74   H25   S    
C1    H1    S    
C25   H54   S    
C39   C48   A    
C73   N2    A    
N6    N15   A    
C43   H20   S    
C77   H28   S    
C62   H17   S    
C52   C56   A    
C86   H37   S    
C27   H63   S    
N7    N16   A    
