data_mof_unit_17923.cif
_audit_creation_date              2012-12-10T18:52:16-0500
_audit_creation_method            fapswitch 2.2
_symmetry_space_group_name_H-M    P1
_symmetry_Int_Tables_number       1
_space_group_crystal_system       triclinic
_cell_length_a                    15.727157
_cell_length_b                    10.617223
_cell_length_c                    9.887031
_cell_angle_alpha                 89.835534
_cell_angle_beta                  89.33345
_cell_angle_gamma                 90.512637
_cell_volume                      1650.73881473

loop_
_atom_site_label
_atom_site_type_symbol
_atom_type_description
_atom_site_fract_x
_atom_site_fract_y
_atom_site_fract_z
_atom_type_partial_charge
Br1   Br    Br    0.934412 0.477523 0.187875 -0.327714
Br2   Br    Br    0.065588 0.522478 0.812124 -0.327714
Br3   Br    Br    0.663336 0.849954 0.639221 -0.449157
Br4   Br    Br    0.336663 0.150046 0.360781 -0.449154
Br5   Br    Br    0.630532 0.691988 0.155278 -0.394727
Br6   Br    Br    0.369468 0.308012 0.844722 -0.394726
C1    C     C_R   0.498927 0.260473 0.500004 1.008617
C2    C     C_R   0.446944 0.421899 0.073979 -0.125306
C3    C     C_R   0.338054 0.499602 0.500657 0.910313
C4    C     C_R   0.661946 0.500398 0.499343 0.910312
C5    C     C_3   0.969585 0.399648 0.572714 -0.423514
C6    C     C_3   0.030415 0.600353 0.427286 -0.423511
C7    C     C_3   0.027944 0.394140 0.445975 0.532450
C8    C     C_3   0.972056 0.605860 0.554025 0.532451
C9    C     C_1   0.249322 0.499833 0.502026 -0.107186
C10   C     C_1   0.750678 0.500167 0.497974 -0.107188
C11   C     C_3   0.026122 0.508141 0.627915 0.275837
C12   C     C_R   0.501073 0.739527 0.499995 1.008617
C13   C     C_3   0.973878 0.491860 0.372085 0.275838
C14   C     C_3   0.083446 0.500684 0.501091 -0.105911
C15   C     C_3   0.916554 0.499316 0.498909 -0.105912
C16   C     C_1   0.174150 0.500301 0.502102 0.078848
C17   C     C_1   0.825850 0.499699 0.497898 0.078844
C18   C     C_R   0.568917 0.066640 0.556269 0.458669
C19   C     C_R   0.431082 0.933360 0.443732 0.458670
C20   C     C_3   0.088491 0.199061 0.475434 -0.174862
C21   C     C_3   0.911504 0.800935 0.524562 -0.174863
C22   C     C_3   0.697069 0.159394 0.512816 -0.217211
C23   C     C_R   0.568797 0.936580 0.559244 0.149766
C24   C     C_3   0.302931 0.840606 0.487188 -0.217211
C25   C     C_R   0.431203 0.063420 0.440757 0.149767
C26   C     C_R   0.500687 0.871873 0.500510 -0.329311
C27   C     C_R   0.499312 0.128127 0.499490 -0.329310
C28   C     C_R   0.553335 0.578495 0.069223 0.340643
C29   C     C_R   0.446665 0.421505 0.930777 0.340643
C30   C     C_R   0.553056 0.578101 0.926021 -0.125305
H1    H     H_    0.943294 0.319077 0.632069 0.202421
H2    H     H_    0.864844 0.757719 0.454380 0.174123
H3    H     H_    0.750425 0.212092 0.559312 0.188756
H4    H     H_    0.671276 0.219163 0.430604 0.135704
H5    H     H_    0.723465 0.071112 0.469646 0.185988
H6    H     H_    0.328725 0.780839 0.569400 0.135705
H7    H     H_    0.249575 0.787906 0.440694 0.188755
H8    H     H_    0.276534 0.928888 0.530357 0.185989
H9    H     H_    0.056706 0.680924 0.367932 0.202422
H10   H     H_    0.595428 0.640437 0.869991 0.210966
H11   H     H_    0.404572 0.359563 0.130009 0.210965
H12   H     H_    0.121318 0.121848 0.421133 0.213861
H13   H     H_    0.034371 0.156352 0.533068 0.146024
H14   H     H_    0.135150 0.242274 0.545622 0.174123
H15   H     H_    0.965621 0.843646 0.466923 0.146025
H16   H     H_    0.878677 0.878150 0.578864 0.213861
N1    N     N_R   0.499980 0.499970 0.857200 -0.134859
N2    N     N_R   0.500020 0.500030 0.142800 -0.134859
O1    O     O_R   0.499990 0.316750 0.614620 -0.556128
O2    O     O_3   0.940850 0.713762 0.620622 -0.553251
O3    O     O_3   0.635056 0.133916 0.613788 -0.553915
O4    O     O_3   0.364943 0.866084 0.386214 -0.553916
O5    O     O_R   0.500010 0.683250 0.385380 -0.556128
O6    O     O_R   0.500000 0.316780 0.385290 -0.617944
O7    O     O_R   0.500000 0.683220 0.614710 -0.617943
O8    O     O_R   0.376780 0.499970 0.614640 -0.593061
O9    O     O_R   0.623220 0.500030 0.385360 -0.593061
O10   O     O_R   0.376780 0.500000 0.385310 -0.593902
O11   O     O_R   0.623220 0.500000 0.614690 -0.593902
O12   O     O_3   0.059150 0.286239 0.379376 -0.553251
Zn1   Zn    Zn3+2 0.500000 0.499980 0.653120 1.044971
Zn2   Zn    Zn3+2 0.500000 0.500020 0.346880 1.044971

loop_
_geom_bond_atom_site_label_1
_geom_bond_atom_site_label_2
_ccdc_geom_bond_type
C19   C25   A    
O1    Zn1   S    
C25   C27   A    
C12   O7    A    
C30   H10   S    
C1    O1    A    
O5    Zn2   S    
C29   N1    A    
C3    O10   A    
C5    C7    S    
O7    Zn1   S    
C8    O2    S    
C18   C27   A    
C7    C14   S    
C20   H12   S    
O6    Zn2   S    
Br5   C28   S    
C6    C14   S    
C19   C26   A    
C15   C17   S    
C3    C9    S    
C2    H11   S    
C12   O5    A    
C4    C10   S    
C22   O3    S    
C21   H16   S    
Br2   C11   S    
C1    C27   S    
C8    C11   S    
C24   H8    S    
O8    Zn1   S    
C24   O4    S    
C6    C13   S    
C6    C8    S    
C13   C15   S    
C10   C17   T    
C14   C16   S    
C28   N2    A    
C23   C26   A    
C28   C30   A    
C7    O12   S    
C20   H14   S    
N1    Zn1   S    
C24   H7    S    
Br1   C13   S    
Br4   C25   S    
C12   C26   S    
C19   O4    S    
C22   H4    S    
C21   H2    S    
C3    O8    A    
C20   O12   S    
O10   Zn2   S    
C1    O6    A    
C18   C23   A    
C11   C14   S    
N2    Zn2   S    
Br6   C29   S    
C8    C15   S    
Br3   C23   S    
C18   O3    S    
C4    O11   A    
C2    N2    A    
C5    H1    S    
C7    C13   S    
C21   O2    S    
C24   H6    S    
C30   N1    A    
C22   H3    S    
O9    Zn2   S    
C5    C15   S    
C9    C16   T    
C5    C11   S    
C22   H5    S    
C4    O9    A    
C21   H15   S    
C6    H9    S    
O11   Zn1   S    
C2    C29   A    
C20   H13   S    
