data_mof_unit_35695.cif
_audit_creation_date              2012-10-26T19:52:25-0400
_audit_creation_method            fapswitch 2.2
_symmetry_space_group_name_H-M    P1
_symmetry_Int_Tables_number       1
_space_group_crystal_system       triclinic
_cell_length_a                    9.626195
_cell_length_b                    10.915471
_cell_length_c                    13.501879
_cell_angle_alpha                 92.105056
_cell_angle_beta                  74.167722
_cell_angle_gamma                 90.118946
_cell_volume                      1363.91561986

loop_
_atom_site_label
_atom_site_type_symbol
_atom_type_description
_atom_site_fract_x
_atom_site_fract_y
_atom_site_fract_z
_atom_type_partial_charge
C1    C     C_R   0.501485 0.737247 0.498492 0.598108
C2    C     C_R   0.392538 0.459716 0.809323 0.009658
C3    C     C_R   0.385544 0.937600 0.492404 0.047647
C4    C     C_R   0.425747 0.487056 0.698296 0.555227
C5    C     C_R   0.507461 0.870357 0.494070 -0.001513
C6    C     C_R   0.635250 0.938638 0.492639 0.035791
C7    C     C_R   0.631056 0.067357 0.494543 -0.143764
C8    C     C_R   0.504099 0.130772 0.494317 -0.017802
C9    C     C_R   0.385119 0.061314 0.490183 0.000465
C10   C     C_3   0.229251 0.070564 0.493211 -0.013197
C11   C     C_3   0.228308 0.928835 0.498535 -0.043242
C12   C     C_R   0.454108 0.478185 0.973909 0.070387
C13   C     C_R   0.952566 0.425923 0.432153 0.180453
C14   C     C_R   0.895356 0.565165 0.571746 -0.011813
C15   C     C_R   0.042401 0.566867 0.573729 0.111979
C16   C     C_R   0.500611 0.263123 0.498340 0.551783
C17   C     C_R   0.099567 0.425487 0.432345 0.166830
C18   C     C_3   0.147937 0.431954 0.318332 -0.279132
C19   C     C_3   0.991461 0.433345 0.318192 -0.275948
C20   C     C_R   0.576029 0.509833 0.301549 0.575669
C21   C     C_R   0.806295 0.545637 0.030981 0.081912
C22   C     C_R   0.618467 0.528472 0.189852 -0.032438
C23   C     C_R   0.499255 0.467509 0.865077 0.030647
C24   C     C_R   0.252561 0.425223 0.861796 -0.128508
C25   C     C_R   0.214755 0.411992 0.968210 -0.114057
C26   C     C_R   0.312192 0.443356 0.024361 -0.046339
C27   C     C_2   0.203052 0.118675 0.396405 0.616942
C28   C     C_2   0.067998 0.648413 0.658758 0.531976
C29   C     C_2   0.401807 0.644204 0.173356 0.558062
C30   C     C_2   0.774663 0.881922 0.491233 0.601317
C31   C     C_R   0.555865 0.512743 0.028777 0.005981
C32   C     C_R   0.705018 0.516691 0.975580 0.041216
C33   C     C_R   0.749457 0.485336 0.870670 -0.106335
C34   C     C_R   0.649076 0.458087 0.817320 -0.109549
C35   C     C_R   0.515317 0.546975 0.134740 0.003497
C36   C     C_R   0.764443 0.538357 0.137194 -0.092226
Cu1   Cu    Cu3+1 0.359330 0.500020 0.500010 1.035482
Cu2   Cu    Cu3+1 0.640670 0.499980 0.499990 0.992898
H1    H     H_    0.845436 0.547771 0.178235 0.153826
H2    H     H_    0.958475 0.350980 0.279670 0.128593
H3    H     H_    0.173001 0.406842 0.819974 0.117148
H4    H     H_    0.277378 0.436764 0.107000 0.116819
H5    H     H_    0.107530 0.381810 0.008041 0.130975
H6    H     H_    0.693596 0.419494 0.740703 0.153830
H7    H     H_    0.056207 0.153934 0.319330 0.327834
H8    H     H_    0.102489 0.888350 0.402185 0.280168
H9    H     H_    0.196485 0.770232 0.423516 0.272379
H10   H     H_    0.978012 0.747573 0.789790 0.342894
H11   H     H_    0.998393 0.531578 0.922273 0.232317
H12   H     H_    0.728032 0.117464 0.495771 0.181737
H13   H     H_    0.935234 0.675381 0.953672 0.261593
H14   H     H_    0.241827 0.747481 0.148038 0.358319
H15   H     H_    0.921441 0.851277 0.569031 0.323595
H16   H     H_    0.164242 0.118309 0.564994 0.088602
H17   H     H_    0.161733 0.895482 0.573151 0.147341
H18   H     H_    0.814209 0.620140 0.626434 0.190547
H19   H     H_    0.201322 0.519685 0.293999 0.175548
H20   H     H_    0.207486 0.348818 0.279827 0.167194
H21   H     H_    0.959561 0.522927 0.294821 0.167928
H22   H     H_    0.861999 0.475164 0.829080 0.137021
N1    N     N_R   0.852320 0.499070 0.499340 -0.259642
N2    N     N_R   0.148230 0.499110 0.499340 -0.266749
N3    N     N_3   0.204291 0.863444 0.408236 -0.530584
N4    N     N_3   0.947490 0.590351 0.983291 -0.609002
O1    O     O_R   0.381190 0.680360 0.500000 -0.446367
O2    O     O_R   0.061309 0.127010 0.389275 -0.714794
O3    O     O_2   0.184778 0.692822 0.655036 -0.484751
O4    O     O_R   0.951362 0.682969 0.742466 -0.752985
O5    O     O_2   0.394412 0.700900 0.254398 -0.488440
O6    O     O_R   0.311700 0.679323 0.113585 -0.689754
O7    O     O_2   0.841957 0.821036 0.415583 -0.513992
O8    O     O_R   0.829470 0.899745 0.576325 -0.690650
O9    O     O_R   0.618780 0.680320 0.499990 -0.477653
O10   O     O_R   0.323230 0.500000 0.650990 -0.468251
O11   O     O_R   0.560820 0.499960 0.650980 -0.533094
O12   O     O_R   0.381220 0.319680 0.500010 -0.502357
O13   O     O_R   0.618810 0.319640 0.500000 -0.515042
O14   O     O_R   0.439180 0.500040 0.349020 -0.483468
O15   O     O_R   0.676770 0.500000 0.349010 -0.513681
O16   O     O_2   0.304074 0.147022 0.324105 -0.503015

loop_
_geom_bond_atom_site_label_1
_geom_bond_atom_site_label_2
_ccdc_geom_bond_type
C10   C27   S    
C14   H18   S    
Cu1   O10   S    
C25   H5    S    
C30   O7    D    
C7    C8    A    
C21   C36   A    
C22   C35   A    
C12   C23   A    
C1    C5    S    
C28   O4    S    
C18   C19   S    
C11   N3    S    
H9    N3    S    
C5    C6    A    
Cu2   O15   S    
C16   O13   A    
C21   N4    S    
C18   H20   S    
C8    C9    A    
C4    O11   A    
Cu1   O1    S    
C1    O1    A    
C9    C10   S    
C4    O10   A    
Cu2   N1    S    
C8    C16   S    
H11   N4    S    
C24   H3    S    
C17   C18   S    
C29   O5    D    
Cu2   O11   S    
C21   C32   A    
C13   C19   S    
C28   O3    D    
C3    C11   S    
C24   C25   A    
C27   O16   D    
C10   C11   S    
C19   H21   S    
C25   C26   A    
C14   N1    A    
C12   C26   A    
C2    C4    S    
Cu1   Cu2   S    
C3    C9    A    
C17   N2    A    
C18   H19   S    
C31   C32   A    
C23   C34   A    
C33   C34   A    
C34   H6    S    
H10   O4    S    
C6    C30   S    
Cu1   O12   S    
C20   C22   S    
C33   H22   S    
C12   C31   A    
C2    C24   A    
C31   C35   A    
C2    C23   A    
C11   H17   S    
C26   H4    S    
C29   O6    S    
C20   O15   A    
C16   O12   A    
C36   H1    S    
H13   N4    S    
C7    H12   S    
C3    C5    A    
C30   O8    S    
C6    C7    A    
Cu2   O13   S    
C20   O14   A    
C22   C36   A    
Cu1   O14   S    
C29   C35   S    
C13   C17   A    
H8    N3    S    
C1    O9    A    
C32   C33   A    
C27   O2    S    
C15   C28   S    
C15   N2    A    
C10   H16   S    
H14   O6    S    
C19   H2    S    
C13   N1    A    
H7    O2    S    
Cu1   N2    S    
C14   C15   A    
H15   O8    S    
Cu2   O9    S    
