data_mof_unit_16363.cif
_audit_creation_date              2012-12-11T15:34:52-0500
_audit_creation_method            fapswitch 2.2
_symmetry_space_group_name_H-M    P1
_symmetry_Int_Tables_number       1
_space_group_crystal_system       triclinic
_cell_length_a                    30.46465
_cell_length_b                    7.282389
_cell_length_c                    25.945881
_cell_angle_alpha                 90.123991
_cell_angle_beta                  111.977976
_cell_angle_gamma                 89.955332
_cell_volume                      5337.90379631

loop_
_atom_site_label
_atom_site_type_symbol
_atom_type_description
_atom_site_fract_x
_atom_site_fract_y
_atom_site_fract_z
_atom_type_partial_charge
O1    O     O_R   0.295360 0.592990 0.320420 -0.530586
O2    O     O_R   0.704640 0.407010 0.679580 -0.535307
O3    O     O_R   0.204640 0.092990 0.179580 -0.530580
O4    O     O_R   0.795360 0.907010 0.820420 -0.535165
O5    O     O_R   0.294060 0.265620 0.213230 -0.538986
O6    O     O_R   0.705940 0.734380 0.786770 -0.540915
O7    O     O_R   0.205940 0.765620 0.286770 -0.538867
O8    O     O_R   0.794060 0.234380 0.713230 -0.543079
C1    C     C_R   0.304416 0.432115 0.199962 0.712160
C2    C     C_R   0.695718 0.567854 0.800132 0.713519
C3    C     C_R   0.195544 0.932415 0.299994 0.711856
C4    C     C_R   0.804351 0.067495 0.699677 0.711241
O9    O     O_R   0.300850 0.263360 0.322080 -0.538253
O10   O     O_R   0.699150 0.736640 0.677920 -0.533242
O11   O     O_R   0.199150 0.763360 0.177920 -0.538348
O12   O     O_R   0.800850 0.236640 0.822080 -0.534702
O13   O     O_R   0.211480 0.091820 0.289210 -0.537212
O14   O     O_R   0.788520 0.908180 0.710790 -0.537178
O15   O     O_R   0.288520 0.591820 0.210790 -0.537362
O16   O     O_R   0.711480 0.408180 0.789210 -0.534864
C5    C     C_R   0.313266 0.432084 0.343128 0.683859
C6    C     C_R   0.687080 0.567887 0.656638 0.681828
C7    C     C_R   0.186722 0.931830 0.156887 0.683501
C8    C     C_R   0.813012 0.068231 0.843281 0.687226
O17   O     O_3   0.220670 0.426670 0.239090 -0.374200
O18   O     O_3   0.779330 0.573330 0.760910 -0.376457
O19   O     O_3   0.279330 0.926670 0.260910 -0.374276
O20   O     O_3   0.720670 0.073330 0.739090 -0.373263
V1    V     V_3+5 0.255440 0.152290 0.252020 1.399684
V2    V     V_3+5 0.744560 0.847710 0.747980 1.399794
V3    V     V_3+5 0.244560 0.652290 0.247980 1.399684
V4    V     V_3+5 0.755440 0.347710 0.752020 1.394650
C9    C     C_R   0.849009 0.057865 0.900368 -0.057269
C10   C     C_R   0.150519 0.941730 0.099882 -0.057608
C11   C     C_R   0.651213 0.555751 0.599471 -0.056981
C12   C     C_R   0.349488 0.443030 0.400135 -0.058106
C13   C     C_R   0.870474 0.030981 0.999905 -0.184013
C14   C     C_R   0.128858 0.966475 0.000264 -0.184433
C15   C     C_R   0.629763 0.511921 0.500398 -0.185314
C16   C     C_R   0.371091 0.475902 0.499591 -0.183159
C17   C     C_R   0.835423 0.044400 0.946567 0.076461
C18   C     C_R   0.163863 0.946631 0.053388 0.074188
C19   C     C_R   0.664845 0.528596 0.553649 0.079317
C20   C     C_R   0.336132 0.451722 0.446592 0.075096
C21   C     C_R   0.897332 0.051886 0.908394 -0.240264
C22   C     C_R   0.102378 0.957411 0.092195 -0.239960
C23   C     C_R   0.602776 0.558344 0.591156 -0.239845
C24   C     C_R   0.397638 0.457495 0.407794 -0.239767
C25   C     C_R   0.933239 0.031575 0.962301 0.085882
C26   C     C_R   0.066435 0.978280 0.038316 0.086050
C27   C     C_R   0.566862 0.532450 0.537464 0.085755
C28   C     C_R   0.433569 0.481172 0.461586 0.086081
C29   C     C_R   0.918629 0.023464 0.008052 0.109736
C30   C     C_R   0.080916 0.982627 0.992427 0.111452
C31   C     C_R   0.581562 0.512777 0.492030 0.109676
C32   C     C_R   0.419035 0.491478 0.507370 0.109930
C33   C     C_R   0.982899 0.016838 0.972450 0.063065
C34   C     C_R   0.016831 0.995530 0.028251 0.061677
C35   C     C_R   0.517123 0.521877 0.527274 0.062145
C36   C     C_R   0.483223 0.495352 0.471653 0.062077
C37   C     C_R   0.999970 0.991434 0.072007 -0.182194
C38   C     C_R   0.999740 0.020714 0.928677 -0.182944
C39   C     C_R   0.500192 0.481627 0.428117 -0.181872
C40   C     C_R   0.500200 0.533216 0.570894 -0.182036
C41   C     C_R   0.952020 0.005029 0.061964 -0.185406
C42   C     C_R   0.047587 0.003800 0.938604 -0.188452
C43   C     C_R   0.548217 0.489756 0.438261 -0.185842
C44   C     C_R   0.452323 0.517678 0.561022 -0.185906
H1    H     H_    0.940893 0.999481 0.097041 0.134270
H2    H     H_    0.058652 0.007371 0.903459 0.130721
H3    H     H_    0.559443 0.475646 0.403414 0.133562
H4    H     H_    0.441209 0.526137 0.596076 0.133595
H5    H     H_    0.094419 0.954847 0.129288 0.102730
H6    H     H_    0.905456 0.060636 0.871487 0.102599
H7    H     H_    0.405598 0.452519 0.370715 0.102640
H8    H     H_    0.594528 0.577052 0.627734 0.103619
H9    H     H_    0.859930 0.022648 0.035408 0.122576
H10   H     H_    0.139276 0.970212 0.964608 0.120583
H11   H     H_    0.640329 0.492503 0.465194 0.122701
H12   H     H_    0.360644 0.483251 0.535191 0.121627
H13   H     H_    0.022951 0.976475 0.114907 0.128876
H14   H     H_    0.976783 0.036055 0.885785 0.126806
H15   H     H_    0.477267 0.461588 0.385388 0.128620
H16   H     H_    0.523158 0.552249 0.613659 0.128487
C45   C     C_R   0.089801 0.923060 0.476412 0.600153
C46   C     C_R   0.906875 0.031375 0.519691 0.601600
C47   C     C_R   0.408429 0.443914 0.020901 0.608163
C48   C     C_R   0.593683 0.491950 0.980020 0.597828
N1    N     N_R   0.070203 0.948821 0.419941 -0.542848
N2    N     N_R   0.926727 0.009662 0.576244 -0.543497
N3    N     N_R   0.428429 0.447815 0.077958 -0.544409
N4    N     N_R   0.573455 0.508257 0.923224 -0.543482
C49   C     C_R   0.022475 0.978525 0.393437 0.533837
C50   C     C_R   0.973875 0.968560 0.602348 0.522590
C51   C     C_R   0.476753 0.456856 0.104959 0.531080
C52   C     C_R   0.525081 0.507719 0.896352 0.535806
C53   C     C_R   0.992794 0.988152 0.423949 -0.031288
C54   C     C_R   0.003423 0.955852 0.571751 -0.015645
C55   C     C_R   0.506629 0.463516 0.074641 -0.030842
C56   C     C_R   0.495298 0.491570 0.926566 -0.037017
C57   C     C_R   0.012636 0.966053 0.482042 -0.009825
C58   C     C_R   0.983611 0.978947 0.513695 -0.019585
C59   C     C_R   0.486345 0.468480 0.016221 -0.020164
C60   C     C_R   0.515642 0.481773 0.984934 -0.016625
C61   C     C_R   0.061472 0.931920 0.508586 -0.049175
C62   C     C_R   0.934869 0.015586 0.487240 -0.053598
C63   C     C_R   0.436842 0.459487 0.989003 -0.047602
C64   C     C_R   0.565225 0.483080 0.012039 -0.043624
C65   C     C_R   0.944021 0.022941 0.397932 -0.149845
C66   C     C_R   0.052204 0.921505 0.597779 -0.165860
C67   C     C_R   0.556188 0.467076 0.101318 -0.142325
C68   C     C_R   0.445778 0.484378 0.899840 -0.142321
C69   C     C_R   0.915436 0.036910 0.429201 -0.143482
C70   C     C_R   0.080858 0.909351 0.566577 -0.165963
C71   C     C_R   0.585132 0.474903 0.070380 -0.166019
C72   C     C_R   0.416933 0.466771 0.930652 -0.162822
O21   O     O_2   0.136599 0.889836 0.501438 -0.528958
O22   O     O_2   0.860237 0.068077 0.494942 -0.523296
O23   O     O_2   0.361149 0.425277 0.994989 -0.525108
O24   O     O_2   0.641198 0.484141 0.005542 -0.525452
O25   O     O_2   0.003905 0.002349 0.337860 -0.532920
O26   O     O_2   0.992185 0.941312 0.657787 -0.547566
O27   O     O_2   0.495911 0.462184 0.160980 -0.532378
O28   O     O_2   0.505746 0.525004 0.840573 -0.531983
H17   H     H_    0.927807 0.040966 0.353338 0.169548
H18   H     H_    0.068437 0.903968 0.642388 0.165423
H19   H     H_    0.572816 0.462748 0.146209 0.169037
H20   H     H_    0.429127 0.490909 0.854978 0.168852
H21   H     H_    0.878083 0.065022 0.407729 0.168656
H22   H     H_    0.118284 0.882871 0.588108 0.170001
H23   H     H_    0.623153 0.476134 0.092383 0.168851
H24   H     H_    0.378952 0.460681 0.908584 0.168187
C73   C     C_R   0.881767 0.870741 0.627298 -0.192791
C74   C     C_R   0.096058 0.813197 0.348687 -0.180155
C75   C     C_R   0.601302 0.398330 0.850630 -0.172250
C76   C     C_R   0.402704 0.311033 0.149253 -0.173552
H25   H     H_    0.891644 0.737025 0.617233 0.164352
H26   H     H_    0.069048 0.708719 0.340689 0.143118
H27   H     H_    0.576937 0.284100 0.842484 0.144519
H28   H     H_    0.429494 0.205930 0.156722 0.148956
C77   C     C_R   0.852298 0.884043 0.657366 -0.207380
C78   C     C_R   0.126907 0.807240 0.320095 -0.226129
C79   C     C_R   0.631093 0.411671 0.820901 -0.220335
C80   C     C_R   0.372340 0.305380 0.178476 -0.228304
H29   H     H_    0.840906 0.758210 0.670732 0.149488
H30   H     H_    0.123092 0.697592 0.290462 0.144379
H31   H     H_    0.629207 0.306787 0.790480 0.144493
H32   H     H_    0.376258 0.195260 0.207857 0.144234
C81   C     C_R   0.837118 0.056290 0.669068 -0.104562
C82   C     C_R   0.162235 0.941338 0.329575 -0.097948
C83   C     C_R   0.663000 0.558458 0.830307 -0.098165
C84   C     C_R   0.337378 0.440388 0.169945 -0.098043
C85   C     C_R   0.853094 0.215463 0.650555 -0.268889
C86   C     C_R   0.165577 0.083298 0.367733 -0.271811
C87   C     C_R   0.664192 0.693023 0.869697 -0.273013
C88   C     C_R   0.333879 0.582647 0.132088 -0.268889
H33   H     H_    0.841843 0.350137 0.658485 0.139645
H34   H     H_    0.192569 0.187764 0.375837 0.141123
H35   H     H_    0.688950 0.806006 0.878020 0.140009
H36   H     H_    0.307043 0.687487 0.124577 0.141189
C89   C     C_R   0.883785 0.202831 0.621474 0.441882
C90   C     C_R   0.134808 0.090184 0.396665 0.447848
C91   C     C_R   0.634553 0.680732 0.899961 0.445976
C92   C     C_R   0.364130 0.589542 0.102553 0.448545
C93   C     C_R   0.897451 0.028235 0.608722 0.310532
C94   C     C_R   0.100467 0.950694 0.388247 0.285271
C95   C     C_R   0.603285 0.529245 0.891254 0.275112
C96   C     C_R   0.398245 0.449203 0.109946 0.273868
O29   O     O_3   0.897178 0.361821 0.602160 -0.575762
C97   C     C_3   0.945640 0.400089 0.632711 0.044076
H37   H     H_    0.966002 0.283330 0.658333 0.147442
H38   H     H_    0.948240 0.514091 0.662208 0.138995
C98   C     C_3   0.968897 0.459712 0.592385 -0.261295
H39   H     H_    0.961442 0.357100 0.558517 0.200332
H40   H     H_    0.953607 0.592783 0.573145 0.195467
C99   C     C_3   0.022411 0.478406 0.621609 -0.804674
H41   H     H_    0.031098 0.581551 0.655547 0.253395
H42   H     H_    0.037955 0.523075 0.591228 0.233189
H43   H     H_    0.038325 0.344217 0.639211 0.238627
O30   O     O_3   0.141227 0.226029 0.436244 -0.561535
C100  C     C_3   0.102829 0.351085 0.418520 0.058999
H44   H     H_    0.070114 0.296079 0.385641 0.136409
H45   H     H_    0.113519 0.472766 0.400535 0.123008
C101  C     C_3   0.091555 0.412618 0.468757 -0.273558
H46   H     H_    0.095613 0.295874 0.497564 0.215416
H47   H     H_    0.117065 0.520695 0.491882 0.214830
C102  C     C_3   0.041107 0.485822 0.451346 -0.818492
H48   H     H_    0.034825 0.596149 0.420045 0.233182
H49   H     H_    0.035323 0.541121 0.488202 0.234014
H50   H     H_    0.015188 0.373943 0.433119 0.240427
O31   O     O_3   0.640223 0.807820 0.941716 -0.557766
C103  C     C_3   0.599847 0.921895 0.927851 0.074014
H51   H     H_    0.566759 0.857836 0.898215 0.132432
H52   H     H_    0.606156 0.047790 0.907681 0.113935
C104  C     C_3   0.592764 0.976704 0.981295 -0.268063
H53   H     H_    0.603616 0.862698 0.011838 0.224214
H54   H     H_    0.615558 0.096778 0.000425 0.203670
C105  C     C_3   0.541229 0.023486 0.970221 -0.836264
H55   H     H_    0.527989 0.127158 0.936712 0.235408
H56   H     H_    0.538326 0.078919 0.008701 0.245555
H57   H     H_    0.518911 0.898349 0.957485 0.239898
O32   O     O_3   0.356730 0.724836 0.062824 -0.559052
C106  C     C_3   0.395214 0.849031 0.079110 0.060055
H58   H     H_    0.429497 0.787227 0.106391 0.135063
H59   H     H_    0.387549 0.962039 0.103066 0.113324
C107  C     C_3   0.400323 0.928426 0.026976 -0.266838
H60   H     H_    0.390384 0.823641 0.993372 0.224493
H61   H     H_    0.375824 0.046655 0.011776 0.209678
C108  C     C_3   0.450928 0.990066 0.038229 -0.834237
H62   H     H_    0.463308 0.086168 0.073982 0.235217
H63   H     H_    0.452298 0.059715 0.000866 0.241405
H64   H     H_    0.474987 0.869521 0.047631 0.239510
C109  C     C_3   0.214994 0.933075 0.058782 -0.368117
C110  C     C_3   0.234304 0.122347 0.052287 -0.317007
C111  C     C_3   0.285485 0.108961 0.056527 -0.692815
H65   H     H_    0.308081 0.052950 0.097692 0.225743
H66   H     H_    0.288015 0.018421 0.023250 0.252797
H67   H     H_    0.298646 0.247469 0.051755 0.238823
H68   H     H_    0.212538 0.181976 0.011233 0.200911
H69   H     H_    0.232627 0.216149 0.085382 0.201334
H70   H     H_    0.237559 0.874079 0.099467 0.162101
H71   H     H_    0.217489 0.837627 0.026457 0.185221
C112  C     C_3   0.784020 0.039453 0.940518 -0.375756
C113  C     C_3   0.766592 0.230924 0.948326 -0.327162
C114  C     C_3   0.715848 0.223328 0.946093 -0.676983
H72   H     H_    0.691913 0.166105 0.905639 0.222182
H73   H     H_    0.713797 0.136282 0.980226 0.249400
H74   H     H_    0.703829 0.363907 0.950917 0.244183
H75   H     H_    0.789744 0.288511 0.989189 0.205187
H76   H     H_    0.767998 0.323745 0.915005 0.201721
H77   H     H_    0.761186 0.984223 0.899310 0.166191
H78   H     H_    0.780020 0.943751 0.971849 0.186675
C115  C     C_3   0.285035 0.437333 0.441261 -0.368873
C116  C     C_3   0.265234 0.626650 0.446905 -0.320772
C117  C     C_3   0.213911 0.612457 0.442056 -0.684777
H79   H     H_    0.191695 0.555280 0.400826 0.222592
H80   H     H_    0.211162 0.522623 0.475258 0.254101
H81   H     H_    0.200464 0.750901 0.446473 0.241834
H82   H     H_    0.286597 0.688239 0.487885 0.201566
H83   H     H_    0.267037 0.719069 0.413689 0.201626
H84   H     H_    0.262623 0.375540 0.400859 0.162301
H85   H     H_    0.282782 0.343806 0.474023 0.184736
C118  C     C_3   0.716099 0.508803 0.559698 -0.373279
C119  C     C_3   0.733854 0.682133 0.540207 -0.336104
C120  C     C_3   0.781682 0.647840 0.535590 -0.677912
H86   H     H_    0.777865 0.546459 0.502138 0.240113
H87   H     H_    0.795470 0.778233 0.525393 0.242667
H88   H     H_    0.807472 0.593986 0.575391 0.233151
H89   H     H_    0.708273 0.725991 0.498854 0.205631
H90   H     H_    0.737454 0.795185 0.570409 0.200611
H91   H     H_    0.739789 0.479359 0.603185 0.168276
H92   H     H_    0.719008 0.388435 0.534676 0.185941

loop_
_geom_bond_atom_site_label_1
_geom_bond_atom_site_label_2
_ccdc_geom_bond_type
O17   V3    S    
C55   C59   A    
C106  H58   S    
C25   C29   A    
C1    C84   S    
C73   H25   S    
C57   C58   A    
C54   C66   A    
C47   N3    A    
O19   V1    S    
O13   V1    S    
O29   C97   S    
C78   H30   S    
O3    C7    A    
C112  C113  S    
C10   C18   A    
N4    C52   A    
C80   H32   S    
C11   C23   A    
C113  C114  S    
C108  H64   S    
C77   C81   A    
C33   C38   A    
C110  H69   S    
C5    C12   S    
C71   H23   S    
C109  C110  S    
C119  C120  S    
O1    C5    A    
C6    C11   S    
C106  H59   S    
C35   C40   A    
C26   C30   A    
C119  H90   S    
C52   C56   A    
C36   C39   A    
C40   C44   A    
C64   C71   A    
O9    V1    S    
C49   O25   S    
C23   H8    S    
C86   H34   S    
C24   C28   A    
C73   C93   A    
C110  H68   S    
C111  H66   S    
O4    C8    A    
C102  H49   S    
C51   C55   A    
C44   H4    S    
C43   H3    S    
C97   H37   S    
C50   C54   A    
C118  C119  S    
C100  H44   S    
C60   C64   A    
O1    V3    S    
C114  H74   S    
C9    C21   A    
C101  H46   S    
O2    V4    S    
C53   C57   A    
O3    V1    S    
C81   C85   A    
C40   H16   S    
C102  H50   S    
C28   C36   A    
C114  H73   S    
C90   C94   A    
C28   C32   A    
C109  H70   S    
C1    O15   A    
C99   H43   S    
C15   C31   A    
C48   N4    A    
C2    O16   A    
C16   C32   A    
C72   H24   S    
O2    C6    A    
C117  H79   S    
C74   C94   A    
C58   C62   A    
C105  H55   S    
C10   C22   A    
C83   C87   A    
C48   O24   S    
C11   C19   A    
C115  C116  S    
C66   C70   A    
C16   C20   A    
C90   O30   S    
C76   H28   S    
C48   C64   A    
C104  C105  S    
C13   C29   A    
C34   C37   A    
C79   C83   A    
C38   H14   S    
O15   V3    S    
C35   C36   A    
O12   C8    A    
C98   H39   S    
C120  H86   S    
C13   C17   A    
O32   C106  S    
C70   H22   S    
C24   H7    S    
C46   C62   A    
O10   V2    S    
C45   C61   A    
C112  H77   S    
N2    C50   A    
O5    V1    S    
C98   H40   S    
C57   C61   A    
N1    C94   S    
C106  C107  S    
C39   C43   A    
O7    V3    S    
C119  H89   S    
C38   C42   A    
C62   C69   A    
C87   H35   S    
O31   C103  S    
O8    V4    S    
C103  C104  S    
C84   C88   A    
C61   C70   A    
C88   H36   S    
C118  H91   S    
C9    C17   A    
C46   N2    A    
C111  H67   S    
C45   N1    A    
O18   V4    S    
C15   C19   A    
C76   C96   A    
C19   C118  S    
C32   C44   A    
C13   H9    S    
N1    C49   A    
C91   O31   S    
C39   H15   S    
C21   H6    S    
C15   H11   S    
C37   H13   S    
C79   H31   S    
C111  H65   S    
C47   O23   S    
C113  H76   S    
C2    C83   S    
C74   C78   A    
C53   C65   A    
C109  H71   S    
N3    C96   S    
C3    C82   S    
O7    C3    A    
C14   C30   A    
C21   C25   A    
C91   C95   A    
O8    C4    A    
C7    C10   S    
C55   C67   A    
C105  H57   S    
C16   H12   S    
C108  H62   S    
C56   C60   A    
C26   C34   A    
O9    C5    A    
C46   O22   S    
C116  H83   S    
C45   O21   S    
C65   C69   A    
C88   C92   A    
C17   C112  S    
C92   O32   S    
C66   H18   S    
O14   V2    S    
C23   C27   A    
C50   O26   S    
C92   C96   A    
C65   H17   S    
C99   H41   S    
O6    V2    S    
C56   C68   A    
C120  H87   S    
N2    C93   S    
C117  H80   S    
C117  H81   S    
C12   C20   A    
C27   C35   A    
C116  C117  S    
C20   C115  S    
C49   C53   A    
C68   C72   A    
C29   C41   A    
C112  H78   S    
C59   C63   A    
O16   V4    S    
C100  C101  S    
C51   O27   S    
C107  C108  S    
C3    O13   A    
C118  H92   S    
C114  H72   S    
C107  H60   S    
C4    C81   S    
C86   C90   A    
C52   O28   S    
O5    C1    A    
C74   H26   S    
C25   C33   A    
C31   C43   A    
C98   C99   S    
O11   V3    S    
C30   C42   A    
C77   H29   S    
O12   V4    S    
C14   H10   S    
C22   C26   A    
C73   C77   A    
C8    C9    S    
C101  C102  S    
C75   H27   S    
C87   C91   A    
C103  H51   S    
O10   C6    A    
C105  H56   S    
C89   O29   S    
O20   V2    S    
C80   C84   A    
C18   C109  S    
C54   C58   A    
C113  H75   S    
C67   H19   S    
N4    C95   S    
C78   C82   A    
C33   C34   A    
C42   H2    S    
C97   H38   S    
C41   H1    S    
C110  C111  S    
O11   C7    A    
C75   C79   A    
C108  H63   S    
C101  H47   S    
C12   C24   A    
C27   C31   A    
C116  H82   S    
C22   H5    S    
C85   H33   S    
O4    V2    S    
C63   C72   A    
C68   H20   S    
O6    C2    A    
N3    C51   A    
C104  H53   S    
C14   C18   A    
C37   C41   A    
C115  H85   S    
C100  H45   S    
C47   C63   A    
C102  H48   S    
C76   C80   A    
C82   C86   A    
C120  H88   S    
C4    O14   A    
C59   C60   A    
C75   C95   A    
C67   C71   A    
C69   H21   S    
C107  H61   S    
C85   C89   A    
C89   C93   A    
O30   C100  S    
C115  H84   S    
C103  H52   S    
C99   H42   S    
C104  H54   S    
C97   C98   S    
