data_mof_unit_31614.cif
_audit_creation_date              2012-12-10T18:32:51-0500
_audit_creation_method            fapswitch 2.2
_symmetry_space_group_name_H-M    P1
_symmetry_Int_Tables_number       1
_space_group_crystal_system       triclinic
_cell_length_a                    14.917028
_cell_length_b                    15.271245
_cell_length_c                    15.708846
_cell_angle_alpha                 89.456023
_cell_angle_beta                  105.027074
_cell_angle_gamma                 82.050049
_cell_volume                      3419.06176722

loop_
_atom_site_label
_atom_site_type_symbol
_atom_type_description
_atom_site_fract_x
_atom_site_fract_y
_atom_site_fract_z
_atom_type_partial_charge
C1    C     C_R   0.441347 0.663425 0.489363 0.933014
C2    C     C_3   0.408008 0.464874 0.027083 0.215379
C3    C     C_3   0.502767 0.490860 0.083472 -0.146499
C4    C     C_3   0.586874 0.419070 0.072743 0.653205
C5    C     C_3   0.594874 0.432455 0.976122 0.158167
C6    C     C_1   0.499090 0.494597 0.174128 0.094016
C7    C     C_1   0.505184 0.491942 0.826471 0.041067
C8    C     C_1   0.505052 0.495342 0.751212 -0.204133
C9    C     C_R   0.405795 0.757381 0.497764 -0.365414
C10   C     C_R   0.594831 0.243079 0.541527 -0.344658
C11   C     C_R   0.279029 0.875133 0.503883 0.292693
C12   C     C_R   0.501573 0.499143 0.661786 0.883234
C13   C     C_R   0.308962 0.787683 0.485351 0.340225
C14   C     C_R   0.471222 0.816226 0.525728 0.338494
C15   C     C_R   0.442421 0.900398 0.552635 -0.094424
C16   C     C_R   0.345324 0.933046 0.533156 -0.062646
C17   C     C_R   0.508574 0.957086 0.587805 0.117047
C18   C     C_R   0.480428 0.048333 0.572398 0.102957
C19   C     C_R   0.384077 0.081587 0.553606 -0.179456
C20   C     C_R   0.317471 0.024018 0.538900 -0.143511
C21   C     C_R   0.601852 0.926043 0.635335 -0.166079
C22   C     C_R   0.668097 0.983781 0.655370 -0.177430
C23   C     C_R   0.558868 0.336704 0.514515 0.946688
C24   C     C_R   0.644096 0.071894 0.622300 -0.065919
C25   C     C_R   0.550095 0.102771 0.575709 -0.105637
C26   C     C_R   0.712413 0.128787 0.632596 0.363826
C27   C     C_R   0.687967 0.214692 0.591927 0.294077
C28   C     C_R   0.529916 0.183123 0.525973 0.348774
C29   C     C_R   0.838190 0.649775 0.619858 0.364278
C30   C     C_R   0.751210 0.619110 0.604206 -0.116881
C31   C     C_R   0.792531 0.513899 0.505725 -0.065309
C32   C     C_R   0.880436 0.542231 0.516055 -0.089198
C33   C     C_R   0.902642 0.611348 0.574391 0.060827
C34   C     C_R   0.498620 0.500174 0.338126 0.866961
C35   C     C_R   0.947111 0.503148 0.471953 0.118252
C36   C     C_R   0.038464 0.528278 0.493013 0.110272
C37   C     C_R   0.056080 0.600345 0.547418 -0.255161
C38   C     C_R   0.989410 0.640994 0.586995 -0.141621
C39   C     C_R   0.925506 0.439992 0.407461 -0.215951
C40   C     C_R   0.993278 0.397473 0.370152 -0.160321
C41   C     C_R   0.085569 0.414770 0.396822 0.055505
C42   C     C_R   0.109194 0.480418 0.458885 -0.079171
C43   C     C_R   0.154741 0.367802 0.361748 0.364238
C44   C     C_R   0.246724 0.385167 0.391188 -0.089984
C45   C     C_3   0.413841 0.453807 0.929975 0.407089
C46   C     C_R   0.203847 0.493734 0.485866 -0.098953
C47   C     C_3   0.503286 0.587112 0.949032 0.242431
C48   C     C_3   0.509334 0.586143 0.049111 0.122811
C49   C     C_1   0.497218 0.497647 0.248964 -0.173442
C50   C     C_3   0.503363 0.489943 0.917492 -0.163604
H1    H     H_    0.422551 0.381475 0.921530 -0.052324
H2    H     H_    0.399163 0.399639 0.054584 0.056379
H3    H     H_    0.244292 0.052262 0.525184 0.205402
H4    H     H_    0.739030 0.957939 0.692161 0.187156
H5    H     H_    0.359929 0.151897 0.552163 0.193833
H6    H     H_    0.623470 0.857574 0.658652 0.178234
H7    H     H_    0.007385 0.694938 0.629436 0.202543
H8    H     H_    0.228840 0.540426 0.534035 0.171628
H9    H     H_    0.301399 0.349947 0.365908 0.162185
H10   H     H_    0.973164 0.349211 0.321314 0.197106
H11   H     H_    0.697103 0.649766 0.633127 0.161942
H12   H     H_    0.769858 0.461400 0.464033 0.146518
H13   H     H_    0.567537 0.611761 0.939884 0.106179
H14   H     H_    0.120872 0.627641 0.560344 0.174643
H15   H     H_    0.856278 0.422259 0.383385 0.163389
H16   H     H_    0.449350 0.632973 0.059514 0.223053
H17   H     H_    0.649685 0.476075 0.980685 0.170445
N1    N     N_R   0.731690 0.552720 0.548990 -0.115357
N2    N     N_R   0.268300 0.447240 0.450950 -0.124916
O1    O     O_R   0.383120 0.605620 0.475300 -0.579648
O2    O     O_R   0.531890 0.639510 0.506740 -0.565762
O3    O     O_R   0.425580 0.483050 0.607130 -0.615602
O4    O     O_R   0.574360 0.516930 0.638570 -0.612019
O5    O     O_R   0.468110 0.360490 0.493260 -0.566044
O6    O     O_R   0.616880 0.394380 0.524700 -0.579161
O7    O     O_R   0.425640 0.483070 0.361430 -0.635156
O8    O     O_R   0.574420 0.516950 0.392870 -0.597365
Zn1   Zn    Zn3+2 0.400660 0.477370 0.479010 0.950254
Zn2   Zn    Zn3+2 0.599340 0.522630 0.520990 0.972512
O9    O     O_3   0.332826 0.532050 0.030454 -0.588456
C51   C     C_3   0.252116 0.495947 0.035694 0.129826
H18   H     H_    0.262495 0.467627 0.103703 0.116448
H19   H     H_    0.236743 0.443344 0.987673 0.127959
C52   C     C_3   0.168555 0.570050 0.014632 -0.288665
H20   H     H_    0.182824 0.622909 0.062182 0.219936
H21   H     H_    0.159161 0.599311 0.947287 0.235098
C53   C     C_3   0.078318 0.536355 0.019279 -0.993706
H22   H     H_    0.060769 0.486272 0.969159 0.267847
H23   H     H_    0.019797 0.592372 0.005632 0.277660
H24   H     H_    0.086169 0.506569 0.086028 0.264409
Cl1   Cl    Cl    0.700040 0.433282 0.146167 -0.604003
O10   O     O_3   0.449148 0.201223 0.457027 -0.624372
C54   C     C_3   0.465400 0.157432 0.382341 0.089971
H25   H     H_    0.472927 0.084385 0.394004 0.148026
H26   H     H_    0.529975 0.174697 0.367262 0.118491
C55   C     C_3   0.382685 0.186052 0.302163 -0.326857
H27   H     H_    0.315955 0.178914 0.318832 0.256462
H28   H     H_    0.381668 0.256646 0.283638 0.200368
C56   C     C_3   0.389976 0.130532 0.223312 -0.994908
H29   H     H_    0.457199 0.134717 0.206613 0.263370
H30   H     H_    0.331290 0.155523 0.165171 0.269626
H31   H     H_    0.385825 0.060211 0.238344 0.270220
O11   O     O_3   0.754106 0.271949 0.606145 -0.612549
C57   C     C_3   0.816036 0.250378 0.552292 0.145076
H32   H     H_    0.785780 0.285408 0.486546 0.114990
H33   H     H_    0.829249 0.178010 0.541884 0.169427
C58   C     C_3   0.910146 0.280737 0.595648 -0.337811
H34   H     H_    0.901325 0.354164 0.594117 0.219458
H35   H     H_    0.934336 0.256004 0.665815 0.235697
C59   C     C_3   0.984944 0.246179 0.548966 -0.923121
H36   H     H_    0.003649 0.173281 0.560439 0.281463
H37   H     H_    0.048927 0.277359 0.575187 0.270552
H38   H     H_    0.958952 0.261787 0.476917 0.269809
Cl2   Cl    Cl    0.157829 0.909906 0.490280 -0.625374
O12   O     O_3   0.243058 0.731658 0.456133 -0.593018
C60   C     C_3   0.212597 0.740456 0.362993 0.144883
H39   H     H_    0.273141 0.730059 0.332979 0.101757
H40   H     H_    0.172303 0.807448 0.341561 0.178075
C61   C     C_3   0.149134 0.670934 0.329051 -0.309559
H41   H     H_    0.191603 0.604229 0.342213 0.226567
H42   H     H_    0.092977 0.674261 0.364133 0.247641
C62   C     C_3   0.104221 0.684645 0.230082 -0.963547
H43   H     H_    0.057184 0.749043 0.215255 0.277462
H44   H     H_    0.062226 0.630729 0.206861 0.277237
H45   H     H_    0.159333 0.683607 0.194199 0.258137
O13   O     O_3   0.563050 0.793508 0.521166 -0.627216
C63   C     C_3   0.570011 0.822592 0.437758 0.104687
H46   H     H_    0.553846 0.896141 0.429474 0.130040
H47   H     H_    0.520969 0.792691 0.383624 0.130105
C64   C     C_3   0.670144 0.794024 0.431152 -0.305917
H48   H     H_    0.720237 0.820809 0.486524 0.243655
H49   H     H_    0.685933 0.720603 0.436362 0.242843
C65   C     C_3   0.683347 0.826937 0.343834 -0.897829
H50   H     H_    0.634954 0.799669 0.287596 0.286389
H51   H     H_    0.756621 0.804774 0.341133 0.282526
H52   H     H_    0.669647 0.900417 0.337716 0.252467
O14   O     O_3   0.331137 0.498358 0.869572 -0.545056
C66   C     C_3   0.281678 0.437939 0.815130 0.073723
H53   H     H_    0.269406 0.382628 0.855556 0.109436
H54   H     H_    0.322299 0.410498 0.768682 0.142994
C67   C     C_3   0.186283 0.485561 0.762333 -0.295389
H55   H     H_    0.147011 0.515967 0.808441 0.222476
H56   H     H_    0.196542 0.539036 0.718858 0.226058
C68   C     C_3   0.128618 0.421406 0.706215 -0.972434
H57   H     H_    0.163237 0.394829 0.655282 0.270205
H58   H     H_    0.057611 0.456253 0.672938 0.275831
H59   H     H_    0.120465 0.365636 0.748166 0.261663
O15   O     O_3   0.804594 0.099023 0.677875 -0.637304
C69   C     C_3   0.819086 0.124356 0.765986 0.082774
H60   H     H_    0.771431 0.094968 0.798507 0.135884
H61   H     H_    0.807229 0.197802 0.768762 0.175621
C70   C     C_3   0.920201 0.090383 0.816677 -0.319838
H62   H     H_    0.933110 0.017048 0.814707 0.227199
H63   H     H_    0.968998 0.118540 0.784849 0.229340
C71   C     C_3   0.939839 0.116215 0.912681 -0.971254
H64   H     H_    0.929224 0.189409 0.916249 0.273929
H65   H     H_    0.013600 0.090274 0.947838 0.267002
H66   H     H_    0.892565 0.087765 0.946112 0.268840
O16   O     O_3   0.859029 0.721633 0.671587 -0.649713
C72   C     C_3   0.831121 0.717178 0.750748 0.068735
H67   H     H_    0.845755 0.648236 0.780303 0.137871
H68   H     H_    0.755091 0.742586 0.737857 0.138154
C73   C     C_3   0.885780 0.775862 0.817148 -0.323944
H69   H     H_    0.961987 0.750338 0.832286 0.225787
H70   H     H_    0.874216 0.844449 0.788035 0.226891
C74   C     C_3   0.855001 0.777772 0.902574 -0.946318
H71   H     H_    0.779435 0.805156 0.889161 0.266608
H72   H     H_    0.896415 0.820417 0.949478 0.268774
H73   H     H_    0.866900 0.709990 0.933505 0.271324
O17   O     O_3   0.134045 0.300759 0.304424 -0.649537
C75   C     C_3   0.132850 0.330376 0.218653 0.045269
H74   H     H_    0.202300 0.348235 0.216773 0.121659
H75   H     H_    0.077644 0.388912 0.195886 0.153443
C76   C     C_3   0.110748 0.255975 0.155677 -0.279076
H76   H     H_    0.164255 0.196603 0.178866 0.227025
H77   H     H_    0.040909 0.238179 0.155495 0.234973
C77   C     C_3   0.110272 0.283304 0.061860 -0.995007
H78   H     H_    0.053327 0.339217 0.035561 0.278675
H79   H     H_    0.097820 0.226691 0.018699 0.271046
H80   H     H_    0.178795 0.303255 0.060602 0.253354
O18   O     O_3   0.419654 0.642799 0.902702 -0.562081
C78   C     C_3   0.435001 0.700344 0.838173 0.135157
H81   H     H_    0.368417 0.714956 0.785260 0.174673
H82   H     H_    0.488986 0.670069 0.805611 0.111313
C79   C     C_3   0.460906 0.787505 0.877983 -0.378013
H83   H     H_    0.403824 0.819443 0.905765 0.238751
H84   H     H_    0.526462 0.774219 0.932289 0.242941
C80   C     C_3   0.475626 0.850627 0.808409 -0.940764
H85   H     H_    0.533832 0.820569 0.781139 0.255691
H86   H     H_    0.493909 0.913342 0.838806 0.272347
H87   H     H_    0.410580 0.866058 0.753773 0.274724
Cl3   Cl    Cl    0.609677 0.632723 0.110096 -0.615130
O19   O     O_3   0.635419 0.354727 0.941205 -0.590006
C81   C     C_3   0.573659 0.295632 0.900284 0.172936
H88   H     H_    0.520347 0.327011 0.841375 0.119541
H89   H     H_    0.538878 0.268149 0.946535 0.181184
C82   C     C_3   0.630156 0.217768 0.868170 -0.360869
H90   H     H_    0.666144 0.243113 0.821406 0.222052
H91   H     H_    0.684216 0.182873 0.925286 0.232470
C83   C     C_3   0.566937 0.152461 0.821519 -0.995411
H92   H     H_    0.528270 0.127733 0.866226 0.268556
H93   H     H_    0.610038 0.094995 0.801916 0.271733
H94   H     H_    0.515874 0.184804 0.761203 0.269640
O20   O     O_3   0.565669 0.331725 0.082252 -0.693917
C84   C     C_3   0.588119 0.294802 0.169646 0.097550
H95   H     H_    0.525340 0.268339 0.178636 0.136402
H96   H     H_    0.605647 0.342450 0.222101 0.165743
C85   C     C_3   0.669041 0.218312 0.181738 -0.262236
H97   H     H_    0.649720 0.169426 0.130617 0.216915
H98   H     H_    0.732432 0.243863 0.173018 0.262168
C86   C     C_3   0.692471 0.171886 0.272889 -1.006734
H99   H     H_    0.706869 0.220179 0.325433 0.258674
H100  H     H_    0.755747 0.121466 0.281532 0.280960
H101  H     H_    0.633436 0.137806 0.279418 0.255414

loop_
_geom_bond_atom_site_label_1
_geom_bond_atom_site_label_2
_ccdc_geom_bond_type
C10   C27   A    
C81   H89   S    
C53   H22   S    
C56   H29   S    
C54   H25   S    
C40   H10   S    
O1    Zn1   S    
C58   H35   S    
C41   C42   A    
C36   C42   A    
C35   C36   A    
C52   C53   S    
C5    H17   S    
C3    C6    S    
C37   H14   S    
C79   H84   S    
C57   H33   S    
C51   H18   S    
C7    C8    T    
C29   O16   S    
C84   H95   S    
C25   C28   A    
C75   H75   S    
C26   C27   A    
C1    O2    A    
C80   H87   S    
C36   C37   A    
C73   H70   S    
C24   C26   A    
C67   H56   S    
C34   O8    A    
C47   H13   S    
C76   H76   S    
C4    O20   S    
C81   C82   S    
C71   H65   S    
O17   C75   S    
C45   H1    S    
C44   H9    S    
C10   C28   A    
C15   C16   A    
C55   C56   S    
C29   C33   A    
C3    C48   S    
C60   H39   S    
C80   H86   S    
C18   C19   A    
C42   C46   A    
C82   H91   S    
C11   Cl2   S    
C9    C13   A    
C59   H36   S    
C46   N2    A    
O3    Zn1   S    
C78   H81   S    
C86   H99   S    
C85   H97   S    
C77   H79   S    
C55   H28   S    
C12   O4    A    
C65   H52   S    
C58   H34   S    
C64   H49   S    
C8    C12   S    
C29   C30   A    
C47   O18   S    
C4    Cl1   S    
N1    Zn2   S    
C61   H42   S    
C81   H88   S    
C12   O3    A    
C54   H26   S    
C21   C22   A    
C46   H8    S    
C71   H66   S    
C74   H72   S    
C41   C43   A    
C31   H12   S    
N2    Zn1   S    
C18   C25   A    
C68   H59   S    
O2    Zn2   S    
C57   H32   S    
C51   H19   S    
C43   O17   S    
C47   C50   S    
C78   H82   S    
C84   H96   S    
C2    C45   S    
C31   N1    A    
C75   C76   S    
C30   H11   S    
C32   C35   A    
C73   C74   S    
C1    C9    S    
C24   C25   A    
C68   H58   S    
C72   C73   S    
C67   C68   S    
C23   O6    A    
C39   C40   A    
C83   H92   S    
C79   C80   S    
O18   C78   S    
C17   C21   A    
C3    C4    S    
C76   C77   S    
C80   H85   S    
C78   C79   S    
C72   H68   S    
C82   C83   S    
C35   C39   A    
C9    C14   A    
C63   H47   S    
C37   C38   A    
C38   H7    S    
C11   C16   A    
C47   C48   S    
C59   H38   S    
C70   C71   S    
C16   C20   A    
C77   H80   S    
C55   H27   S    
C56   H31   S    
C45   O14   S    
C17   C18   A    
O4    Zn2   S    
O8    Zn2   S    
C44   N2    A    
C28   O10   S    
C52   H20   S    
C26   O15   S    
C75   H74   S    
C13   O12   S    
C2    H2    S    
C20   H3    S    
C83   H93   S    
C40   C41   A    
C86   H100  S    
C70   H63   S    
O19   C81   S    
C54   C55   S    
C22   H4    S    
C53   H23   S    
C43   C44   A    
C85   C86   S    
C65   H50   S    
C58   C59   S    
C22   C24   A    
C5    C50   S    
C69   C70   S    
C64   C65   S    
C23   O5    A    
C62   H44   S    
C63   H46   S    
C71   H64   S    
C51   C52   S    
C5    O19   S    
C84   C85   S    
C19   H5    S    
C15   C17   A    
C34   C49   S    
C56   H30   S    
C31   C32   A    
C1    O1    A    
C7    C50   S    
O7    Zn1   S    
O9    C51   S    
C66   C67   S    
C21   H6    S    
C61   H41   S    
C66   H54   S    
C10   C23   S    
O14   C66   S    
C39   H15   S    
C33   C38   A    
C14   O13   S    
C60   C61   S    
C83   H94   S    
C68   H57   S    
C72   H67   S    
C19   C20   A    
C69   H61   S    
C2    C3    S    
O16   C72   S    
C63   C64   S    
C67   H55   S    
C32   C33   A    
C11   C13   A    
C79   H83   S    
C74   H71   S    
C45   C50   S    
C62   H45   S    
O13   C63   S    
C27   O11   S    
O10   C54   S    
C61   C62   S    
C76   H77   S    
C60   H40   S    
C64   H48   S    
O15   C69   S    
C6    C49   T    
C82   H90   S    
C59   H37   S    
C48   Cl3   S    
C73   H69   S    
C2    O9    S    
C66   H53   S    
C4    C5    S    
C86   H101  S    
O20   C84   S    
C74   H73   S    
C85   H98   S    
C77   H78   S    
O5    Zn1   S    
C53   H24   S    
O11   C57   S    
C65   H51   S    
C14   C15   A    
C52   H21   S    
C70   H62   S    
C48   H16   S    
C62   H43   S    
C69   H60   S    
O6    Zn2   S    
C57   C58   S    
C30   N1    A    
O12   C60   S    
C34   O7    A    
