data_mof_unit_39851.cif
_audit_creation_date              2012-12-10T18:23:53-0500
_audit_creation_method            fapswitch 2.2
_symmetry_space_group_name_H-M    P1
_symmetry_Int_Tables_number       1
_space_group_crystal_system       triclinic
_cell_length_a                    15.718523
_cell_length_b                    14.988176
_cell_length_c                    14.022632
_cell_angle_alpha                 90.177072
_cell_angle_beta                  90.076273
_cell_angle_gamma                 90.103401
_cell_volume                      3303.59565827

loop_
_atom_site_label
_atom_site_type_symbol
_atom_type_description
_atom_site_fract_x
_atom_site_fract_y
_atom_site_fract_z
_atom_type_partial_charge
C1    C     C_R   0.500330 0.326621 0.499921 0.874607
C2    C     C_R   0.499669 0.673379 0.500079 0.874608
C3    C     C_R   0.499603 0.769066 0.500123 -0.101366
C4    C     C_R   0.500393 0.230934 0.499877 -0.101366
C5    C     C_R   0.531492 0.814327 0.421350 -0.198116
C6    C     C_R   0.468505 0.185673 0.578651 -0.198111
C7    C     C_R   0.536396 0.906743 0.422370 -0.041779
C8    C     C_R   0.463600 0.093257 0.577631 -0.041774
C9    C     C_R   0.500113 0.953580 0.500110 -0.059842
C10   C     C_R   0.499878 0.046419 0.499888 -0.059845
C11   C     C_R   0.464212 0.907231 0.578175 -0.037199
C12   C     C_R   0.535779 0.092768 0.421823 -0.037199
C13   C     C_R   0.576268 0.952952 0.347090 0.376302
C14   C     C_R   0.423732 0.047048 0.652915 0.376288
C15   C     C_R   0.574930 0.046252 0.346224 0.371683
C16   C     C_R   0.425064 0.953748 0.653776 0.371675
C17   C     C_R   0.466544 0.570884 0.798460 -0.011440
C18   C     C_R   0.533456 0.429116 0.201540 -0.011443
C19   C     C_R   0.533870 0.429270 0.797824 -0.040743
C20   C     C_R   0.466135 0.570734 0.202175 -0.040697
C21   C     C_R   0.535406 0.427437 0.898642 -0.105522
C22   C     C_R   0.464603 0.572569 0.101358 -0.105503
C23   C     C_R   0.337750 0.500031 0.499929 0.910662
C24   C     C_R   0.662250 0.499968 0.500071 0.910664
C25   C     C_R   0.500231 0.499921 0.949419 0.020635
C26   C     C_R   0.499772 0.500081 0.050581 0.020641
C27   C     C_R   0.465785 0.572469 0.898985 -0.035897
C28   C     C_R   0.534219 0.427533 0.101015 -0.035915
C29   C     C_R   0.571184 0.355453 0.949905 0.521678
C30   C     C_R   0.428841 0.644565 0.050096 0.521532
C31   C     C_R   0.568549 0.355250 0.050216 -0.278057
C32   C     C_R   0.431467 0.644761 0.949784 -0.278034
C33   C     C_3   0.971989 0.451823 0.574341 -0.166135
C34   C     C_3   0.028010 0.548178 0.425660 -0.166135
C35   C     C_3   0.028005 0.415610 0.492338 -0.166958
C36   C     C_3   0.971994 0.584391 0.507663 -0.166957
C37   C     C_1   0.248778 0.500081 0.499820 -0.193298
C38   C     C_1   0.751222 0.499919 0.500180 -0.193300
C39   C     C_3   0.028345 0.536268 0.581891 -0.162693
C40   C     C_3   0.971655 0.463732 0.418110 -0.162692
C41   C     C_3   0.082558 0.500055 0.499889 0.212363
C42   C     C_3   0.917442 0.499946 0.500112 0.212364
C43   C     C_1   0.173444 0.500092 0.499812 -0.087558
C44   C     C_1   0.826556 0.499908 0.500188 -0.087557
C45   C     C_R   0.467647 0.814720 0.578767 -0.186768
C46   C     C_R   0.532346 0.185279 0.421231 -0.186761
H1    H     H_    0.946879 0.412455 0.635082 0.129873
H2    H     H_    0.053120 0.587546 0.364919 0.129873
N1    N     N_R   0.500040 0.500070 0.750030 -0.109893
N2    N     N_R   0.499960 0.499930 0.249970 -0.109899
O1    O     O_R   0.500020 0.367860 0.580280 -0.632426
O2    O     O_R   0.499980 0.632140 0.419720 -0.632427
O3    O     O_R   0.500020 0.367840 0.419730 -0.629171
O4    O     O_R   0.499980 0.632160 0.580270 -0.629169
O5    O     O_R   0.376770 0.500000 0.580260 -0.614497
O6    O     O_R   0.623230 0.500000 0.419740 -0.614496
O7    O     O_R   0.376780 0.499980 0.419710 -0.613701
O8    O     O_R   0.623220 0.500020 0.580290 -0.613705
Zn1   Zn    Zn3+2 0.499990 0.500020 0.607200 0.946821
Zn2   Zn    Zn3+2 0.500010 0.499980 0.392800 0.946824
H3    H     H_    0.053109 0.346655 0.486075 0.130043
H4    H     H_    0.946891 0.653346 0.513926 0.130044
O9    O     O_3   0.604397 0.282107 0.902888 -0.603444
C47   C     C_3   0.689744 0.299509 0.876423 0.094422
H5    H     H_    0.703394 0.371349 0.861980 0.114856
H6    H     H_    0.702445 0.263230 0.808767 0.170845
C48   C     C_3   0.751020 0.264588 0.951885 -0.869614
H7    H     H_    0.737931 0.193037 0.966121 0.273044
H8    H     H_    0.817479 0.271578 0.926205 0.214721
H9    H     H_    0.744228 0.303313 0.019017 0.243272
O10   O     O_3   0.395668 0.717934 0.097117 -0.603418
C49   C     C_3   0.310288 0.700604 0.123529 0.094529
H10   H     H_    0.297627 0.736798 0.191246 0.170802
H11   H     H_    0.296545 0.628750 0.137834 0.114792
C50   C     C_3   0.249047 0.735737 0.048120 -0.869482
H12   H     H_    0.255808 0.697125 0.980912 0.243249
H13   H     H_    0.182570 0.728779 0.073759 0.214685
H14   H     H_    0.262210 0.807307 0.034040 0.273050
H15   H     H_    0.593935 0.298470 0.088259 0.179756
H16   H     H_    0.406096 0.701551 0.911741 0.179748
H17   H     H_    0.946262 0.434088 0.351209 0.132347
H18   H     H_    0.053738 0.565913 0.648792 0.132346
H19   H     H_    0.442969 0.777561 0.638835 0.185398
H20   H     H_    0.557025 0.222438 0.361163 0.185402
H21   H     H_    0.553764 0.776878 0.360165 0.189460
H22   H     H_    0.446237 0.223122 0.639837 0.189450
O11   O     O_3   0.613157 0.908055 0.271217 -0.562052
C51   C     C_3   0.695424 0.878680 0.297820 0.093984
H23   H     H_    0.691530 0.815771 0.339165 0.136711
H24   H     H_    0.730641 0.928543 0.341949 0.092429
C52   C     C_3   0.747003 0.860302 0.208230 -0.784252
H25   H     H_    0.752923 0.922152 0.165318 0.257320
H26   H     H_    0.811618 0.836868 0.228041 0.191836
H27   H     H_    0.715211 0.807995 0.164578 0.264210
O12   O     O_3   0.386862 0.091946 0.728801 -0.562045
C53   C     C_3   0.304588 0.121329 0.702226 0.094000
H28   H     H_    0.269358 0.071477 0.658096 0.092422
H29   H     H_    0.308475 0.184242 0.660891 0.136704
C54   C     C_3   0.253028 0.139696 0.791834 -0.784235
H30   H     H_    0.284839 0.191985 0.835495 0.264211
H31   H     H_    0.188411 0.163148 0.772044 0.191835
H32   H     H_    0.247109 0.077838 0.834730 0.257319
O13   O     O_3   0.606334 0.091438 0.267658 -0.564536
C55   C     C_3   0.691058 0.118809 0.285674 0.103182
H33   H     H_    0.735366 0.063514 0.269008 0.158811
H34   H     H_    0.701791 0.140906 0.360830 0.108615
C56   C     C_3   0.713069 0.196444 0.220656 -0.848500
H35   H     H_    0.672355 0.254704 0.237804 0.234219
H36   H     H_    0.780734 0.215717 0.230791 0.207281
H37   H     H_    0.703019 0.176874 0.145064 0.274154
O14   O     O_3   0.393664 0.908562 0.732344 -0.564524
C57   C     C_3   0.308941 0.881186 0.714330 0.103210
H38   H     H_    0.298214 0.859070 0.639178 0.108617
H39   H     H_    0.264628 0.936482 0.730976 0.158778
C58   C     C_3   0.286927 0.803566 0.779367 -0.848547
H40   H     H_    0.296965 0.823155 0.854957 0.274156
H41   H     H_    0.219265 0.784286 0.769227 0.207276
H42   H     H_    0.327648 0.745306 0.762243 0.234227
H43   H     H_    0.440136 0.625997 0.758617 0.126508
H44   H     H_    0.559864 0.374003 0.241383 0.126510
H45   H     H_    0.559925 0.374456 0.756997 0.163406
H46   H     H_    0.440082 0.625548 0.243002 0.163409

loop_
_geom_bond_atom_site_label_1
_geom_bond_atom_site_label_2
_ccdc_geom_bond_type
O11   C51   S    
C29   O9    S    
O5    Zn1   S    
C56   H36   S    
C36   C42   S    
O14   C57   S    
C24   O6    A    
C55   H34   S    
C30   O10   S    
C39   C41   S    
C4    C46   A    
C33   C39   S    
C34   C40   S    
C33   C42   S    
C19   C21   A    
C32   H16   S    
C58   H40   S    
C53   C54   S    
C23   O7    A    
C1    O3    A    
C57   H38   S    
C20   N2    A    
O2    Zn2   S    
O12   C53   S    
C58   H41   S    
C53   H29   S    
C24   C38   S    
C56   H35   S    
C51   C52   S    
C9    C10   A    
C20   H46   S    
C5    H21   S    
C40   C42   S    
C24   O8    A    
C41   C43   S    
C45   H19   S    
C34   C41   S    
C42   C44   S    
C49   C50   S    
C36   H4    S    
C10   C12   A    
C57   H39   S    
C55   H33   S    
O3    Zn2   S    
O4    Zn1   S    
C36   C39   S    
C48   H7    S    
C17   C27   A    
C47   C48   S    
C18   C28   A    
C49   H11   S    
C2    O4    A    
C17   N1    A    
C52   H25   S    
C5    C7    A    
O7    Zn2   S    
C6    C8    A    
O8    Zn1   S    
C23   C37   S    
C21   C29   A    
C3    C45   A    
O6    Zn2   S    
C48   H8    S    
C47   H6    S    
C37   C43   T    
C50   H12   S    
C38   C44   T    
C52   H26   S    
C50   H13   S    
C11   C16   A    
C19   N1    A    
C54   H30   S    
C12   C15   A    
C58   H42   S    
C53   H28   S    
C13   O11   S    
C35   H3    S    
C23   O5    A    
C1    O1    A    
C2    O2    A    
C46   H20   S    
C12   C46   A    
C54   H31   S    
C51   H24   S    
C9    C11   A    
C33   H1    S    
C56   H37   S    
C14   C16   A    
C11   C45   A    
C4    C6    A    
O1    Zn1   S    
C18   H44   S    
C14   O12   S    
C18   N2    A    
C7    C9    A    
C21   C25   A    
C19   H45   S    
C8    C14   A    
C22   C30   A    
C27   C32   A    
C40   H17   S    
C28   C31   A    
C39   H18   S    
C20   C22   A    
C49   H10   S    
C3    C5    A    
N1    Zn1   S    
C31   H15   S    
C25   C27   A    
C26   C28   A    
C6    H22   S    
C1    C4    S    
N2    Zn2   S    
C47   H5    S    
C48   H9    S    
C13   C15   A    
C2    C3    S    
C25   C26   A    
O10   C49   S    
C29   C31   A    
C52   H27   S    
C30   C32   A    
C33   C35   S    
C35   C40   S    
C34   C36   S    
C55   C56   S    
C35   C41   S    
C50   H14   S    
C17   H43   S    
O9    C47   S    
C7    C13   A    
C54   H32   S    
C34   H2    S    
C51   H23   S    
C8    C10   A    
C22   C26   A    
O13   C55   S    
C15   O13   S    
C57   C58   S    
C16   O14   S    
