data_mof_unit_11863.cif
_audit_creation_date              2013-03-05T16:04:20-0500
_audit_creation_method            fapswitch 2.2
_symmetry_space_group_name_H-M    P1
_symmetry_Int_Tables_number       1
_space_group_crystal_system       triclinic
_cell_length_a                    9.522738
_cell_length_b                    10.831698
_cell_length_c                    13.455781
_cell_angle_alpha                 89.658638
_cell_angle_beta                  73.153877
_cell_angle_gamma                 89.881704
_cell_volume                      1328.34459175

loop_
_atom_site_label
_atom_site_type_symbol
_atom_site_description
_atom_site_fract_x
_atom_site_fract_y
_atom_site_fract_z
_atom_type_partial_charge
O1    O     O_R   0.381250 0.680340 0.500010 -0.586149
O2    O     O_R   0.618820 0.680370 0.500010 -0.589375
C1    C     C_R   0.499928 0.737911 0.500042 0.796965
O3    O     O_R   0.323240 0.499950 0.650980 -0.587047
O4    O     O_R   0.560810 0.499980 0.650980 -0.562868
C2    C     C_R   0.423422 0.483684 0.698749 0.817746
Cu1   Cu    Cu3+1 0.359340 0.499980 0.500000 0.947433
Cu2   Cu    Cu3+1 0.640660 0.500020 0.500000 0.961947
O5    O     O_R   0.381180 0.319630 0.499990 -0.591322
O6    O     O_R   0.618750 0.319660 0.499990 -0.567815
O7    O     O_R   0.439190 0.500020 0.349020 -0.590192
O8    O     O_R   0.676760 0.500050 0.349020 -0.590033
C3    C     C_R   0.500186 0.262082 0.499624 0.801734
C4    C     C_R   0.577687 0.502199 0.300100 0.795766
C5    C     C_R   0.803440 0.514815 0.019669 -0.184245
H1    H     H_    0.849915 0.543692 0.164249 0.150474
H2    H     H_    0.857946 0.441238 0.825410 0.159533
H3    H     H_    0.915417 0.532120 0.974206 0.131616
C6    C     C_R   0.620506 0.502104 0.186456 -0.047045
C7    C     C_R   0.232675 0.436490 0.864598 -0.182187
C8    C     C_R   0.189072 0.420513 0.971750 -0.151137
C9    C     C_R   0.290136 0.432125 0.027629 -0.159988
C10   C     C_R   0.441239 0.447244 0.975907 0.057208
C11   C     C_R   0.487842 0.438114 0.866124 0.034903
C12   C     C_R   0.548414 0.469496 0.028681 0.073442
C13   C     C_R   0.697898 0.482284 0.970643 0.132246
C14   C     C_R   0.742239 0.451452 0.866002 -0.281104
C15   C     C_R   0.638706 0.416523 0.817333 0.165586
C16   C     C_R   0.512410 0.480418 0.136848 -0.233774
C17   C     C_R   0.765727 0.522737 0.127368 -0.198408
C18   C     C_R   0.381748 0.450318 0.810516 -0.094801
H4    H     H_    0.401103 0.469686 0.184624 0.145550
H5    H     H_    0.149552 0.437634 0.824121 0.150652
H6    H     H_    0.246180 0.426442 0.110791 0.115776
H7    H     H_    0.075475 0.403061 0.012889 0.140693
C19   C     C_R   0.630073 0.935936 0.493028 -0.178288
H8    H     H_    0.731763 0.887740 0.487695 0.151560
C20   C     C_R   0.630286 0.063646 0.492602 -0.154750
H9    H     H_    0.732145 0.111508 0.486780 0.165081
C21   C     C_R   0.500268 0.128232 0.499437 -0.016995
C22   C     C_R   0.370166 0.064076 0.506177 -0.178834
H10   H     H_    0.268462 0.112288 0.511575 0.157332
C23   C     C_R   0.370021 0.936348 0.506343 -0.178872
H11   H     H_    0.268270 0.888457 0.511833 0.151379
C24   C     C_R   0.499949 0.871772 0.499859 -0.024519
C25   C     C_R   0.897970 0.572816 0.567231 0.000285
H12   H     H_    0.819791 0.631111 0.621173 0.126158
C26   C     C_R   0.046700 0.572574 0.567362 -0.028602
H13   H     H_    0.080551 0.630742 0.621327 0.120019
N1    N     N_R   0.147940 0.499970 0.499970 -0.157074
C27   C     C_R   0.102023 0.427198 0.432744 -0.020240
C28   C     C_R   0.953209 0.427208 0.432789 -0.007087
H14   H     H_    0.919234 0.368758 0.379056 0.114383
N2    N     N_R   0.852060 0.500060 0.499990 -0.149386
H15   H     H_    0.180144 0.368727 0.378929 0.114041
I1    I     I_    0.711678 0.274285 0.706191 -0.387371

loop_
_geom_bond_atom_site_label_1
_geom_bond_atom_site_label_2
_geom_bond_distance
_ccdc_geom_bond_type
C5    H3    1.080638 S    
Cu1   O7    1.951932 S    
C10   C11   1.417913 A    
Cu2   O6    1.965148 S    
C8    H7    1.079294 S    
O4    Cu2   1.951930 S    
C22   C23   1.383502 A    
C22   H10   1.083312 S    
Cu2   O8    1.959743 S    
C25   N2    1.367482 A    
C19   C20   1.383294 A    
C2    C18   1.482579 S    
C15   I1    2.124575 S    
C11   C18   1.426363 A    
C19   C24   1.401331 A    
O6    C3    1.292253 A    
C8    C9    1.388666 A    
C28   H14   1.081732 S    
C20   C21   1.400720 A    
C23   C24   1.400812 A    
C13   C14   1.390242 A    
O4    C2    1.291578 A    
O3    Cu1   1.959742 S    
C26   H13   1.081727 S    
C7    H5    1.083110 S    
C26   N1    1.367065 A    
C21   C22   1.401342 A    
C28   N2    1.366992 A    
N1    C27   1.367455 A    
C16   H4    1.074678 S    
C27   H15   1.081756 S    
C10   C12   1.423761 A    
C23   H11   1.083308 S    
C12   C16   1.400928 A    
C20   H9    1.083196 S    
C9    H6    1.076561 S    
O7    C4    1.292295 A    
C25   C26   1.416829 A    
H1    C17   1.083138 S    
C27   C28   1.416942 A    
H2    C14   1.084459 S    
Cu1   Cu2   2.678939 S    
C7    C8    1.389792 A    
C5    C17   1.391460 A    
O3    C2    1.306788 A    
Cu2   N2    2.013069 S    
C14   C15   1.386642 A    
Cu1   O5    1.964105 S    
O5    C3    1.291020 A    
C25   H12   1.081716 S    
C19   H8    1.083283 S    
C5    C13   1.399276 A    
O2    C1    1.291161 A    
O1    C1    1.292002 A    
C12   C13   1.417963 A    
O1    Cu1   1.965148 S    
C6    C17   1.398706 A    
C4    C6    1.463984 S    
C1    C24   1.449932 S    
C9    C10   1.414517 A    
O2    Cu2   1.964107 S    
C11   C15   1.415415 A    
Cu1   N1    2.013224 S    
O8    C4    1.297545 A    
C3    C21   1.449843 S    
C7    C18   1.402870 A    
C6    C16   1.400530 A    
