data_mof_unit_6324.cif
_audit_creation_date              2012-12-11T15:10:52-0500
_audit_creation_method            fapswitch 2.2
_symmetry_space_group_name_H-M    P1
_symmetry_Int_Tables_number       1
_space_group_crystal_system       monoclinic
_cell_length_a                    13.574969
_cell_length_b                    13.574972
_cell_length_c                    28.147722
_cell_angle_alpha                 90.0
_cell_angle_beta                  90.0
_cell_angle_gamma                 120.0002
_cell_volume                      4492.11430342

loop_
_atom_site_label
_atom_site_type_symbol
_atom_type_description
_atom_site_fract_x
_atom_site_fract_y
_atom_site_fract_z
_atom_type_partial_charge
C1    C     C_R   0.544979 0.434724 0.184211 0.544814
C2    C     C_3   0.893361 0.513880 0.531695 -0.124378
C3    C     C_3   0.657582 0.788201 0.924238 0.012575
C4    C     C_3   0.750426 0.782977 0.895277 -0.251982
C5    C     C_3   0.782007 0.857959 0.851096 -0.479045
C6    C     C_3   0.789241 0.129521 0.425250 0.011543
C7    C     C_3   0.784777 0.031696 0.396373 -0.246066
C8    C     C_3   0.867994 0.076012 0.354734 -0.479223
C9    C     C_3   0.870480 0.659720 0.425250 0.011543
C10   C     C_3   0.968304 0.753081 0.396373 -0.246066
C11   C     C_3   0.923989 0.791983 0.354734 -0.479223
C12   C     C_3   0.340279 0.210758 0.425250 0.011543
C13   C     C_3   0.620520 0.106640 0.531695 -0.124378
C14   C     C_3   0.246919 0.215222 0.396373 -0.246066
C15   C     C_3   0.208017 0.132004 0.354734 -0.479223
C16   C     C_3   0.129521 0.789241 0.574750 0.011543
C17   C     C_3   0.031696 0.784777 0.603627 -0.246066
C18   C     C_3   0.076012 0.867994 0.645266 -0.479223
C19   C     C_3   0.659720 0.870480 0.574750 0.011543
C20   C     C_3   0.753081 0.968304 0.603627 -0.246066
C21   C     C_3   0.791983 0.923988 0.645266 -0.479223
C22   C     C_3   0.210758 0.340280 0.574750 0.011543
C23   C     C_3   0.215222 0.246919 0.603627 -0.246066
C24   C     C_3   0.486119 0.379480 0.531696 -0.124378
C25   C     C_3   0.132004 0.208017 0.645266 -0.479223
C26   C     C_1   0.480012 0.944268 0.638514 -0.047188
C27   C     C_1   0.055732 0.535743 0.638514 -0.047188
C28   C     C_1   0.464257 0.519988 0.638514 -0.047188
C29   C     C_1   0.944268 0.480012 0.361486 -0.047188
C30   C     C_1   0.535743 0.055732 0.361486 -0.047188
C31   C     C_1   0.519988 0.464256 0.361486 -0.047188
C32   C     C_3   0.527459 0.010234 0.453562 0.060207
C33   C     C_R   0.565276 0.110255 0.184211 0.544814
C34   C     C_3   0.989766 0.517226 0.453562 0.060207
C35   C     C_3   0.482774 0.472540 0.453562 0.060207
C36   C     C_3   0.010234 0.527459 0.546438 0.060207
C37   C     C_3   0.517226 0.989766 0.546438 0.060207
C38   C     C_3   0.472540 0.482774 0.546438 0.060207
C39   C     C_3   0.408200 0.982798 0.526210 -0.280142
C40   C     C_3   0.017203 0.425402 0.526210 -0.280141
C41   C     C_3   0.574598 0.591801 0.526210 -0.280142
C42   C     C_3   0.982797 0.408200 0.473790 -0.280142
C43   C     C_3   0.425402 0.017203 0.473790 -0.280142
C44   C     C_R   0.889745 0.455021 0.184211 0.544814
C45   C     C_3   0.591801 0.574598 0.473790 -0.280142
C46   C     C_1   0.500938 0.973529 0.597809 -0.101197
C47   C     C_1   0.026471 0.527409 0.597809 -0.101197
C48   C     C_1   0.472591 0.499062 0.597809 -0.101196
C49   C     C_1   0.973529 0.500938 0.402191 -0.101197
C50   C     C_1   0.527409 0.026471 0.402191 -0.101197
C51   C     C_1   0.499062 0.472591 0.402191 -0.101196
C52   C     C_R   0.543128 0.434196 0.316168 0.545127
C53   C     C_R   0.565804 0.108932 0.316168 0.545126
C54   C     C_R   0.891068 0.456872 0.316168 0.545126
C55   C     C_R   0.434724 0.544979 0.815789 0.544815
C56   C     C_R   0.434196 0.543128 0.683832 0.545127
C57   C     C_R   0.108932 0.565804 0.683832 0.545126
C58   C     C_R   0.456872 0.891068 0.683832 0.545126
C59   C     C_3   0.467494 0.108103 0.023175 0.200135
C60   C     C_3   0.891896 0.359390 0.023175 0.200134
C61   C     C_3   0.640610 0.532506 0.023175 0.200135
C62   C     C_3   0.108104 0.467494 0.976825 0.200135
C63   C     C_3   0.359390 0.891896 0.976825 0.200135
C64   C     C_3   0.532506 0.640610 0.976825 0.200135
C65   C     C_3   0.378690 0.893992 0.031923 -0.124761
C66   C     C_R   0.110255 0.565276 0.815789 0.544814
C67   C     C_3   0.106008 0.484698 0.031923 -0.124762
C68   C     C_3   0.515302 0.621309 0.031923 -0.124762
C69   C     C_3   0.893992 0.378690 0.968077 -0.124762
C70   C     C_3   0.484698 0.106008 0.968077 -0.124762
C71   C     C_3   0.621309 0.515302 0.968077 -0.124761
C72   C     C_1   0.470392 0.942755 0.861242 -0.048156
C73   C     C_1   0.057245 0.527637 0.861242 -0.048156
C74   C     C_1   0.472363 0.529608 0.861242 -0.048156
C75   C     C_1   0.942755 0.470392 0.138758 -0.048156
C76   C     C_1   0.527637 0.057245 0.138758 -0.048156
C77   C     C_R   0.455021 0.889745 0.815789 0.544814
C78   C     C_1   0.529608 0.472363 0.138758 -0.048156
C79   C     C_3   0.482282 0.010931 0.046613 0.059229
C80   C     C_3   0.989069 0.471351 0.046613 0.059229
C81   C     C_3   0.528649 0.517718 0.046613 0.059229
C82   C     C_3   0.010931 0.482281 0.953387 0.059229
C83   C     C_3   0.471351 0.989069 0.953387 0.059229
C84   C     C_3   0.517718 0.528649 0.953387 0.059229
C85   C     C_3   0.573584 0.982632 0.973820 -0.279337
C86   C     C_3   0.017368 0.590952 0.973820 -0.279337
C87   C     C_3   0.409048 0.426416 0.973820 -0.279337
C88   C     C_3   0.513880 0.893361 0.468305 -0.124377
C89   C     C_3   0.982632 0.573584 0.026180 -0.279337
C90   C     C_3   0.590952 0.017368 0.026180 -0.279337
C91   C     C_3   0.426416 0.409048 0.026180 -0.279337
C92   C     C_1   0.472603 0.972048 0.901809 -0.101667
C93   C     C_1   0.027952 0.500555 0.901809 -0.101667
C94   C     C_1   0.499445 0.527397 0.901809 -0.101667
C95   C     C_1   0.972048 0.472603 0.098191 -0.101667
C96   C     C_1   0.500555 0.027952 0.098191 -0.101667
C97   C     C_1   0.527397 0.499445 0.098191 -0.101667
C98   C     C_3   0.639886 0.107598 0.476747 0.200904
C99   C     C_3   0.106640 0.620520 0.468305 -0.124378
C100  C     C_3   0.892403 0.532288 0.476747 0.200905
C101  C     C_3   0.467711 0.360114 0.476747 0.200905
C102  C     C_3   0.107598 0.639886 0.523253 0.200905
C103  C     C_3   0.532288 0.892403 0.523253 0.200904
C104  C     C_3   0.360114 0.467711 0.523253 0.200904
C105  C     C_3   0.342418 0.130618 0.075762 0.012575
C106  C     C_3   0.249575 0.032550 0.104722 -0.251982
C107  C     C_3   0.217993 0.075950 0.148904 -0.479046
C108  C     C_3   0.869381 0.211800 0.075762 0.012575
C109  C     C_3   0.967449 0.217025 0.104723 -0.251982
C110  C     C_3   0.379480 0.486119 0.468304 -0.124378
C111  C     C_3   0.924049 0.142042 0.148904 -0.479045
C112  C     C_3   0.788201 0.657582 0.075762 0.012575
C113  C     C_3   0.782977 0.750425 0.104723 -0.251983
C114  C     C_3   0.857959 0.782006 0.148904 -0.479045
C115  C     C_3   0.130619 0.342419 0.924238 0.012575
C116  C     C_3   0.032551 0.249576 0.895277 -0.251983
C117  C     C_3   0.075951 0.217997 0.851095 -0.479045
C118  C     C_3   0.211800 0.869381 0.924238 0.012575
C119  C     C_3   0.217025 0.967449 0.895277 -0.251982
C120  C     C_3   0.142042 0.924048 0.851096 -0.479045
Cr1   Cr    Cr6+3 0.748260 0.501860 0.250510 0.984647
Cr2   Cr    Cr6+3 0.498140 0.246400 0.250510 0.984648
Cr3   Cr    Cr6+3 0.753600 0.251740 0.250510 0.984647
Cr4   Cr    Cr6+3 0.501860 0.748260 0.749490 0.984647
Cr5   Cr    Cr6+3 0.246400 0.498140 0.749490 0.984647
Cr6   Cr    Cr6+3 0.251740 0.753600 0.749490 0.984647
H1    H     H_    0.423267 0.122770 0.948772 0.157422
H2    H     H_    0.807015 0.466676 0.463338 0.053731
H3    H     H_    0.106590 0.661780 0.971290 0.124373
H4    H     H_    0.555191 0.893410 0.971290 0.124372
H5    H     H_    0.338219 0.444809 0.971290 0.124373
H6    H     H_    0.879994 0.189213 0.433155 0.140119
H7    H     H_    0.757541 0.176497 0.403545 0.125137
H8    H     H_    0.806923 0.979408 0.419643 0.182843
H9    H     H_    0.697644 0.976232 0.382421 0.157175
H10   H     H_    0.850007 0.131070 0.331407 0.184292
H11   H     H_    0.859603 0.003289 0.333493 0.135913
H12   H     H_    0.956788 0.125691 0.367987 0.136374
H13   H     H_    0.659662 0.192985 0.463338 0.053731
H14   H     H_    0.810788 0.690781 0.433155 0.140119
H15   H     H_    0.823503 0.581044 0.403545 0.125137
H16   H     H_    0.020592 0.827515 0.419643 0.182843
H17   H     H_    0.023769 0.721413 0.382421 0.157175
H18   H     H_    0.868930 0.718937 0.331408 0.184292
H19   H     H_    0.996712 0.856315 0.333493 0.135913
H20   H     H_    0.874310 0.831097 0.367987 0.136374
H21   H     H_    0.309219 0.120006 0.433155 0.140119
H22   H     H_    0.418956 0.242459 0.403545 0.125137
H23   H     H_    0.172484 0.193075 0.419643 0.182843
H24   H     H_    0.533324 0.340339 0.463338 0.053731
H25   H     H_    0.278587 0.302354 0.382421 0.157175
H26   H     H_    0.281063 0.149992 0.331408 0.184292
H27   H     H_    0.143685 0.140394 0.333493 0.135913
H28   H     H_    0.168903 0.043210 0.367987 0.136375
H29   H     H_    0.189213 0.879994 0.566845 0.140119
H30   H     H_    0.176497 0.757541 0.596455 0.125137
H31   H     H_    0.979408 0.806923 0.580357 0.182843
H32   H     H_    0.976232 0.697644 0.617579 0.157175
H33   H     H_    0.131070 0.850007 0.668593 0.184292
H34   H     H_    0.003289 0.859603 0.666507 0.135913
H35   H     H_    0.345737 0.961501 0.453758 0.126988
H36   H     H_    0.125691 0.956788 0.632013 0.136374
H37   H     H_    0.690781 0.810788 0.566845 0.140119
H38   H     H_    0.581044 0.823503 0.596455 0.125137
H39   H     H_    0.827516 0.020592 0.580357 0.182843
H40   H     H_    0.721413 0.023769 0.617579 0.157175
H41   H     H_    0.718937 0.868930 0.668592 0.184292
H42   H     H_    0.856315 0.996712 0.666507 0.135913
H43   H     H_    0.831097 0.874309 0.632013 0.136374
H44   H     H_    0.120006 0.309219 0.566844 0.140119
H45   H     H_    0.242459 0.418956 0.596454 0.125137
H46   H     H_    0.038499 0.384236 0.453758 0.126988
H47   H     H_    0.193075 0.172484 0.580357 0.182843
H48   H     H_    0.302354 0.278587 0.617579 0.157175
H49   H     H_    0.149992 0.281063 0.668592 0.184292
H50   H     H_    0.140394 0.143685 0.666507 0.135913
H51   H     H_    0.043210 0.168903 0.632013 0.136375
H52   H     H_    0.615765 0.654263 0.453758 0.126988
H53   H     H_    0.961500 0.345737 0.546242 0.126988
H54   H     H_    0.384236 0.038499 0.546242 0.126988
H55   H     H_    0.654263 0.615765 0.546242 0.126988
H56   H     H_    0.614854 0.961618 0.046219 0.128821
H57   H     H_    0.877230 0.300496 0.948772 0.157422
H58   H     H_    0.038382 0.653237 0.046219 0.128821
H59   H     H_    0.346763 0.385145 0.046219 0.128822
H60   H     H_    0.961617 0.614854 0.953781 0.128821
H61   H     H_    0.653237 0.038382 0.953781 0.128822
H62   H     H_    0.385145 0.346763 0.953781 0.128821
H63   H     H_    0.698642 0.123801 0.551236 0.156817
H64   H     H_    0.876199 0.574839 0.551236 0.156817
H65   H     H_    0.425160 0.301359 0.551236 0.156817
H66   H     H_    0.123802 0.698642 0.448764 0.156817
H67   H     H_    0.574840 0.876199 0.448764 0.156817
H68   H     H_    0.699504 0.576734 0.948772 0.157422
H69   H     H_    0.301359 0.425159 0.448764 0.156817
H70   H     H_    0.427134 0.823737 0.458709 0.043860
H71   H     H_    0.176264 0.603398 0.458709 0.043860
H72   H     H_    0.396603 0.572865 0.458709 0.043860
H73   H     H_    0.823737 0.427134 0.541291 0.043860
H74   H     H_    0.603398 0.176264 0.541291 0.043860
H75   H     H_    0.572865 0.396603 0.541291 0.043860
H76   H     H_    0.444331 0.106564 0.471162 0.122983
H77   H     H_    0.893436 0.337766 0.471161 0.122984
H78   H     H_    0.662234 0.555670 0.471162 0.122984
H79   H     H_    0.122770 0.423266 0.051228 0.157422
H80   H     H_    0.106564 0.444331 0.528838 0.122983
H81   H     H_    0.337766 0.893436 0.528839 0.122984
H82   H     H_    0.555670 0.662234 0.528838 0.122984
H83   H     H_    0.311837 0.191106 0.068792 0.140960
H84   H     H_    0.421850 0.176701 0.097092 0.123961
H85   H     H_    0.172365 0.984489 0.082364 0.183018
H86   H     H_    0.279080 0.973395 0.116062 0.153320
H87   H     H_    0.293292 0.122415 0.172316 0.188113
H88   H     H_    0.150534 0.002874 0.168963 0.132946
H89   H     H_    0.185317 0.133461 0.138737 0.141666
H90   H     H_    0.300496 0.877230 0.051228 0.157422
H91   H     H_    0.808893 0.120729 0.068792 0.140960
H92   H     H_    0.823299 0.245149 0.097092 0.123962
H93   H     H_    0.015509 0.187875 0.082364 0.183018
H94   H     H_    0.026605 0.305685 0.116062 0.153321
H95   H     H_    0.877586 0.170879 0.172316 0.188114
H96   H     H_    0.997125 0.147659 0.168964 0.132945
H97   H     H_    0.866537 0.051856 0.138737 0.141666
H98   H     H_    0.879271 0.688163 0.068792 0.140960
H99   H     H_    0.754851 0.578150 0.097092 0.123961
H100  H     H_    0.812128 0.827635 0.082364 0.183018
H101  H     H_    0.576735 0.699504 0.051229 0.157422
H102  H     H_    0.694317 0.720920 0.116061 0.153321
H103  H     H_    0.829122 0.706707 0.172316 0.188114
H104  H     H_    0.852344 0.849466 0.168963 0.132945
H105  H     H_    0.948145 0.814679 0.138737 0.141667
H106  H     H_    0.191107 0.311837 0.931208 0.140959
H107  H     H_    0.176702 0.421852 0.902908 0.123961
H108  H     H_    0.984491 0.172365 0.917635 0.183017
H109  H     H_    0.973395 0.279081 0.883939 0.153321
H110  H     H_    0.122413 0.293297 0.827683 0.188116
H111  H     H_    0.002875 0.150537 0.831036 0.132945
H112  H     H_    0.466676 0.807015 0.536662 0.053731
H113  H     H_    0.133464 0.185323 0.861261 0.141666
H114  H     H_    0.120730 0.808893 0.931208 0.140960
H115  H     H_    0.245149 0.823299 0.902907 0.123962
H116  H     H_    0.187875 0.015509 0.917636 0.183018
H117  H     H_    0.305685 0.026604 0.883938 0.153321
H118  H     H_    0.170879 0.877586 0.827684 0.188114
H119  H     H_    0.147659 0.997124 0.831036 0.132945
H120  H     H_    0.051856 0.866536 0.861263 0.141666
H121  H     H_    0.688164 0.879271 0.931208 0.140960
H122  H     H_    0.578150 0.754851 0.902908 0.123961
H123  H     H_    0.192985 0.659662 0.536662 0.053731
H124  H     H_    0.827635 0.812127 0.917636 0.183018
H125  H     H_    0.720920 0.694316 0.883938 0.153321
H126  H     H_    0.706708 0.829123 0.827684 0.188113
H127  H     H_    0.849467 0.852343 0.831037 0.132945
H128  H     H_    0.814681 0.948145 0.861263 0.141666
H129  H     H_    0.395450 0.824333 0.041889 0.044437
H130  H     H_    0.175667 0.571118 0.041889 0.044437
H131  H     H_    0.428883 0.604549 0.041889 0.044437
H132  H     H_    0.824333 0.395450 0.958111 0.044437
H133  H     H_    0.571118 0.175667 0.958111 0.044437
H134  H     H_    0.340339 0.533323 0.536662 0.053731
H135  H     H_    0.604549 0.428883 0.958111 0.044437
H136  H     H_    0.340341 0.806451 0.963791 0.054202
H137  H     H_    0.193549 0.533891 0.963791 0.054202
H138  H     H_    0.466110 0.659659 0.963791 0.054203
H139  H     H_    0.806451 0.340341 0.036209 0.054202
H140  H     H_    0.533891 0.193549 0.036209 0.054203
H141  H     H_    0.659659 0.466110 0.036209 0.054203
H142  H     H_    0.661780 0.106590 0.028710 0.124373
H143  H     H_    0.893410 0.555190 0.028710 0.124372
H144  H     H_    0.444809 0.338219 0.028710 0.124373
O1    O     O_R   0.863770 0.527700 0.199270 -0.521214
O2    O     O_R   0.490970 0.643280 0.797590 -0.502956
O3    O     O_R   0.152310 0.509030 0.797590 -0.502957
O4    O     O_R   0.356720 0.847690 0.797590 -0.502956
O5    O     O_R   0.862920 0.527590 0.302350 -0.521899
O6    O     O_R   0.472410 0.335330 0.302350 -0.521899
O7    O     O_R   0.664670 0.137080 0.302350 -0.521899
O8    O     O_R   0.527590 0.862920 0.697650 -0.521899
O9    O     O_R   0.335330 0.472410 0.697650 -0.521899
O10   O     O_R   0.137080 0.664670 0.697650 -0.521899
O11   O     O_R   0.642490 0.490870 0.297970 -0.500111
O12   O     O_R   0.472300 0.336070 0.199270 -0.521214
O13   O     O_R   0.509130 0.151620 0.297970 -0.500111
O14   O     O_R   0.848380 0.357510 0.297970 -0.500111
O15   O     O_R   0.490870 0.642490 0.702030 -0.500111
O16   O     O_R   0.151620 0.509130 0.702030 -0.500111
O17   O     O_R   0.357510 0.848380 0.702030 -0.500111
O18   O     O_3   0.666667 0.333333 0.250440 -0.231212
O19   O     O_3   0.333333 0.666667 0.749560 -0.231212
O20   O     O_3   0.355834 0.089792 0.031230 -0.536597
O21   O     O_3   0.910207 0.266041 0.031230 -0.536597
O22   O     O_3   0.733959 0.644166 0.031230 -0.536597
O23   O     O_R   0.663930 0.136230 0.199270 -0.521214
O24   O     O_3   0.089793 0.355834 0.968770 -0.536597
O25   O     O_3   0.266042 0.910207 0.968770 -0.536597
O26   O     O_3   0.644166 0.733959 0.968770 -0.536597
O27   O     O_3   0.732585 0.088005 0.469240 -0.535667
O28   O     O_3   0.911996 0.644581 0.469240 -0.535668
O29   O     O_3   0.355419 0.267415 0.469240 -0.535667
O30   O     O_3   0.088005 0.732585 0.530760 -0.535667
O31   O     O_3   0.644581 0.911996 0.530760 -0.535668
O32   O     O_3   0.267415 0.355419 0.530760 -0.535667
O33   O     O_R   0.527700 0.863770 0.800730 -0.521214
O34   O     O_R   0.336070 0.472300 0.800730 -0.521214
O35   O     O_R   0.136230 0.663930 0.800730 -0.521214
O36   O     O_R   0.643280 0.490970 0.202410 -0.502957
O37   O     O_R   0.509030 0.152310 0.202410 -0.502957
O38   O     O_R   0.847690 0.356720 0.202410 -0.502956

loop_
_geom_bond_atom_site_label_1
_geom_bond_atom_site_label_2
_ccdc_geom_bond_type
C70   H1    S    
C85   H61   S    
C63   C65   S    
C71   H135  S    
Cr1   O36   S    
C65   C79   S    
C13   H74   S    
C87   C91   S    
C110  H72   S    
C102  H123  S    
C41   C45   S    
C74   C94   T    
C19   C20   S    
C34   C42   S    
C84   C87   S    
C73   C93   T    
C31   C52   S    
C91   H144  S    
C2    C36   S    
C114  H103  S    
C39   H54   S    
C28   C56   S    
C68   H101  S    
C75   C95   T    
C7    C8    S    
C77   O33   A    
C59   O20   S    
Cr5   O3    S    
C67   H130  S    
C116  C117  S    
C53   O7    A    
C83   C92   S    
C21   H43   S    
C21   H42   S    
C3    H121  S    
C62   C67   S    
C89   H143  S    
C68   C81   S    
C64   C68   S    
C12   H21   S    
C36   C102  S    
C31   C51   T    
C22   O32   S    
C3    O26   S    
C101  O29   S    
C6    H7    S    
Cr3   O14   S    
C109  C111  S    
C102  O30   S    
C68   H131  S    
C72   C92   T    
C108  O21   S    
C25   H51   S    
C55   O34   A    
C8    H10   S    
C29   C54   S    
C87   H5    S    
C115  C116  S    
Cr6   O19   S    
C101  H24   S    
C80   C89   S    
C11   H18   S    
C13   H63   S    
C108  C109  S    
C14   H23   S    
C36   C47   S    
C8    H12   S    
C24   C101  S    
C111  H95   S    
C5    H127  S    
C13   C98   S    
Cr2   O18   S    
C118  C119  S    
C61   H141  S    
C15   H28   S    
C38   C104  S    
C69   C82   S    
C62   O24   S    
C52   O11   A    
C105  O20   S    
C55   C74   S    
C11   H20   S    
C64   C84   S    
C58   O8    A    
C57   O16   A    
C54   O5    A    
C79   C90   S    
C39   H81   S    
C14   H25   S    
C16   H30   S    
C24   C38   S    
C19   O31   S    
C10   H16   S    
C56   O15   A    
C18   H33   S    
C33   O37   A    
C17   H31   S    
Cr2   O13   S    
C60   H139  S    
C13   C37   S    
C22   H45   S    
C67   H79   S    
C118  H115  S    
C19   H38   S    
C108  H92   S    
Cr4   O15   S    
C61   C71   S    
C40   C42   S    
C120  H119  S    
C62   C82   S    
C78   C97   T    
C2    C100  S    
C82   C93   S    
Cr6   O17   S    
C56   O9    A    
C1    C78   S    
C112  H98   S    
C5    H126  S    
C41   H55   S    
C42   H77   S    
C120  H120  S    
C43   H76   S    
C88   H67   S    
C15   H26   S    
C53   O13   A    
C6    C7    S    
C58   O17   A    
C22   C23   S    
C54   O14   A    
C30   C50   T    
C30   C53   S    
C40   H80   S    
C24   H75   S    
C67   C80   S    
C2    H73   S    
C89   H58   S    
C90   H56   S    
C118  O25   S    
C36   C40   S    
C65   H90   S    
C52   O6    A    
Cr4   O19   S    
C27   C57   S    
C59   C79   S    
C114  H105  S    
C23   H48   S    
C9    H15   S    
C16   C17   S    
C113  H102  S    
C84   C94   S    
Cr5   O9    S    
C117  H110  S    
Cr4   O2    S    
C82   C86   S    
C66   C73   S    
Cr6   O10   S    
C86   C89   S    
C105  H84   S    
C63   C83   S    
C8    H11   S    
C111  H96   S    
C5    H128  S    
C44   C75   S    
C90   H142  S    
Cr1   O5    S    
C7    H9    S    
C72   C77   S    
C20   H39   S    
Cr2   O6    S    
C85   H4    S    
C40   H53   S    
C26   C58   S    
C25   H49   S    
C33   C76   S    
C34   C100  S    
C107  H87   S    
C85   C90   S    
C106  H86   S    
C99   H71   S    
C16   H29   S    
C63   O25   S    
C17   C18   S    
C9    O28   S    
C64   O26   S    
C111  H97   S    
C1    O12   A    
C29   C49   T    
C80   C95   S    
C70   C83   S    
Cr2   O12   S    
C32   C50   S    
C115  H106  S    
C22   H44   S    
C35   C110  S    
C42   H46   S    
C45   H52   S    
Cr6   O35   S    
C44   O1    A    
C45   H78   S    
C108  H91   S    
C43   H35   S    
C6    H6    S    
C70   H133  S    
C83   C85   S    
C69   H57   S    
C86   H60   S    
C12   O29   S    
C10   C11   S    
C1    O36   A    
C35   C51   S    
Cr2   O37   S    
C112  O22   S    
C32   C88   S    
C35   C101  S    
C3    H122  S    
C105  H83   S    
C100  O28   S    
C3    C4    S    
C35   C45   S    
C63   H136  S    
C120  H118  S    
C115  H107  S    
C88   C103  S    
C88   H70   S    
C37   C103  S    
C71   C84   S    
C9    C10   S    
C118  H114  S    
Cr5   O34   S    
Cr1   O1    S    
Cr5   O16   S    
C28   C48   T    
C34   C49   S    
Cr4   O8    S    
C112  H99   S    
C59   H140  S    
C60   C80   S    
C7    H8    S    
C100  H2    S    
C38   C48   S    
C77   O4    A    
C66   O35   A    
C11   H19   S    
C109  H93   S    
C2    H64   S    
C4    H125  S    
C12   C14   S    
C4    C5    S    
C71   H68   S    
C6    O27   S    
C62   H137  S    
C114  H104  S    
C39   C43   S    
C119  C120  S    
Cr3   O7    S    
C86   H3    S    
C87   H62   S    
C23   H47   S    
C104  O32   S    
C61   O22   S    
C34   C99   S    
C105  C106  S    
C16   O30   S    
C27   C47   T    
C21   H41   S    
C98   H13   S    
C20   H40   S    
C12   H22   S    
C41   H82   S    
C4    H124  S    
C79   C96   S    
C37   C39   S    
Cr4   O33   S    
C17   H32   S    
C76   C96   T    
C104  C110  S    
C18   H36   S    
C25   H50   S    
C44   O38   A    
C113  H100  S    
C99   H66   S    
C107  H88   S    
C81   C97   S    
C60   C69   S    
C38   C41   S    
C103  H112  S    
C106  H85   S    
C65   H129  S    
C116  H109  S    
C9    H14   S    
C64   H138  S    
C32   C98   S    
C24   H65   S    
C112  C113  S    
C10   H17   S    
C23   C25   S    
C32   C43   S    
Cr6   O4    S    
C113  C114  S    
C119  H116  S    
Cr5   O19   S    
C15   H27   S    
C18   H34   S    
Cr3   O18   S    
C26   C46   T    
C59   C70   S    
C117  H111  S    
C81   C91   S    
C57   O10   A    
C103  O31   S    
C99   C102  S    
C107  H89   S    
C20   C21   S    
C117  H113  S    
C60   O21   S    
C106  C107  S    
C116  H108  S    
C110  H69   S    
C109  H94   S    
C104  H134  S    
C14   C15   S    
Cr3   O38   S    
C66   O3    A    
C61   C81   S    
C55   O2    A    
C91   H59   S    
C37   C46   S    
C98   O27   S    
C119  H117  S    
Cr1   O18   S    
C33   O23   A    
Cr1   O11   S    
C69   H132  S    
C115  O24   S    
C19   H37   S    
Cr3   O23   S    
