data_mof_unit_22422.cif
_audit_creation_date              2012-12-10T19:43:26-0500
_audit_creation_method            fapswitch 2.2
_symmetry_space_group_name_H-M    P1
_symmetry_Int_Tables_number       1
_space_group_crystal_system       triclinic
_cell_length_a                    10.913683
_cell_length_b                    10.848449
_cell_length_c                    9.607068
_cell_angle_alpha                 89.336064
_cell_angle_beta                  91.620661
_cell_angle_gamma                 92.026439
_cell_volume                      1136.21367639

loop_
_atom_site_label
_atom_site_type_symbol
_atom_type_description
_atom_site_fract_x
_atom_site_fract_y
_atom_site_fract_z
_atom_type_partial_charge
C1    C     C_R   0.508211 0.262575 0.502358 0.817856
C2    C     C_R   0.167632 0.573685 0.955335 -0.180893
C3    C     C_R   0.930939 0.536395 0.385220 -0.248233
C4    C     C_R   0.871438 0.496297 0.505345 -0.065931
C5    C     C_R   0.941458 0.451234 0.619871 0.066043
C6    C     C_R   0.068480 0.453537 0.612838 -0.217563
C7    C     C_R   0.127919 0.495285 0.493737 -0.108142
C8    C     C_R   0.057267 0.531040 0.375748 0.039870
C9    C     C_R   0.872896 0.470746 0.863359 0.637711
C10   C     C_R   0.836835 0.417315 0.989532 -0.215898
C11   C     C_R   0.822479 0.289284 0.002344 -0.152574
C12   C     C_R   0.262231 0.498700 0.497702 0.782149
C13   C     C_R   0.844261 0.214483 0.888829 0.037641
C14   C     C_R   0.875545 0.267930 0.760844 -0.140010
C15   C     C_R   0.888829 0.396631 0.747150 0.018830
C16   C     C_R   0.526925 0.107597 0.772017 0.587366
C17   C     C_R   0.487237 0.043450 0.889780 -0.249109
C18   C     C_R   0.423635 0.930659 0.875969 0.118583
C19   C     C_R   0.410949 0.876784 0.745226 -0.145843
C20   C     C_R   0.463659 0.934585 0.627090 -0.015457
C21   C     C_R   0.502907 0.059419 0.636314 -0.007980
C22   C     C_R   0.516603 0.127901 0.509319 -0.084532
C23   C     C_R   0.491043 0.737063 0.499623 0.785195
C24   C     C_R   0.521965 0.065147 0.383169 -0.214746
C25   C     C_R   0.511236 0.937996 0.380638 -0.204925
C26   C     C_R   0.482298 0.871320 0.501361 -0.057022
C27   C     C_R   0.650101 0.674777 0.145948 -0.297638
C28   C     C_R   0.717530 0.764897 0.074862 -0.325202
C29   C     C_R   0.716290 0.765700 0.931403 0.700730
C30   C     C_R   0.649422 0.674805 0.858738 -0.166358
C31   C     C_R   0.571883 0.587274 0.926413 0.096620
C32   C     C_R   0.572029 0.587227 0.075851 0.220169
C33   C     C_R   0.436164 0.413522 0.072865 -0.062204
C34   C     C_R   0.737521 0.497648 0.502205 0.790509
C35   C     C_R   0.436432 0.413462 0.925047 0.059232
C36   C     C_R   0.149193 0.677418 0.035648 -0.115180
C37   C     C_R   0.119062 0.663848 0.175368 -0.182288
C38   C     C_R   0.106417 0.545775 0.235256 0.009323
C39   C     C_R   0.121885 0.440640 0.152949 0.114720
C40   C     C_R   0.151921 0.455552 0.013392 0.585662
Cu1   Cu    Cu3+1 0.499990 0.499990 0.640660 0.981182
Cu2   Cu    Cu3+1 0.500010 0.500010 0.359340 0.937326
H1    H     H_    0.191262 0.585321 0.847364 0.170916
H2    H     H_    0.796442 0.248007 0.100757 0.140988
H3    H     H_    0.835018 0.115172 0.899366 0.183282
H4    H     H_    0.892674 0.209133 0.673650 0.143724
H5    H     H_    0.536521 0.114259 0.285843 0.159876
H6    H     H_    0.506060 0.081667 0.992190 0.150530
H7    H     H_    0.360123 0.789584 0.737843 0.181372
H8    H     H_    0.525892 0.891938 0.283692 0.157075
H9    H     H_    0.383239 0.342799 0.127033 0.156926
H10   H     H_    0.155226 0.768292 0.988535 0.192726
H11   H     H_    0.665826 0.676181 0.255342 0.233053
H12   H     H_    0.774593 0.831811 0.131904 0.178401
H13   H     H_    0.667555 0.672800 0.750807 0.224617
H14   H     H_    0.384584 0.342308 0.868958 0.186704
H15   H     H_    0.102397 0.744907 0.235861 0.153529
H16   H     H_    0.878455 0.567840 0.295050 0.162366
H17   H     H_    0.121500 0.417779 0.699673 0.215279
H18   H     H_    0.823738 0.474799 0.078558 0.150206
N1    N     N_R   0.501190 0.501210 0.147910 -0.194189
N2    N     N_R   0.501230 0.501290 0.852040 -0.192927
O1    O     O_R   0.499990 0.319640 0.618810 -0.521181
O2    O     O_R   0.500000 0.319660 0.381240 -0.601465
O3    O     O_R   0.319640 0.500000 0.618780 -0.593270
O4    O     O_R   0.319650 0.500020 0.381210 -0.576439
O5    O     O_R   0.500000 0.680340 0.618760 -0.615086
O6    O     O_R   0.500010 0.680360 0.381190 -0.597997
O7    O     O_R   0.680350 0.499980 0.618790 -0.572626
O8    O     O_R   0.680360 0.500000 0.381220 -0.611084
F1    F     F_    0.601810 0.207540 0.794984 -0.679359
N3    N     N_3   0.378705 0.866104 0.995508 -0.603604
H19   H     H_    0.323565 0.925317 0.049207 0.226361
H20   H     H_    0.453875 0.846043 0.060305 0.226094
F2    F     F_    0.787087 0.849850 0.862000 -0.658536
N4    N     N_3   0.103476 0.318062 0.207682 -0.544815
H21   H     H_    0.014367 0.308795 0.244489 0.216188
H22   H     H_    0.165140 0.305770 0.291451 0.215845
F3    F     F_    0.163209 0.354372 0.934017 -0.714311
F4    F     F_    0.899611 0.593538 0.856119 -0.678159

loop_
_geom_bond_atom_site_label_1
_geom_bond_atom_site_label_2
_ccdc_geom_bond_type
C16   C21   A    
Cu1   Cu2   S    
C19   C20   A    
C17   H6    S    
C7    C8    A    
C14   H4    S    
C37   C38   A    
C28   C29   A    
N4    H22   S    
C32   N1    A    
C5    C6    A    
Cu2   O8    S    
C18   C19   A    
C23   C26   S    
C23   O5    A    
C25   H8    S    
C16   C17   A    
C9    C10   A    
C34   O8    A    
C36   H10   S    
C27   C32   A    
C1    C22   S    
C21   C22   A    
Cu2   O6    S    
C31   N2    A    
C16   F1    S    
C8    C38   S    
Cu1   N2    S    
C1    O1    A    
C18   N3    S    
C7    C12   S    
C4    C34   S    
C38   C39   A    
N4    H21   S    
Cu1   O5    S    
N3    H20   S    
C3    C8    A    
C39   C40   A    
C28   H12   S    
C4    C5    A    
Cu1   O3    S    
C25   C26   A    
C12   O4    A    
C9    F4    S    
C23   O6    A    
C10   H18   S    
C29   C30   A    
C19   H7    S    
C31   C32   A    
C34   O7    A    
C2    H1    S    
C17   C18   A    
C40   F3    S    
C11   H2    S    
C39   N4    S    
C24   C25   A    
Cu2   N1    S    
C22   C24   A    
Cu1   O1    S    
C3    C4    A    
C1    O2    A    
Cu2   O2    S    
Cu1   O7    S    
C12   O3    A    
C2    C36   A    
C36   C37   A    
C35   H14   S    
C24   H5    S    
C6    H17   S    
N3    H19   S    
C27   H11   S    
C6    C7    A    
C29   F2    S    
C33   H9    S    
C30   H13   S    
C9    C15   A    
C13   H3    S    
C11   C13   A    
C30   C31   A    
C20   C26   A    
C33   C35   A    
C35   N2    A    
C5    C15   S    
C10   C11   A    
C3    H16   S    
C2    C40   A    
C20   C21   A    
C33   N1    A    
C27   C28   A    
Cu2   O4    S    
C14   C15   A    
C13   C14   A    
C37   H15   S    
