data_mof_unit_23066.cif
_audit_creation_date              2012-12-10T17:17:52-0500
_audit_creation_method            fapswitch 2.2
_symmetry_space_group_name_H-M    P1
_symmetry_Int_Tables_number       1
_space_group_crystal_system       triclinic
_cell_length_a                    14.810553
_cell_length_b                    15.743858
_cell_length_c                    9.572302
_cell_angle_alpha                 90.396249
_cell_angle_beta                  89.988392
_cell_angle_gamma                 90.071536
_cell_volume                      2231.96868898

loop_
_atom_site_label
_atom_site_type_symbol
_atom_type_description
_atom_site_fract_x
_atom_site_fract_y
_atom_site_fract_z
_atom_type_partial_charge
C1    C     C_R   0.390877 0.873742 0.500378 0.834941
C2    C     C_R   0.376915 0.114778 0.500421 0.772729
C3    C     C_R   0.890877 0.373742 0.500378 0.834944
C4    C     C_R   0.876915 0.614778 0.500421 0.772729
C5    C     C_R   0.315113 0.247137 0.585951 -0.172837
C6    C     C_R   0.298474 0.767068 0.377231 -0.143130
C7    C     C_R   0.815113 0.747137 0.585950 -0.172837
C8    C     C_R   0.798474 0.267068 0.377231 -0.143132
C9    C     C_R   0.752978 0.812136 0.585274 -0.204401
C10   C     C_R   0.726793 0.210812 0.378249 -0.198577
C11   C     C_R   0.252978 0.312136 0.585274 -0.204400
C12   C     C_R   0.226793 0.710812 0.378249 -0.198576
C13   C     C_R   0.677982 0.807738 0.497833 -0.045045
C14   C     C_R   0.685478 0.188585 0.504691 -0.110265
C15   C     C_R   0.177982 0.307738 0.497833 -0.045045
C16   C     C_R   0.185478 0.688585 0.504691 -0.110265
C17   C     C_R   0.666051 0.001388 0.144375 -0.151409
C18   C     C_R   0.166051 0.501388 0.144375 -0.151409
C19   C     C_R   0.747217 0.003622 0.071923 -0.215293
C20   C     C_R   0.247217 0.503622 0.071923 -0.215293
C21   C     C_R   0.747208 0.003920 0.927912 -0.195397
C22   C     C_R   0.247208 0.503920 0.927912 -0.195397
C23   C     C_R   0.666042 0.001952 0.855517 -0.134977
C24   C     C_R   0.166042 0.501952 0.855517 -0.134978
C25   C     C_R   0.581666 0.000964 0.925089 0.196464
C26   C     C_R   0.081666 0.500964 0.925089 0.196465
C27   C     C_R   0.581644 0.000815 0.074852 0.204051
C28   C     C_R   0.081644 0.500815 0.074852 0.204051
C29   C     C_R   0.422274 0.998813 0.073965 -0.061785
C30   C     C_R   0.922274 0.498814 0.073965 -0.061785
C31   C     C_R   0.616533 0.121613 0.501099 0.784694
C32   C     C_R   0.617063 0.879783 0.499347 0.788711
C33   C     C_R   0.116533 0.621613 0.501099 0.784694
C34   C     C_R   0.117063 0.379783 0.499347 0.788713
C35   C     C_R   0.422310 0.998716 0.925886 -0.078888
C36   C     C_R   0.922310 0.498716 0.925886 -0.078888
C37   C     C_R   0.195584 0.086699 0.354863 -0.008748
C38   C     C_R   0.354768 0.766152 0.759470 0.016424
C39   C     C_R   0.695584 0.586699 0.354863 -0.008747
C40   C     C_R   0.854767 0.266152 0.759471 0.016424
C41   C     C_R   0.122589 0.085975 0.261219 -0.109241
C42   C     C_R   0.308763 0.756811 0.886279 -0.237717
C43   C     C_R   0.622589 0.585975 0.261220 -0.109242
C44   C     C_R   0.808761 0.256812 0.886279 -0.237718
C45   C     C_R   0.567633 0.656362 0.247725 -0.205862
C46   C     C_R   0.717356 0.236828 0.886850 -0.129894
C47   C     C_R   0.067633 0.156363 0.247725 -0.205862
C48   C     C_R   0.217357 0.736826 0.886850 -0.129893
C49   C     C_R   0.583807 0.728224 0.328179 -0.131223
C50   C     C_R   0.673481 0.217810 0.761726 -0.162157
C51   C     C_R   0.083807 0.228224 0.328179 -0.131224
C52   C     C_R   0.173482 0.717809 0.761726 -0.162157
C53   C     C_R   0.661138 0.734482 0.414697 0.133815
C54   C     C_R   0.720115 0.221765 0.632736 0.063746
C55   C     C_R   0.161138 0.234482 0.414697 0.133814
C56   C     C_R   0.220116 0.721765 0.632736 0.063746
C57   C     C_R   0.221182 0.164237 0.423207 -0.000913
C58   C     C_R   0.305543 0.761163 0.631419 0.081979
C59   C     C_R   0.721182 0.664237 0.423207 -0.000913
C60   C     C_R   0.805543 0.261163 0.631420 0.081979
C61   C     C_R   0.302045 0.174735 0.503226 -0.114070
C62   C     C_R   0.335262 0.796541 0.503092 -0.078248
C63   C     C_R   0.802045 0.674735 0.503226 -0.114071
C64   C     C_R   0.835262 0.296541 0.503092 -0.078247
Cu1   Cu    Cu3+1 0.499990 0.000000 0.640660 0.931513
Cu2   Cu    Cu3+1 0.999990 0.500000 0.640660 0.931515
Cu3   Cu    Cu3+1 0.500010 0.000000 0.359340 0.936593
Cu4   Cu    Cu3+1 0.000010 0.500000 0.359340 0.936594
H1    H     H_    0.375411 0.254467 0.649182 0.149556
H2    H     H_    0.323481 0.789222 0.277519 0.167967
H3    H     H_    0.875412 0.754467 0.649181 0.149556
H4    H     H_    0.823482 0.289221 0.277519 0.167967
H5    H     H_    0.810598 0.005273 0.871537 0.151486
H6    H     H_    0.310598 0.505273 0.871537 0.151486
H7    H     H_    0.673676 0.001268 0.745300 0.193309
H8    H     H_    0.173676 0.501268 0.745300 0.193308
H9    H     H_    0.358700 0.997627 0.870373 0.148786
H10   H     H_    0.858700 0.497627 0.870373 0.148785
H11   H     H_    0.103493 0.028469 0.205777 0.172285
H12   H     H_    0.344088 0.763146 0.984960 0.123619
H13   H     H_    0.603492 0.528469 0.205778 0.172284
H14   H     H_    0.844086 0.263147 0.984960 0.123619
H15   H     H_    0.508913 0.653473 0.180420 0.137421
H16   H     H_    0.681410 0.231924 0.984984 0.149731
H17   H     H_    0.008913 0.153474 0.180420 0.137421
H18   H     H_    0.181412 0.731923 0.984985 0.149731
H19   H     H_    0.533633 0.777495 0.321906 0.159768
H20   H     H_    0.602411 0.203031 0.767949 0.167007
H21   H     H_    0.033633 0.277495 0.321906 0.159768
H22   H     H_    0.102412 0.703030 0.767950 0.167008
H23   H     H_    0.765362 0.867860 0.649653 0.136074
H24   H     H_    0.702146 0.186708 0.279052 0.163545
H25   H     H_    0.265362 0.367860 0.649654 0.136074
H26   H     H_    0.202145 0.686709 0.279052 0.163545
H27   H     H_    0.358641 0.997970 0.129328 0.174722
H28   H     H_    0.858641 0.497970 0.129328 0.174722
H29   H     H_    0.673721 0.999971 0.254565 0.199880
H30   H     H_    0.173721 0.499971 0.254565 0.199880
H31   H     H_    0.810637 0.004653 0.128227 0.151495
H32   H     H_    0.310637 0.504653 0.128227 0.151495
N1    N     N_R   0.501200 1.000000 0.147910 -0.204440
N2    N     N_R   0.001200 0.500000 0.147910 -0.204440
N3    N     N_R   0.501270 0.000000 0.852040 -0.208396
N4    N     N_R   0.001270 0.500000 0.852040 -0.208395
O1    O     O_R   0.409820 0.909830 0.618810 -0.592538
O2    O     O_R   0.409820 0.090170 0.618810 -0.580862
O3    O     O_R   0.909820 0.409830 0.618810 -0.592536
O4    O     O_R   0.909820 0.590170 0.618810 -0.580863
O5    O     O_R   0.409840 0.909830 0.381240 -0.577550
O6    O     O_R   0.409840 0.090170 0.381240 -0.565684
O7    O     O_R   0.909840 0.409830 0.381240 -0.577550
O8    O     O_R   0.909840 0.590170 0.381240 -0.565683
O9    O     O_R   0.590170 0.090170 0.618760 -0.610611
O10   O     O_R   0.590170 0.909830 0.618760 -0.576334
O11   O     O_R   0.090170 0.590170 0.618760 -0.610611
O12   O     O_R   0.090170 0.409830 0.618760 -0.576333
O13   O     O_R   0.590190 0.090180 0.381190 -0.595323
O14   O     O_R   0.590190 0.909820 0.381190 -0.626183
O15   O     O_R   0.090190 0.590180 0.381190 -0.595324
O16   O     O_R   0.090190 0.409820 0.381190 -0.626183
C65   C     C_2   0.231012 0.003033 0.396359 0.366570
H33   H     H_    0.259794 0.994467 0.499170 0.054650
O17   O     O_2   0.223811 0.941535 0.318728 -0.578375
C66   C     C_2   0.454734 0.767721 0.765147 0.402162
H34   H     H_    0.488951 0.787733 0.860166 0.062597
O18   O     O_2   0.499715 0.743032 0.666076 -0.571920
C67   C     C_2   0.731012 0.503033 0.396361 0.366570
H35   H     H_    0.759792 0.494466 0.499172 0.054650
O19   O     O_2   0.723812 0.441535 0.318729 -0.578375
C68   C     C_2   0.954733 0.267722 0.765148 0.402163
H36   H     H_    0.988950 0.287731 0.860169 0.062595
O20   O     O_2   0.999715 0.243034 0.666077 -0.571920

loop_
_geom_bond_atom_site_label_1
_geom_bond_atom_site_label_2
_ccdc_geom_bond_type
C58   C62   A    
Cu2   Cu4   S    
C42   H12   S    
C40   C60   A    
Cu1   O10   S    
C49   H19   S    
C13   C32   S    
C52   H22   S    
C14   C31   S    
C1    C62   S    
C9    H23   S    
C16   C56   A    
C53   C59   A    
C54   C60   A    
C3    C64   S    
C4    O4    A    
C4    C63   S    
C50   C54   A    
Cu2   O12   S    
C47   H17   S    
C22   C24   A    
C19   C21   A    
Cu4   N2    S    
C5    C11   A    
C35   N3    A    
Cu4   O15   S    
C6    C12   A    
C34   O12   A    
C21   H5    S    
C6    H2    S    
Cu4   O8    S    
C9    C13   A    
C31   O13   A    
C5    H1    S    
C1    O5    A    
C38   C58   A    
C11   C15   A    
Cu3   O5    S    
C12   C16   A    
C3    O7    A    
Cu1   Cu3   S    
C44   H14   S    
C30   H28   S    
Cu2   O3    S    
C15   C34   S    
C18   C20   A    
C2    C61   S    
C50   H20   S    
C26   N4    A    
C11   H25   S    
C4    O8    A    
C10   H24   S    
C12   H26   S    
C45   H15   S    
C27   N1    A    
Cu1   O1    S    
C44   C46   A    
C46   C50   A    
C13   C53   A    
C56   C58   A    
C34   O16   A    
C8    H4    S    
C39   C67   S    
Cu2   O11   S    
C29   N1    A    
C17   C27   A    
Cu2   N4    S    
C18   C28   A    
C10   C14   A    
C32   O14   A    
C29   H27   S    
C19   H31   S    
C25   N3    A    
C39   C43   A    
C3    O3    A    
C35   H9    S    
Cu4   O7    S    
C15   C55   A    
C68   O20   D    
C67   O19   D    
C16   C33   S    
C43   C45   A    
Cu3   O6    S    
C20   H32   S    
C45   C49   A    
C39   C59   A    
C30   N2    A    
C41   C47   A    
C5    C61   A    
C42   C48   A    
Cu3   O13   S    
C7    C63   A    
C65   H33   S    
C8    C64   A    
C37   C65   S    
C14   C54   A    
C20   C22   A    
C33   O15   A    
C21   C23   A    
C43   H13   S    
C48   H18   S    
C59   C63   A    
Cu1   N3    S    
C40   C44   A    
C67   H35   S    
C38   C66   S    
Cu1   O2    S    
C23   H7    S    
Cu3   N1    S    
C66   O18   D    
C7    C9    A    
C40   C68   S    
C2    O6    A    
Cu1   O9    S    
C24   H8    S    
C24   C26   A    
Cu2   O4    S    
C41   H11   S    
C47   C51   A    
C57   C61   A    
C25   C27   A    
C29   C35   A    
C26   C28   A    
C30   C36   A    
C60   C64   A    
C6    C62   A    
C55   C57   A    
C68   H36   S    
C36   H10   S    
Cu4   O16   S    
C7    H3    S    
C36   N4    A    
C33   O11   A    
C49   C53   A    
C17   C19   A    
C2    O2    A    
C46   H16   S    
C51   C55   A    
C23   C25   A    
C37   C41   A    
Cu3   O14   S    
C37   C57   A    
C65   O17   D    
C38   C42   A    
C28   N2    A    
C48   C52   A    
C8    C10   A    
C22   H6    S    
C18   H30   S    
C32   O10   A    
C17   H29   S    
C31   O9    A    
C51   H21   S    
C52   C56   A    
C1    O1    A    
C66   H34   S    
