data_mof_unit_55346.cif
_audit_creation_date              2012-12-10T18:35:25-0500
_audit_creation_method            fapswitch 2.2
_symmetry_space_group_name_H-M    P1
_symmetry_Int_Tables_number       1
_space_group_crystal_system       triclinic
_cell_length_a                    14.803276
_cell_length_b                    15.470899
_cell_length_c                    16.683128
_cell_angle_alpha                 91.536769
_cell_angle_beta                  99.100938
_cell_angle_gamma                 98.488988
_cell_volume                      3726.41189634

loop_
_atom_site_label
_atom_site_type_symbol
_atom_type_description
_atom_site_fract_x
_atom_site_fract_y
_atom_site_fract_z
_atom_type_partial_charge
C1    C     C_R   0.557653 0.662610 0.512876 0.864896
C2    C     C_R   0.464054 0.189012 0.526286 -0.264135
C3    C     C_R   0.540769 0.896968 0.548754 0.094850
C4    C     C_R   0.434524 0.099143 0.526555 0.094515
C5    C     C_R   0.626783 0.927939 0.598451 0.179617
C6    C     C_R   0.342822 0.065251 0.489209 0.179914
C7    C     C_R   0.471854 0.951584 0.534636 0.069079
C8    C     C_R   0.496590 0.041755 0.556592 0.069951
C9    C     C_R   0.582741 0.071417 0.606802 -0.231739
C10   C     C_R   0.378905 0.918851 0.500369 -0.232803
C11   C     C_R   0.645880 0.014589 0.628806 -0.239991
C12   C     C_R   0.441847 0.337539 0.490201 0.877036
C13   C     C_R   0.314855 0.975087 0.479944 -0.245492
C14   C     C_R   0.182943 0.666102 0.422935 -0.317140
C15   C     C_R   0.824462 0.350297 0.608673 -0.316279
C16   C     C_R   0.512366 0.499504 0.349214 0.861601
C17   C     C_R   0.491245 0.509037 0.650999 0.854611
C18   C     C_R   0.261950 0.628778 0.419419 0.021125
C19   C     C_R   0.737529 0.373757 0.585473 0.030384
C20   C     C_R   0.204422 0.507140 0.490287 -0.069949
C21   C     C_R   0.802735 0.502825 0.528946 -0.086629
C22   C     C_R   0.127492 0.546069 0.503989 -0.007137
C23   C     C_R   0.589927 0.755353 0.534064 -0.057599
C24   C     C_R   0.893420 0.485749 0.556473 -0.005975
C25   C     C_R   0.116178 0.625838 0.466407 0.153949
C26   C     C_R   0.902743 0.405596 0.593249 0.149420
C27   C     C_R   0.059233 0.507115 0.549305 0.003920
C28   C     C_R   0.974098 0.541374 0.542148 0.014352
C29   C     C_R   0.974118 0.629525 0.520364 0.080300
C30   C     C_R   0.069882 0.435538 0.600687 0.085434
C31   C     C_R   0.041376 0.667542 0.476638 -0.244034
C32   C     C_R   0.990159 0.382453 0.616496 -0.240150
C33   C     C_R   0.525836 0.514670 0.265756 -0.040601
C34   C     C_R   0.404701 0.244901 0.491798 -0.061292
C35   C     C_R   0.499075 0.542557 0.734810 -0.037602
C36   C     C_R   0.454214 0.539222 0.209868 -0.214590
C37   C     C_R   0.587176 0.561257 0.782709 -0.202642
C38   C     C_R   0.470502 0.564672 0.133725 -0.149018
C39   C     C_R   0.597672 0.599523 0.860182 -0.160890
C40   C     C_R   0.559031 0.566536 0.112803 0.206291
C41   C     C_R   0.519656 0.616175 0.892329 0.207267
C42   C     C_R   0.629752 0.539599 0.167706 -0.182873
C43   C     C_R   0.432593 0.603546 0.842910 -0.163603
C44   C     C_R   0.613470 0.513978 0.243855 -0.194335
C45   C     C_R   0.692259 0.871467 0.617239 -0.212981
C46   C     C_R   0.422485 0.567789 0.763966 -0.207324
C47   C     C_2   0.576530 0.584985 0.030747 -0.230896
C48   C     C_2   0.524498 0.630692 0.979981 -0.244007
C49   C     C_3   0.917455 0.690156 0.556581 -0.440369
C50   C     C_3   0.981268 0.761697 0.613588 -0.312386
C51   C     C_3   0.926296 0.823173 0.651125 -0.922066
C52   C     C_3   0.162386 0.418012 0.646677 -0.433790
C53   C     C_3   0.165611 0.419363 0.739580 -0.342166
C54   C     C_3   0.246738 0.377593 0.781301 -0.882296
C55   C     C_R   0.281359 0.122104 0.459105 -0.206424
C56   C     C_R   0.673285 0.784790 0.586156 -0.202894
C57   C     C_R   0.312198 0.211817 0.460482 -0.204270
C58   C     C_R   0.527047 0.812829 0.512636 -0.250547
H1    H     H_    0.385868 0.539800 0.225187 0.156534
H2    H     H_    0.317645 0.663153 0.392241 0.125279
H3    H     H_    0.176359 0.728111 0.395590 0.137029
H4    H     H_    0.830455 0.289831 0.639011 0.138832
H5    H     H_    0.354722 0.558364 0.726534 0.158264
H6    H     H_    0.670069 0.495508 0.286001 0.159889
H7    H     H_    0.472943 0.664696 0.001164 0.146098
H8    H     H_    0.627269 0.550286 0.008946 0.149502
H9    H     H_    0.697703 0.538513 0.151601 0.127102
H10   H     H_    0.371811 0.616917 0.866737 0.124430
H11   H     H_    0.666284 0.612422 0.896165 0.126616
H12   H     H_    0.648492 0.547118 0.760286 0.159242
H13   H     H_    0.413011 0.580596 0.091166 0.123548
H14   H     H_    0.710813 0.039152 0.667944 0.142704
H15   H     H_    0.244434 0.947970 0.453226 0.140586
H16   H     H_    0.535145 0.216178 0.548693 0.150224
H17   H     H_    0.466452 0.790159 0.467928 0.146507
H18   H     H_    0.264776 0.254704 0.434907 0.154939
H19   H     H_    0.721829 0.740359 0.604669 0.159736
H20   H     H_    0.756615 0.893937 0.657754 0.141986
H21   H     H_    0.210593 0.096901 0.431949 0.134572
H22   H     H_    0.886897 0.856751 0.602428 0.267780
H23   H     H_    0.601621 0.137709 0.632294 0.139973
H24   H     H_    0.878094 0.786264 0.687271 0.259738
H25   H     H_    0.974448 0.873432 0.692055 0.252479
H26   H     H_    0.022515 0.730573 0.663162 0.225589
H27   H     H_    0.030077 0.801668 0.579978 0.220216
H28   H     H_    0.875540 0.720329 0.506791 0.201359
H29   H     H_    0.870059 0.654643 0.594044 0.205206
H30   H     H_    0.234869 0.306243 0.765131 0.260335
H31   H     H_    0.312512 0.407123 0.762509 0.266297
H32   H     H_    0.253150 0.387256 0.848271 0.251526
H33   H     H_    0.172957 0.488280 0.763476 0.216716
H34   H     H_    0.353362 0.849675 0.490778 0.150273
H35   H     H_    0.101516 0.383364 0.756668 0.223655
H36   H     H_    0.175577 0.353456 0.624188 0.207205
H37   H     H_    0.220066 0.469035 0.637564 0.203951
H38   H     H_    0.038003 0.732431 0.454400 0.140875
H39   H     H_    0.996494 0.323072 0.648631 0.144014
H40   H     H_    0.790226 0.558544 0.493503 0.131587
H41   H     H_    0.213758 0.442661 0.509414 0.125108
H42   H     H_    0.677140 0.332516 0.599550 0.126956
N1    N     N_R   0.271750 0.551950 0.454510 -0.097767
N2    N     N_R   0.728250 0.448050 0.545490 -0.095696
O1    O     O_R   0.615140 0.606020 0.522930 -0.622163
O2    O     O_R   0.384860 0.393980 0.477070 -0.616779
O3    O     O_R   0.468580 0.639400 0.493740 -0.617981
O4    O     O_R   0.531420 0.360600 0.506260 -0.620414
O5    O     O_R   0.581950 0.481350 0.400520 -0.610018
O6    O     O_R   0.418050 0.518650 0.599480 -0.614556
O7    O     O_R   0.435380 0.514730 0.371330 -0.616986
O8    O     O_R   0.564620 0.485270 0.628670 -0.619687
Zn1   Zn    Zn3+2 0.597860 0.477710 0.519490 0.933421
Zn2   Zn    Zn3+2 0.402140 0.522290 0.480510 0.934570

loop_
_geom_bond_atom_site_label_1
_geom_bond_atom_site_label_2
_ccdc_geom_bond_type
C25   C31   A    
C40   C47   S    
C38   C40   A    
C26   C32   A    
C23   C58   A    
C49   H29   S    
C6    C55   A    
C4    C8    A    
C36   H1    S    
C17   O8    A    
C50   H26   S    
C7    C8    A    
C39   C41   A    
C29   C49   S    
C53   C54   S    
C44   H6    S    
N1    Zn2   S    
C15   C19   A    
C57   H18   S    
C28   C29   A    
C35   C37   A    
C24   C26   A    
C54   H32   S    
C3    C7    A    
C19   N2    A    
C31   H38   S    
C33   C36   A    
C32   H39   S    
C52   H37   S    
O1    Zn1   S    
C7    C10   A    
C14   C18   A    
O8    Zn1   S    
C16   O5    A    
C51   H22   S    
C15   H4    S    
C45   C56   A    
C8    C9    A    
C22   C25   A    
C53   H33   S    
C34   C57   A    
C52   H36   S    
C45   H20   S    
C48   H7    S    
C1    O1    A    
C47   H8    S    
C50   H27   S    
C2    C34   A    
C40   C42   A    
C10   H34   S    
C37   H12   S    
C27   C30   A    
C41   C43   A    
N2    Zn1   S    
C42   C44   A    
C58   H17   S    
O4    Zn1   S    
C53   H35   S    
C23   C56   A    
C54   H31   S    
C4    C6    A    
O7    Zn2   S    
C16   O7    A    
C11   H14   S    
C43   H10   S    
C15   C26   A    
C20   N1    A    
C14   H3    S    
C5    C45   A    
C56   H19   S    
O6    Zn2   S    
C18   N1    A    
C2    C4    A    
C16   C33   S    
C55   H21   S    
C47   C48   D    
C50   C51   S    
C39   H11   S    
C12   O2    A    
C9    C11   A    
C51   H24   S    
C21   N2    A    
C18   H2    S    
O3    Zn2   S    
C13   H15   S    
C1    C23   S    
C22   C27   A    
C55   C57   A    
C42   H9    S    
C17   O6    A    
C12   C34   S    
C51   H25   S    
C52   C53   S    
O2    Zn2   S    
C30   C52   S    
C38   H13   S    
C33   C44   A    
O5    Zn1   S    
C49   H28   S    
C24   C28   A    
C20   C22   A    
C3    C5    A    
C10   C13   A    
C2    H16   S    
C19   H42   S    
C5    C11   A    
C12   O4    A    
C46   H5    S    
C54   H30   S    
C36   C38   A    
C37   C39   A    
C6    C13   A    
C30   C32   A    
C21   H40   S    
C20   H41   S    
C41   C48   S    
C14   C25   A    
C43   C46   A    
C3    C58   A    
C29   C31   A    
C49   C50   S    
C21   C24   A    
C1    O3    A    
C27   C28   A    
C17   C35   S    
C35   C46   A    
C9    H23   S    
