data_mof_unit_24724.cif
_audit_creation_date              2012-12-10T18:43:05-0500
_audit_creation_method            fapswitch 2.2
_symmetry_space_group_name_H-M    P1
_symmetry_Int_Tables_number       1
_space_group_crystal_system       triclinic
_cell_length_a                    18.119503
_cell_length_b                    18.171246
_cell_length_c                    18.16971
_cell_angle_alpha                 120.195272
_cell_angle_beta                  90.045084
_cell_angle_gamma                 60.040453
_cell_volume                      4221.9668069

loop_
_atom_site_label
_atom_site_type_symbol
_atom_type_description
_atom_site_fract_x
_atom_site_fract_y
_atom_site_fract_z
_atom_type_partial_charge
C1    C     C_R   0.891219 0.217284 0.608377 0.544876
C2    C     C_3   0.552410 0.896845 0.948457 0.052172
C3    C     C_3   0.411281 0.034347 0.016772 -0.147969
C4    C     C_3   0.588719 0.965653 0.983228 -0.147970
C5    C     C_3   0.983204 0.430847 0.447531 0.209783
C6    C     C_3   0.016796 0.569153 0.552469 0.209783
C7    C     C_3   0.078099 0.404648 0.447573 -0.066610
C8    C     C_3   0.921901 0.595352 0.552427 -0.066610
C9    C     C_3   0.051689 0.500167 0.448452 0.012060
C10   C     C_3   0.948311 0.499833 0.551547 0.012060
C11   C     C_3   0.956641 0.525858 0.448056 -0.067086
C12   C     C_R   0.108781 0.782716 0.391623 0.544877
C13   C     C_3   0.043359 0.474142 0.551944 -0.067086
C14   C     C_3   0.983135 0.032528 0.446018 -0.056832
C15   C     C_3   0.016865 0.967472 0.553982 -0.056832
C16   C     C_R   0.608680 0.782901 0.891454 0.580904
C17   C     C_R   0.391320 0.217099 0.108546 0.580904
C18   C     C_3   0.958041 0.964333 0.448573 0.193271
C19   C     C_3   0.041959 0.035667 0.551427 0.193271
C20   C     C_3   0.052479 0.896518 0.449425 0.015426
C21   C     C_3   0.947520 0.103482 0.550575 0.015425
C22   C     C_3   0.077910 0.965040 0.447437 -0.072618
C23   C     C_3   0.552828 0.432109 0.413833 0.198424
C24   C     C_3   0.922090 0.034959 0.552562 -0.072618
C25   C     C_3   0.921172 0.524832 0.043018 -0.155901
C26   C     C_3   0.078828 0.475168 0.956982 -0.155900
C27   C     C_3   0.956381 0.594353 0.078272 -0.051223
C28   C     C_3   0.043619 0.405647 0.921728 -0.051223
C29   C     C_3   0.051554 0.499700 0.051481 0.032874
C30   C     C_3   0.948446 0.500300 0.948519 0.032874
C31   C     C_3   0.017393 0.430323 0.015420 0.226001
C32   C     C_3   0.982607 0.569677 0.984580 0.226001
C33   C     C_3   0.551723 0.405919 0.922356 0.180370
C34   C     C_3   0.447172 0.567891 0.586167 0.198424
C35   C     C_3   0.448277 0.594081 0.077644 0.180370
C36   C     C_3   0.447899 0.474658 0.957892 0.181493
C37   C     C_3   0.552101 0.525342 0.042108 0.181493
C38   C     C_3   0.449575 0.498637 0.051842 0.035682
C39   C     C_3   0.550424 0.501363 0.948157 0.035682
C40   C     C_R   0.608334 0.500270 0.891306 0.572781
C41   C     C_R   0.391666 0.499730 0.108693 0.572782
C42   C     C_3   0.554419 0.429201 0.015973 -0.068465
C43   C     C_3   0.445581 0.570799 0.984027 -0.068465
C44   C     C_R   0.891424 0.499900 0.608528 0.536100
C45   C     C_3   0.483168 0.965289 0.923064 0.201952
C46   C     C_R   0.108575 0.500100 0.391472 0.536100
C47   C     C_R   0.891479 0.500080 0.891395 0.534921
C48   C     C_R   0.108521 0.499920 0.108605 0.534921
C49   C     C_R   0.608516 0.500104 0.608742 0.561685
C50   C     C_R   0.391484 0.499896 0.391258 0.561686
C51   C     C_3   0.550564 0.527653 0.484792 0.185228
C52   C     C_3   0.449436 0.472347 0.515208 0.185228
C53   C     C_3   0.446395 0.596418 0.519294 -0.078544
C54   C     C_3   0.553605 0.403582 0.480706 -0.078544
C55   C     C_3   0.448568 0.500168 0.447805 0.031049
C56   C     C_3   0.516832 0.034711 0.076936 0.201952
C57   C     C_3   0.551432 0.499832 0.552195 0.031049
C58   C     C_1   0.387985 0.701310 0.540269 0.261925
C59   C     C_1   0.612015 0.298690 0.459731 0.261924
C60   C     C_1   0.964063 0.066415 0.385881 0.279815
C61   C     C_1   0.035937 0.933585 0.614119 0.279815
C62   C     C_1   0.163834 0.926744 0.391328 0.251569
C63   C     C_1   0.836166 0.073256 0.608672 0.251569
C64   C     C_1   0.909348 0.698395 0.163755 0.254186
C65   C     C_1   0.090652 0.301605 0.836245 0.254186
C66   C     C_1   0.615231 0.351679 0.032237 0.288112
C67   C     C_3   0.517750 0.034012 0.957780 0.199144
C68   C     C_1   0.384769 0.648321 0.967763 0.288112
C69   C     C_1   0.162998 0.300219 0.389030 0.254684
C70   C     C_1   0.837002 0.699781 0.610970 0.254684
C71   C     C_1   0.910290 0.552441 0.390045 0.257354
C72   C     C_1   0.089710 0.447559 0.609955 0.257354
C73   C     C_3   0.482250 0.965987 0.042219 0.199144
C74   C     C_3   0.447590 0.103155 0.051543 0.052172
H1    H     H_    0.857212 0.543933 0.077251 0.157793
H2    H     H_    0.591653 0.565166 0.144689 0.350282
H3    H     H_    0.590859 0.263960 0.842803 0.359594
H4    H     H_    0.409140 0.736040 0.157197 0.359594
H5    H     H_    0.590690 0.566526 0.421708 0.350059
H6    H     H_    0.409310 0.433474 0.578292 0.350059
H7    H     H_    0.670344 0.332173 0.323458 0.357083
H8    H     H_    0.329655 0.667827 0.676542 0.357083
H9    H     H_    0.582723 0.009847 0.856010 0.359201
H10   H     H_    0.417277 0.990153 0.143990 0.359201
H11   H     H_    0.419768 0.988311 0.844204 0.354840
H12   H     H_    0.142788 0.456067 0.922749 0.157793
H13   H     H_    0.580232 0.011689 0.155795 0.354839
H14   H     H_    0.996134 0.326684 0.330339 0.342096
H15   H     H_    0.003866 0.673316 0.669661 0.342096
H16   H     H_    0.339349 0.062156 0.030359 0.165633
H17   H     H_    0.660651 0.937844 0.969641 0.165633
H18   H     H_    0.856329 0.986001 0.407595 0.348657
H19   H     H_    0.143671 0.013999 0.592405 0.348657
H20   H     H_    0.004005 0.326651 0.002433 0.342293
H21   H     H_    0.995995 0.673349 0.997567 0.342293
H22   H     H_    0.408347 0.434834 0.855311 0.350282
N1    N     N_1   0.341836 0.783982 0.556756 -0.244220
N2    N     N_1   0.336869 0.709422 0.954908 -0.197289
N3    N     N_1   0.229923 0.217948 0.342821 -0.238216
N4    N     N_1   0.770077 0.782052 0.657179 -0.238216
N5    N     N_1   0.873859 0.573343 0.344257 -0.226418
N6    N     N_1   0.126141 0.426657 0.655743 -0.226418
N7    N     N_1   0.658164 0.216018 0.443244 -0.244220
N8    N     N_1   0.948984 0.093178 0.338542 -0.204757
N9    N     N_1   0.051016 0.906821 0.661458 -0.204757
N10   N     N_1   0.231563 0.896576 0.347126 -0.194010
N11   N     N_1   0.768437 0.103424 0.652874 -0.194010
N12   N     N_1   0.872256 0.780444 0.231170 -0.194555
N13   N     N_1   0.127744 0.219556 0.768830 -0.194555
N14   N     N_1   0.663131 0.290578 0.045092 -0.197289
O1    O     O_3   0.750010 0.499980 0.749990 -0.500370
O2    O     O_R   0.305750 0.265450 0.132730 -0.552980
O3    O     O_R   0.867280 0.265410 0.571220 -0.543894
O4    O     O_R   0.132720 0.734590 0.428780 -0.543894
O5    O     O_R   0.571230 0.734580 0.867270 -0.477825
O6    O     O_R   0.428770 0.265420 0.132730 -0.477825
O7    O     O_R   0.694200 0.438470 0.867270 -0.489185
O8    O     O_R   0.305800 0.561530 0.132730 -0.489186
O9    O     O_R   0.867340 0.561470 0.694210 -0.547473
O10   O     O_R   0.132660 0.438530 0.305790 -0.547474
O11   O     O_R   0.867310 0.438430 0.867270 -0.541082
O12   O     O_3   0.249990 0.500020 0.250010 -0.500370
O13   O     O_R   0.132690 0.561570 0.132730 -0.541082
O14   O     O_R   0.694200 0.438520 0.571220 -0.523681
O15   O     O_R   0.305800 0.561480 0.428780 -0.523681
O16   O     O_R   0.867340 0.561440 0.867270 -0.484397
O17   O     O_R   0.132660 0.438560 0.132730 -0.484397
O18   O     O_R   0.571190 0.561530 0.694210 -0.486951
O19   O     O_R   0.428810 0.438470 0.305790 -0.486951
O20   O     O_3   0.915424 0.924258 0.393500 -0.638290
O21   O     O_3   0.084576 0.075742 0.606500 -0.638290
O22   O     O_3   0.037544 0.356226 0.032042 -0.633234
O23   O     O_R   0.571190 0.561490 0.867270 -0.549442
O24   O     O_3   0.962456 0.643773 0.967958 -0.633235
O25   O     O_3   0.393389 0.446677 0.914403 -0.658424
O26   O     O_3   0.606611 0.553323 0.085597 -0.658424
O27   O     O_3   0.605812 0.308077 0.839661 -0.646183
O28   O     O_3   0.394188 0.691923 0.160339 -0.646183
O29   O     O_3   0.605298 0.555267 0.469274 -0.639276
O30   O     O_3   0.394702 0.444733 0.530725 -0.639276
O31   O     O_3   0.607388 0.362108 0.322968 -0.623372
O32   O     O_3   0.392612 0.637892 0.677032 -0.623372
O33   O     O_3   0.533497 0.072347 0.914047 -0.651759
O34   O     O_R   0.428810 0.438510 0.132730 -0.549443
O35   O     O_3   0.466503 0.927653 0.085953 -0.651759
O36   O     O_3   0.468445 0.926149 0.840246 -0.636927
O37   O     O_3   0.531555 0.073850 0.159754 -0.636927
O38   O     O_3   0.964616 0.358304 0.393469 -0.621292
O39   O     O_3   0.035384 0.641696 0.606531 -0.621292
O40   O     O_R   0.867310 0.438490 0.571220 -0.472367
O41   O     O_R   0.132690 0.561510 0.428780 -0.472368
O42   O     O_R   0.867280 0.265380 0.694210 -0.504622
O43   O     O_R   0.132720 0.734620 0.305790 -0.504622
O44   O     O_R   0.694250 0.734550 0.867270 -0.552980
Zn1   Zn    Zn3+2 0.618190 0.587870 0.793920 1.035960
Zn2   Zn    Zn3+2 0.381810 0.412130 0.206080 1.035960
Zn3   Zn    Zn3+2 0.793940 0.412090 0.793920 1.012870
Zn4   Zn    Zn3+2 0.206060 0.587910 0.206080 1.012869
Zn5   Zn    Zn3+2 0.793970 0.587840 0.793920 0.999615
Zn6   Zn    Zn3+2 0.206030 0.412160 0.206080 0.999615
Zn7   Zn    Zn3+2 0.793940 0.412130 0.618200 1.017920
Zn8   Zn    Zn3+2 0.206060 0.587870 0.381800 1.017920

loop_
_geom_bond_atom_site_label_1
_geom_bond_atom_site_label_2
_ccdc_geom_bond_type
C25   C31   S    
H5    O29   S    
C36   O25   S    
C1    C21   S    
C27   C29   S    
C14   C18   S    
H18   O20   S    
O15   Zn8   S    
O1    Zn7   S    
C12   O43   A    
H8    O32   S    
C67   O33   S    
C6    C9    S    
H2    O26   S    
O16   Zn5   S    
C15   C19   S    
C32   O24   S    
C33   C39   S    
H13   O37   S    
C23   C54   S    
C3    H16   S    
C18   C24   S    
C33   C42   S    
C14   C21   S    
C19   C21   S    
H3    O27   S    
C5    C11   S    
C35   O28   S    
C11   C71   S    
O4    Zn8   S    
O43   Zn4   S    
C33   C36   S    
C49   C57   S    
C1    O42   A    
C37   C42   S    
O40   Zn7   S    
C3    C74   S    
O1    Zn5   S    
O18   Zn1   S    
C6    O39   S    
C70   N4    T    
C43   C68   S    
C45   C67   S    
C34   C57   S    
C51   C57   S    
C41   O8    A    
H9    O33   S    
C35   C43   S    
C18   C20   S    
C52   C55   S    
C4    H17   S    
O5    Zn1   S    
C47   O11   A    
H15   O39   S    
C40   O7    A    
C71   N5    T    
C9    C46   S    
C5    O38   S    
O11   Zn3   S    
C4    C56   S    
C29   C31   S    
C58   N1    T    
C1    O3    A    
C48   O13   A    
H4    O28   S    
C5    C10   S    
C26   C28   S    
C52   C54   S    
C64   N12   T    
H22   O25   S    
C12   O4    A    
C54   C59   S    
C53   C55   S    
C2    C45   S    
C19   O21   S    
C15   C20   S    
H19   O21   S    
C56   C74   S    
C29   C48   S    
C10   C44   S    
C45   O36   S    
C30   C47   S    
C19   C22   S    
H11   O36   S    
C38   C41   S    
C33   O27   S    
C39   C40   S    
C5    C7    S    
C26   C32   S    
C39   C43   S    
C44   O9    A    
H10   O35   S    
C49   O14   A    
O7    Zn3   S    
C3    C45   S    
H21   O24   S    
C44   O40   A    
C73   O35   S    
C25   H1    S    
O34   Zn2   S    
C2    C4    S    
C31   O22   S    
C50   O19   A    
C22   C62   S    
C23   C51   S    
C26   H12   S    
O41   Zn8   S    
C12   C20   S    
C15   C61   S    
C37   O26   S    
C46   O10   A    
C50   O15   A    
C66   N14   T    
C9    C11   S    
C65   N13   T    
C2    C73   S    
C41   O34   A    
C69   N3    T    
C34   C53   S    
O9    Zn5   S    
C15   C24   S    
C13   C72   S    
C20   C22   S    
C24   C63   S    
C16   O44   A    
C17   C74   S    
O8    Zn4   S    
C63   N11   T    
C17   O2    A    
C16   O5    A    
C61   N9    T    
C47   O16   A    
C42   C66   S    
O14   Zn7   S    
C25   C30   S    
C7    C9    S    
C49   O18   A    
O42   Zn3   S    
C34   O32   S    
C56   C73   S    
O12   Zn4   S    
C35   C37   S    
C27   C32   S    
O23   Zn1   S    
C8    C70   S    
C28   C31   S    
O12   Zn2   S    
C10   C13   S    
C7    C69   S    
O19   Zn2   S    
C6    C8    S    
C53   C58   S    
C23   C55   S    
C62   N10   T    
O13   Zn4   S    
C2    C16   S    
C25   C27   S    
C14   C60   S    
C40   O23   A    
C34   C52   S    
C50   C55   S    
O12   Zn8   S    
C59   N7    T    
C14   C22   S    
C56   O37   S    
C36   C38   S    
C28   C65   S    
O1    Zn3   S    
O44   Zn5   S    
C37   C39   S    
H6    O30   S    
C6    C13   S    
C30   C32   S    
H14   O38   S    
C72   N6    T    
C8    C11   S    
H7    O31   S    
C52   O30   S    
C28   C30   S    
C46   O41   A    
C67   C74   S    
C3    C73   S    
H20   O22   S    
O6    Zn2   S    
C18   O20   S    
C27   C64   S    
O3    Zn7   S    
C38   C42   S    
O2    Zn6   S    
C7    C13   S    
C26   C29   S    
C8    C10   S    
C21   C24   S    
O10   Zn6   S    
O12   Zn6   S    
C35   C38   S    
C23   O31   S    
C36   C43   S    
C68   N2    T    
C51   C53   S    
C60   N8    T    
O1    Zn1   S    
O17   Zn6   S    
C4    C67   S    
C17   O6    A    
C48   O17   A    
C54   C57   S    
C51   O29   S    
