data_mof_unit_34398.cif
_audit_creation_date              2012-12-10T20:03:09-0500
_audit_creation_method            fapswitch 2.2
_symmetry_space_group_name_H-M    P1
_symmetry_Int_Tables_number       1
_space_group_crystal_system       triclinic
_cell_length_a                    8.602164
_cell_length_b                    18.576766
_cell_length_c                    18.768795
_cell_angle_alpha                 89.550641
_cell_angle_beta                  98.821996
_cell_angle_gamma                 93.268011
_cell_volume                      2958.95726664

loop_
_atom_site_label
_atom_site_type_symbol
_atom_type_description
_atom_site_fract_x
_atom_site_fract_y
_atom_site_fract_z
_atom_type_partial_charge
C1    C     C_R   0.497459 0.364837 0.500144 0.878092
C2    C     C_R   0.493474 0.634922 0.499271 0.882159
C3    C     C_R   0.241858 0.959721 0.539878 0.469556
C4    C     C_R   0.305874 0.028059 0.411715 0.472657
C5    C     C_R   0.252080 0.034561 0.535353 -0.173531
C6    C     C_R   0.301048 0.953384 0.417116 -0.162144
C7    C     C_R   0.290268 0.068971 0.473113 -0.164314
C8    C     C_R   0.276013 0.918963 0.481451 -0.163944
C9    C     C_R   0.621502 0.530472 0.739624 0.467871
C10   C     C_R   0.455753 0.439794 0.266266 0.484377
C11   C     C_R   0.613834 0.527394 0.814185 -0.199455
C12   C     C_R   0.463403 0.442688 0.191525 -0.205862
C13   C     C_R   0.473726 0.508306 0.839951 0.090725
C14   C     C_R   0.482952 0.507857 0.156103 0.098655
C15   C     C_R   0.347188 0.483987 0.788409 -0.169656
C16   C     C_R   0.512740 0.568876 0.199475 -0.186321
C17   C     C_R   0.370355 0.468792 0.716997 0.488314
C18   C     C_R   0.541063 0.563461 0.275476 0.459507
C19   C     C_R   0.382039 0.456498 0.956186 0.286643
C20   C     C_R   0.579754 0.556865 0.040555 0.288330
C21   C     C_R   0.360393 0.467762 0.028653 0.292224
C22   C     C_R   0.548741 0.566714 0.964682 0.290782
C23   C     C_R   0.201652 0.498211 0.481085 0.853518
C24   C     C_R   0.798440 0.503167 0.518421 0.878532
C25   C     C_R   0.474151 0.511389 0.074615 -0.199837
C26   C     C_R   0.465381 0.510783 0.920468 -0.186584
C27   C     C_2   0.035746 0.487845 0.472848 0.226382
C28   C     C_2   0.964009 0.515948 0.524299 0.278632
C29   C     C_R   0.311355 0.722778 0.442588 -0.093505
C30   C     C_R   0.292393 0.269357 0.503029 -0.114478
C31   C     C_R   0.246354 0.789759 0.440157 0.464563
C32   C     C_R   0.234194 0.198232 0.492798 0.469703
C33   C     C_R   0.315614 0.843386 0.490105 -0.037010
C34   C     C_R   0.337947 0.145858 0.477838 -0.034051
C35   C     C_R   0.442334 0.827274 0.543399 -0.152708
C36   C     C_R   0.495727 0.166212 0.472441 -0.131839
C37   C     C_R   0.502672 0.759346 0.546503 -0.171305
C38   C     C_R   0.550917 0.237815 0.481331 -0.117500
C39   C     C_R   0.440126 0.707730 0.494876 -0.103989
C40   C     C_R   0.449325 0.289067 0.497161 -0.067476
H1    H     H_    0.236832 0.467445 0.806051 0.246491
H2    H     H_    0.526451 0.620757 0.173982 0.240138
H3    H     H_    0.258001 0.681490 0.404575 0.187166
H4    H     H_    0.212901 0.310137 0.512581 0.176153
H5    H     H_    0.497567 0.868157 0.581379 0.193880
H6    H     H_    0.576310 0.126308 0.461706 0.187194
H7    H     H_    0.599780 0.747619 0.588054 0.184805
H8    H     H_    0.671790 0.253260 0.475695 0.181026
H9    H     H_    0.238292 0.066102 0.582108 0.215664
H10   H     H_    0.326309 0.922201 0.372087 0.220562
H11   H     H_    0.717160 0.542233 0.852690 0.247399
H12   H     H_    0.446495 0.393847 0.159708 0.241461
N1    N     N_R   0.500020 0.499980 0.689440 -0.205191
N2    N     N_R   0.499980 0.500020 0.310560 -0.197791
O1    O     O_R   0.500010 0.398180 0.560840 -0.570453
O2    O     O_R   0.499990 0.601820 0.439160 -0.564816
O3    O     O_R   0.499930 0.398180 0.439210 -0.526828
O4    O     O_R   0.500070 0.601820 0.560790 -0.562713
O5    O     O_R   0.271780 0.500000 0.546590 -0.528622
O6    O     O_R   0.728220 0.500000 0.453410 -0.533085
O7    O     O_R   0.271710 0.499990 0.424960 -0.614414
O8    O     O_R   0.728290 0.500010 0.575040 -0.551449
Zn1   Zn    Zn3+2 0.500050 0.500000 0.581210 1.117544
Zn2   Zn    Zn3+2 0.499950 0.500000 0.418790 1.108335
O9    O     O_3   0.955095 0.442859 0.419110 -0.742206
H13   H     H_    0.028315 0.428067 0.386934 0.387188
O10   O     O_3   0.044495 0.564064 0.574845 -0.730061
H14   H     H_    0.967854 0.595053 0.591334 0.374910
S1    S     S_3+6 0.265785 0.388014 0.681146 0.109435
O11   O     O_2   0.380587 0.335702 0.663178 -0.263857
O12   O     O_2   0.179354 0.353157 0.737302 -0.235766
O13   O     O_3   0.130559 0.401403 0.608835 -0.558016
H15   H     H_    0.061096 0.356767 0.603699 0.374775
S2    S     S_3+6 0.647775 0.640766 0.317507 0.096672
O14   O     O_2   0.746084 0.675821 0.265813 -0.224794
O15   O     O_2   0.533157 0.694128 0.333741 -0.300126
O16   O     O_3   0.771467 0.621772 0.392472 -0.535369
H16   H     H_    0.815590 0.669210 0.412187 0.369925
S3    S     S_3+6 0.332680 0.368705 0.919337 0.118170
O17   O     O_2   0.432748 0.352435 0.863132 -0.238509
O18   O     O_2   0.361170 0.313947 0.978596 -0.202884
O19   O     O_3   0.141184 0.362004 0.883050 -0.466245
H17   H     H_    0.114482 0.309588 0.877351 0.414176
S4    S     S_3+6 0.764402 0.591451 0.087585 0.126407
O20   O     O_2   0.814985 0.547770 0.153996 -0.245330
O21   O     O_2   0.887569 0.588067 0.039114 -0.175704
O22   O     O_3   0.751304 0.677784 0.111014 -0.466603
H18   H     H_    0.861182 0.695590 0.128457 0.413136
S5    S     S_3+6 0.178137 0.437288 0.055920 0.121150
O23   O     O_2   0.143592 0.482377 0.117181 -0.237706
O24   O     O_2   0.047564 0.443809 0.993488 -0.198055
O25   O     O_3   0.183576 0.350580 0.081881 -0.466340
H19   H     H_    0.077689 0.337948 0.094452 0.408241
S6    S     S_3+6 0.589719 0.653669 0.928712 0.109329
O26   O     O_2   0.484968 0.664514 0.858069 -0.269291
O27   O     O_2   0.559105 0.710314 0.980779 -0.192501
O28   O     O_3   0.779081 0.663598 0.916211 -0.466353
H20   H     H_    0.791171 0.712978 0.896766 0.406559
O29   O     O_3   0.116831 0.800310 0.388587 -0.721374
H21   H     H_    0.066743 0.844506 0.400240 0.348808
O30   O     O_3   0.076544 0.183053 0.496550 -0.756089
H22   H     H_    0.044517 0.133962 0.477769 0.346813
O31   O     O_3   0.206825 0.929021 0.603168 -0.723395
H23   H     H_    0.180698 0.876791 0.595392 0.347957
O32   O     O_3   0.334483 0.058609 0.347321 -0.703880
H24   H     H_    0.312125 0.110314 0.347009 0.364069
S7    S     S_3+6 0.796844 0.572994 0.717670 0.074369
O33   O     O_2   0.882339 0.615098 0.781437 -0.268835
O34   O     O_2   0.903164 0.516613 0.699706 -0.232136
O35   O     O_3   0.755976 0.630700 0.649006 -0.592676
H25   H     H_    0.824682 0.674665 0.662238 0.366543
S8    S     S_3+6 0.382445 0.355136 0.295287 0.081854
O36   O     O_2   0.301990 0.311695 0.231482 -0.252331
O37   O     O_2   0.517546 0.313859 0.331793 -0.277064
O38   O     O_3   0.249215 0.365469 0.350460 -0.568750
H26   H     H_    0.198044 0.316797 0.354559 0.373587

loop_
_geom_bond_atom_site_label_1
_geom_bond_atom_site_label_2
_ccdc_geom_bond_type
C38   C40   A    
O22   H18   S    
C17   S1    S    
O30   H22   S    
C16   H2    S    
O7    Zn2   S    
S7    O34   D    
S4    O22   S    
C30   H4    S    
S8    O37   D    
O28   H20   S    
C21   S5    S    
O16   H16   S    
C23   O5    A    
S2    O15   D    
C35   C37   A    
S4    O21   D    
C20   C25   A    
O38   H26   S    
C11   C13   A    
S1    O12   D    
C19   C26   A    
O35   H25   S    
C1    C40   S    
C33   C35   A    
C2    C39   S    
S2    O16   S    
O1    Zn1   S    
S7    O33   D    
O2    Zn2   S    
C10   S8    S    
C23   C27   S    
S5    O24   D    
C38   H8    S    
C18   S2    S    
C29   H3    S    
C22   S6    S    
C5    H9    S    
S6    O26   D    
C4    C7    A    
S8    O36   D    
C12   H12   S    
S2    O14   D    
O10   H14   S    
C28   O10   S    
S4    O20   D    
C15   H1    S    
C4    C6    A    
C3    C8    A    
S3    O18   D    
C6    C8    A    
S6    O28   S    
C32   C34   A    
S1    O13   S    
S6    O27   D    
O8    Zn1   S    
C27   O9    S    
C1    O3    A    
O29   H21   S    
C24   O6    A    
C29   C39   A    
C31   C33   A    
C30   C40   A    
C6    H10   S    
S5    O25   S    
C19   S3    S    
C9    C11   A    
C10   C12   A    
C16   C18   A    
C12   C14   A    
O19   H17   S    
C31   O29   S    
C13   C15   A    
S7    O35   S    
C14   C16   A    
C13   C26   S    
C37   H7    S    
C35   H5    S    
C17   N1    A    
O31   H23   S    
O3    Zn2   S    
C5    C7    A    
C4    O32   S    
C3    O31   S    
O4    Zn1   S    
C15   C17   A    
C21   C25   A    
C24   O8    A    
C19   C21   A    
C24   C28   S    
C20   C22   A    
O13   H15   S    
C3    C5    A    
S3    O19   S    
C2    O4    A    
C9    S7    S    
O32   H24   S    
O5    Zn1   S    
O6    Zn2   S    
C20   S4    S    
C1    O1    A    
C37   C39   A    
C2    O2    A    
C30   C32   A    
C36   H6    S    
N1    Zn1   S    
N2    Zn2   S    
C36   C38   A    
O25   H19   S    
C7    C34   S    
C34   C36   A    
C8    C33   S    
C14   C25   S    
S1    O11   D    
C10   N2    A    
C11   H11   S    
C18   N2    A    
S3    O17   D    
C23   O7    A    
C9    N1    A    
C29   C31   A    
O9    H13   S    
C22   C26   A    
C27   C28   D    
C32   O30   S    
S5    O23   D    
S8    O38   S    
