data_mof_unit_6940.cif
_audit_creation_date              2012-12-10T17:57:48-0500
_audit_creation_method            fapswitch 2.2
_symmetry_space_group_name_H-M    P1
_symmetry_Int_Tables_number       1
_space_group_crystal_system       triclinic
_cell_length_a                    10.83142
_cell_length_b                    9.533482
_cell_length_c                    15.068796
_cell_angle_alpha                 89.846397
_cell_angle_beta                  90.368185
_cell_angle_gamma                 89.972539
_cell_volume                      1555.98325759

loop_
_atom_site_label
_atom_site_type_symbol
_atom_type_description
_atom_site_fract_x
_atom_site_fract_y
_atom_site_fract_z
_atom_type_partial_charge
C1    C     C_R   0.262107 0.500018 0.499880 0.796036
C2    C     C_R   0.737893 0.499982 0.500121 0.796020
C3    C     C_R   0.334329 0.324182 0.042364 0.684760
C4    C     C_R   0.665681 0.675809 0.957635 0.684768
C5    C     C_R   0.063916 0.372559 0.498782 -0.114669
C6    C     C_R   0.936084 0.627441 0.501219 -0.114668
C7    C     C_R   0.936192 0.372536 0.498974 -0.128150
C8    C     C_R   0.063808 0.627464 0.501026 -0.128149
C9    C     C_R   0.871759 0.499976 0.500153 -0.040886
C10   C     C_R   0.128241 0.500024 0.499848 -0.040885
C11   C     C_R   0.421527 0.074532 0.445863 0.531931
C12   C     C_R   0.578473 0.925468 0.554137 0.531924
C13   C     C_R   0.578396 0.074097 0.554199 0.533114
C14   C     C_R   0.421604 0.925903 0.445801 0.533123
C15   C     C_R   0.497749 0.500290 0.328931 0.856271
C16   C     C_R   0.502252 0.499710 0.671068 0.856282
C17   C     C_R   0.591317 0.584568 0.814650 0.351319
C18   C     C_R   0.408698 0.415416 0.185349 0.351302
C19   C     C_R   0.507104 0.498452 0.767629 -0.304129
C20   C     C_R   0.492898 0.501549 0.232370 -0.304138
C21   C     C_R   0.424477 0.411519 0.812805 0.586952
C22   C     C_R   0.575511 0.588502 0.187194 0.586962
C23   C     C_R   0.421803 0.411239 0.905219 -0.067022
C24   C     C_R   0.578192 0.588772 0.094781 -0.067022
C25   C     C_R   0.502046 0.499946 0.953236 -0.107355
C26   C     C_R   0.497957 0.500054 0.046765 -0.107352
C27   C     C_R   0.586563 0.588035 0.907988 -0.046756
C28   C     C_R   0.413447 0.411956 0.092012 -0.046758
C29   C     C_R   0.338964 0.324275 0.950229 -0.194843
C30   C     C_R   0.661033 0.675733 0.049770 -0.194847
Cu1   Cu    Cu3+1 0.500000 0.640660 0.500000 1.103830
Cu2   Cu    Cu3+1 0.500000 0.359340 0.500000 1.103828
H1    H     H_    0.276902 0.255586 0.914136 0.234063
H2    H     H_    0.723092 0.744429 0.085862 0.234063
H3    H     H_    0.111984 0.272912 0.497789 0.196190
H4    H     H_    0.888016 0.727088 0.502211 0.196191
H5    H     H_    0.888207 0.272877 0.498132 0.192382
H6    H     H_    0.111793 0.727123 0.501868 0.192381
N1    N     N_R   0.500000 0.852070 0.500000 -0.341221
N2    N     N_R   0.500000 0.147930 0.500000 -0.341222
O1    O     O_R   0.319640 0.618740 0.499990 -0.557283
O2    O     O_R   0.680360 0.381260 0.500010 -0.557282
O3    O     O_R   0.680360 0.618740 0.500010 -0.547782
O4    O     O_R   0.319640 0.381260 0.499990 -0.547781
O5    O     O_R   0.499970 0.618800 0.370260 -0.489920
O6    O     O_R   0.500030 0.381200 0.629740 -0.489931
O7    O     O_R   0.500030 0.618800 0.629740 -0.547942
O8    O     O_R   0.499970 0.381200 0.370260 -0.547934
O9    O     O_3   0.679815 0.663538 0.771515 -0.564125
H7    H     H_    0.699618 0.619384 0.713962 0.343391
O10   O     O_3   0.320217 0.336423 0.228485 -0.564106
H8    H     H_    0.300387 0.380594 0.286029 0.343392
F1    F     F_    0.344062 0.329787 0.766254 -0.641666
F2    F     F_    0.655905 0.670262 0.233744 -0.641657
F3    F     F_    0.252179 0.237003 0.081983 -0.565130
F4    F     F_    0.747841 0.762975 0.918016 -0.565127
F5    F     F_    0.342390 0.144277 0.391523 -0.572334
F6    F     F_    0.657609 0.855723 0.608478 -0.572337
F7    F     F_    0.657093 0.143474 0.608852 -0.579034
F8    F     F_    0.342907 0.856526 0.391148 -0.579030

loop_
_geom_bond_atom_site_label_1
_geom_bond_atom_site_label_2
_ccdc_geom_bond_type
C13   F7    S    
C29   H1    S    
C25   C27   A    
C14   F8    S    
Cu1   O3    S    
C1    O4    A    
C26   C28   A    
Cu1   Cu2   S    
Cu1   N1    S    
C2    O3    A    
C12   F6    S    
C7    C9    A    
C4    C27   A    
C12   N1    A    
Cu2   N2    S    
C7    H5    S    
C5    C10   A    
C22   F2    S    
C25   C26   A    
Cu1   O7    S    
C4    F4    S    
C21   F1    S    
Cu2   O8    S    
C15   C20   S    
C8    H6    S    
C15   O8    A    
C2    O2    A    
C16   C19   S    
C5    H3    S    
C16   O7    A    
C1    O1    A    
C3    C28   A    
C19   C21   A    
C20   C22   A    
C18   O10   S    
C24   C30   A    
C23   C25   A    
C21   C23   A    
Cu2   O4    S    
C11   N2    A    
C11   C14   A    
C22   C24   A    
C30   H2    S    
C17   O9    S    
O10   H8    S    
C17   C27   A    
C23   C29   A    
C6    C9    A    
C18   C28   A    
C12   C13   A    
C18   C20   A    
C5    C7    A    
O9    H7    S    
Cu1   O5    S    
C16   O6    A    
C3    C29   A    
Cu2   O2    S    
C13   N2    A    
C6    C8    A    
Cu1   O1    S    
C17   C19   A    
C14   N1    A    
C11   F5    S    
C2    C9    S    
Cu2   O6    S    
C8    C10   A    
C4    C30   A    
C1    C10   S    
C24   C26   A    
C6    H4    S    
C3    F3    S    
C15   O5    A    
