data_mof_unit_52913.cif
_audit_creation_date              2012-12-10T16:40:37-0500
_audit_creation_method            fapswitch 2.2
_symmetry_space_group_name_H-M    P1
_symmetry_Int_Tables_number       1
_space_group_crystal_system       triclinic
_cell_length_a                    10.842041
_cell_length_b                    10.867369
_cell_length_c                    19.413919
_cell_angle_alpha                 97.414936
_cell_angle_beta                  91.536303
_cell_angle_gamma                 98.666821
_cell_volume                      2239.90711735

loop_
_atom_site_label
_atom_site_type_symbol
_atom_type_description
_atom_site_fract_x
_atom_site_fract_y
_atom_site_fract_z
_atom_type_partial_charge
C1    C     C_R   0.477674 0.162870 0.485769 0.794999
C2    C     C_2   0.552629 0.449220 0.015427 -0.216729
C3    C     C_2   0.534235 0.547911 0.983986 -0.173943
C4    C     C_R   0.523754 0.838642 0.515044 0.923154
C5    C     C_R   0.488185 0.516485 0.763047 -0.261482
C6    C     C_2   0.527814 0.973765 0.520104 -0.470427
C7    C     C_2   0.463169 0.029265 0.475521 0.289665
C8    C     C_2   0.972408 0.549070 0.514658 0.231211
C9    C     C_2   0.031584 0.456810 0.483504 -0.313613
C10   C     C_R   0.164831 0.472679 0.485317 0.909662
C11   C     C_R   0.836792 0.528357 0.514494 0.796877
C12   C     C_R   0.542477 0.454812 0.090858 0.121966
C13   C     C_R   0.486127 0.514507 0.688141 0.960416
C14   C     C_R   0.512544 0.485454 0.311387 0.786933
C15   C     C_R   0.518598 0.476108 0.235321 -0.045322
C16   C     C_R   0.425315 0.510708 0.192499 -0.010992
C17   C     C_R   0.438379 0.498741 0.120827 -0.239224
C18   C     C_R   0.313656 0.560490 0.219673 0.123524
C19   C     C_R   0.298016 0.684211 0.212241 -0.105761
C20   C     C_R   0.191944 0.731577 0.236485 -0.061619
C21   C     C_R   0.100257 0.655529 0.267661 -0.083618
C22   C     C_R   0.114216 0.531825 0.274343 -0.122409
C23   C     C_R   0.635436 0.420243 0.133042 0.025915
C24   C     C_R   0.220401 0.483996 0.250351 -0.134703
C25   C     C_R   0.354216 0.677456 0.923810 0.172216
C26   C     C_R   0.256317 0.618443 0.959730 -0.113756
C27   C     C_R   0.189675 0.690324 0.005753 -0.146838
C28   C     C_R   0.220586 0.821166 0.016351 -0.106678
C29   C     C_R   0.318203 0.880377 0.980931 -0.122520
C30   C     C_R   0.385223 0.808847 0.934923 -0.075553
C31   C     C_R   0.970839 0.322748 0.466353 0.105157
C32   C     C_R   0.982124 0.256394 0.400336 -0.149600
C33   C     C_R   0.930256 0.129519 0.385191 -0.113696
C34   C     C_R   0.622467 0.431398 0.204813 -0.255221
C35   C     C_R   0.868557 0.067303 0.436103 -0.068741
C36   C     C_R   0.859553 0.131576 0.502441 -0.126744
C37   C     C_R   0.910957 0.258468 0.517771 -0.057601
C38   C     C_R   0.750751 0.380603 0.104457 0.118285
C39   C     C_R   0.745524 0.267875 0.059267 -0.161311
C40   C     C_R   0.855149 0.231110 0.032922 -0.107681
C41   C     C_R   0.970590 0.305897 0.051974 -0.107842
C42   C     C_R   0.976681 0.417358 0.097605 -0.147483
C43   C     C_R   0.867296 0.454621 0.123928 -0.150873
C44   C     C_R   0.590545 0.466830 0.865650 -0.231594
C45   C     C_R   0.576359 0.454559 0.793752 0.365219
C46   C     C_R   0.412453 0.589050 0.804537 0.294608
C47   C     C_R   0.429151 0.600932 0.877786 -0.097192
C48   C     C_R   0.517928 0.538540 0.907843 0.017544
H1    H     H_    0.585514 0.031508 0.562508 0.157325
H2    H     H_    0.042111 0.473063 0.297682 0.124681
H3    H     H_    0.229909 0.387763 0.255482 0.117099
H4    H     H_    0.232449 0.517038 0.952388 0.138184
H5    H     H_    0.114368 0.644683 0.033378 0.136017
H6    H     H_    0.169146 0.876628 0.052157 0.129314
H7    H     H_    0.342416 0.981667 0.989438 0.136536
H8    H     H_    0.461790 0.855469 0.908468 0.156132
H9    H     H_    0.250316 0.097460 0.388622 0.340450
H10   H     H_    0.020298 0.890935 0.546342 0.391601
H11   H     H_    0.031617 0.302545 0.360816 0.105032
H12   H     H_    0.519053 0.634059 0.015509 0.160557
H13   H     H_    0.938726 0.079173 0.334102 0.137486
H14   H     H_    0.828830 0.969002 0.424383 0.148367
H15   H     H_    0.813719 0.082804 0.542195 0.155185
H16   H     H_    0.904822 0.306552 0.569736 0.157455
H17   H     H_    0.828889 0.351081 0.812432 0.367094
H18   H     H_    0.306721 0.662432 0.654197 0.361282
H19   H     H_    0.656894 0.208226 0.044848 0.125929
H20   H     H_    0.850646 0.144372 0.997932 0.148720
H21   H     H_    0.055348 0.277271 0.031597 0.132079
H22   H     H_    0.066166 0.474842 0.112567 0.134221
H23   H     H_    0.660722 0.422231 0.889071 0.183801
H24   H     H_    0.873259 0.541351 0.159166 0.126506
H25   H     H_    0.695516 0.406461 0.237126 0.172685
H26   H     H_    0.566545 0.361344 0.985606 0.164300
H27   H     H_    0.366166 0.523685 0.087882 0.143217
H28   H     H_    0.368270 0.744004 0.187973 0.141660
H29   H     H_    0.180800 0.827216 0.231039 0.152010
H30   H     H_    0.018011 0.692181 0.286272 0.133541
O1    O     O_3   0.500000 0.500000 0.500000 -0.540864
O2    O     O_R   0.410860 0.431690 0.648970 -0.585423
O3    O     O_R   0.578570 0.421470 0.344370 -0.644447
O4    O     O_R   0.567340 0.590030 0.662290 -0.615066
O5    O     O_R   0.443230 0.556810 0.344370 -0.616297
O6    O     O_2   0.441939 0.881704 0.351746 -0.272089
O7    O     O_2   0.256819 0.870393 0.421938 -0.230809
O8    O     O_3   0.315254 0.066231 0.359145 -0.579269
O9    O     O_2   0.022358 0.712826 0.630761 -0.198168
O10   O     O_2   0.186609 0.723716 0.547081 -0.291409
O11   O     O_3   0.983756 0.809936 0.518705 -0.562989
O12   O     O_R   0.229880 0.548640 0.449830 -0.587838
O13   O     O_2   0.591487 0.265951 0.692096 -0.280068
O14   O     O_2   0.759555 0.445344 0.703729 -0.295508
O15   O     O_3   0.756099 0.287827 0.793968 -0.522919
O16   O     O_2   0.185132 0.663692 0.807031 -0.219080
O17   O     O_2   0.357783 0.804410 0.767491 -0.294226
O18   O     O_3   0.257498 0.606923 0.683519 -0.491704
O19   O     O_R   0.775840 0.445670 0.468570 -0.668262
O20   O     O_R   0.404020 0.217050 0.524780 -0.629017
O21   O     O_R   0.590260 0.788640 0.556820 -0.640620
O22   O     O_R   0.555650 0.222860 0.449830 -0.620787
O23   O     O_R   0.450070 0.771450 0.468560 -0.539869
O24   O     O_R   0.213590 0.407490 0.524780 -0.633558
O25   O     O_R   0.780700 0.598200 0.556830 -0.557790
S1    S     S_3+6 0.367366 0.956257 0.400894 0.057862
S2    S     S_3+6 0.047938 0.700297 0.554662 0.084285
S3    S     S_3+6 0.672164 0.362359 0.743276 0.038887
S4    S     S_3+6 0.301008 0.668995 0.766050 0.070031
Zn1   Zn    Zn3+2 0.407400 0.592620 0.441700 1.081530
Zn2   Zn    Zn3+2 0.384130 0.390950 0.548790 1.065880
Zn3   Zn    Zn3+2 0.607710 0.617180 0.567810 1.087542
Zn4   Zn    Zn3+2 0.600760 0.399250 0.441700 0.997007

loop_
_geom_bond_atom_site_label_1
_geom_bond_atom_site_label_2
_ccdc_geom_bond_type
C43   H24   S    
C41   C42   A    
C35   C36   A    
O8    S1    S    
C8    S2    S    
C45   S3    S    
C12   C23   A    
C28   C29   A    
C26   C27   A    
C20   H29   S    
O25   Zn3   S    
C18   C24   A    
O4    Zn3   S    
C41   H21   S    
C36   C37   A    
C38   C39   A    
O19   Zn4   S    
C15   C16   A    
C3    C48   S    
C42   H22   S    
O5    Zn1   S    
C44   H23   S    
C18   C19   A    
C33   H13   S    
O3    Zn4   S    
C16   C17   A    
O2    Zn2   S    
C36   H15   S    
C9    C10   S    
C25   C47   S    
C15   C34   A    
C5    C13   S    
C2    H26   S    
C22   H2    S    
C3    H12   S    
C24   H3    S    
H17   O15   S    
C13   O2    A    
C2    C12   S    
O20   Zn2   S    
C21   C22   A    
C4    O23   A    
O13   S3    D    
C14   O5    A    
C1    O22   A    
O16   S4    D    
O1    Zn2   S    
C10   O24   A    
C4    C6    S    
C39   C40   A    
C28   H6    S    
C8    C9    D    
C29   H7    S    
C25   C26   A    
O21   Zn3   S    
C5    C45   A    
C13   O4    A    
C31   C37   A    
C21   H30   S    
C29   C30   A    
C26   H4    S    
O15   S3    S    
C47   C48   A    
O9    S2    D    
C23   C34   A    
C46   S4    S    
O7    S1    D    
O17   S4    D    
O14   S3    D    
C40   C41   A    
O18   S4    S    
C7    S1    S    
O6    S1    D    
C22   C24   A    
C42   C43   A    
C37   H16   S    
C44   C45   A    
H18   O18   S    
C25   C30   A    
C46   C47   A    
C19   H28   S    
O1    Zn3   S    
C1    C7    S    
C39   H19   S    
C31   C32   A    
C1    O20   A    
C27   H5    S    
C6    C7    D    
C23   C38   S    
C5    C46   A    
C32   H11   S    
O1    Zn4   S    
C11   O19   A    
C32   C33   A    
C19   C20   A    
C2    C3    D    
O12   Zn1   S    
C38   C43   A    
C12   C17   A    
O10   S2    D    
H9    O8    S    
C30   H8    S    
O23   Zn1   S    
C8    C11   S    
C33   C35   A    
O1    Zn1   S    
C35   H14   S    
C6    H1    S    
H10   O11   S    
C9    C31   S    
C34   H25   S    
C20   C21   A    
C10   O12   A    
O22   Zn4   S    
C16   C18   S    
C40   H20   S    
C4    O21   A    
O11   S2    S    
C27   C28   A    
C17   H27   S    
C14   C15   S    
O24   Zn2   S    
C11   O25   A    
C14   O3    A    
C44   C48   A    
