data_mof_unit_51122.cif
_audit_creation_date              2012-12-11T15:07:04-0500
_audit_creation_method            fapswitch 2.2
_symmetry_space_group_name_H-M    P1
_symmetry_Int_Tables_number       1
_space_group_crystal_system       triclinic
_cell_length_a                    19.609521
_cell_length_b                    11.337922
_cell_length_c                    18.716363
_cell_angle_alpha                 90.000092
_cell_angle_beta                  90.220924
_cell_angle_gamma                 90.0
_cell_volume                      4161.20087772

loop_
_atom_site_label
_atom_site_type_symbol
_atom_type_description
_atom_site_fract_x
_atom_site_fract_y
_atom_site_fract_z
_atom_type_partial_charge
C1    C     C_R   0.761020 0.525241 0.639624 0.535892
C2    C     C_3   0.253457 0.060374 0.563733 0.050974
C3    C     C_R   0.739443 0.034110 0.151159 0.534804
C4    C     C_R   0.774155 0.133137 0.858960 0.534242
C5    C     C_R   0.225844 0.133137 0.141040 0.534256
C6    C     C_R   0.274156 0.633137 0.858960 0.534260
C7    C     C_R   0.725844 0.633137 0.141040 0.534255
C8    C     C_R   0.968266 0.353056 0.854102 0.535084
C9    C     C_R   0.031734 0.353056 0.145898 0.535084
C10   C     C_R   0.468266 0.853056 0.854102 0.535076
C11   C     C_R   0.531734 0.853056 0.145898 0.535083
C12   C     C_3   0.686344 0.135891 0.463583 -0.187021
C13   C     C_3   0.246542 0.560371 0.436267 0.050977
C14   C     C_3   0.313659 0.135883 0.536419 -0.187117
C15   C     C_3   0.186340 0.635878 0.463581 -0.187146
C16   C     C_3   0.813658 0.635878 0.536418 -0.187121
C17   C     C_3   0.693150 0.156723 0.544689 -0.012143
C18   C     C_3   0.306852 0.156728 0.455311 -0.012148
C19   C     C_3   0.193148 0.656729 0.544688 -0.012149
C20   C     C_3   0.806852 0.656726 0.455311 -0.012146
C21   C     C_3   0.754383 0.944011 0.480491 -0.222131
C22   C     C_3   0.245616 0.944013 0.519507 -0.222169
C23   C     C_3   0.254384 0.444011 0.480493 -0.222179
C24   C     C_3   0.753457 0.560367 0.563732 0.050976
C25   C     C_3   0.745616 0.444006 0.519505 -0.222165
C26   C     C_3   0.758085 0.092769 0.574290 0.090081
C27   C     C_3   0.241916 0.092774 0.425710 0.090178
C28   C     C_3   0.258083 0.592774 0.574290 0.090204
C29   C     C_3   0.741917 0.592772 0.425709 0.090179
C30   C     C_3   0.748282 0.961814 0.561301 -0.250580
C31   C     C_3   0.251721 0.961819 0.438698 -0.250551
C32   C     C_3   0.248278 0.461819 0.561302 -0.250543
C33   C     C_R   0.238981 0.525243 0.360375 0.535899
C34   C     C_3   0.751721 0.461816 0.438696 -0.250548
C35   C     C_3   0.822347 0.133194 0.530999 -0.244231
C36   C     C_3   0.177654 0.133199 0.469001 -0.244267
C37   C     C_3   0.322345 0.633198 0.531000 -0.244277
C38   C     C_3   0.677655 0.633194 0.469000 -0.244266
C39   C     C_3   0.004991 0.200631 0.458995 -0.228107
C40   C     C_3   0.995010 0.200632 0.541005 -0.228107
C41   C     C_3   0.504991 0.700632 0.458994 -0.228106
C42   C     C_3   0.495009 0.700631 0.541004 -0.228106
C43   C     C_3   0.064549 0.402329 0.475507 -0.206638
C44   C     C_R   0.261019 0.025244 0.639625 0.535896
C45   C     C_3   0.935451 0.402329 0.524494 -0.206629
C46   C     C_3   0.564549 0.902330 0.475507 -0.206600
C47   C     C_3   0.435449 0.902328 0.524492 -0.206629
C48   C     C_3   0.942127 0.382880 0.443891 -0.258947
C49   C     C_3   0.057874 0.382880 0.556110 -0.258952
C50   C     C_3   0.442126 0.882880 0.443890 -0.258952
C51   C     C_3   0.557871 0.882882 0.556109 -0.258935
C52   C     C_3   0.011427 0.329142 0.431147 0.047836
C53   C     C_3   0.988574 0.329143 0.568854 0.047833
C54   C     C_3   0.511427 0.829143 0.431146 0.047815
C55   C     C_R   0.738981 0.025245 0.360375 0.535883
C56   C     C_3   0.488572 0.829142 0.568853 0.047828
C57   C     C_3   0.814328 0.016154 0.045413 -0.226051
C58   C     C_3   0.185672 0.016152 0.954587 -0.226050
C59   C     C_3   0.314328 0.516154 0.045413 -0.226051
C60   C     C_3   0.685672 0.516152 0.954587 -0.226050
C61   C     C_R   0.773575 0.120983 0.649685 0.537285
C62   C     C_R   0.226426 0.120984 0.350315 0.537418
C63   C     C_R   0.273574 0.620984 0.649685 0.537456
C64   C     C_R   0.726426 0.620984 0.350315 0.537420
C65   C     C_3   0.819660 0.031180 0.966119 -0.226945
C66   C     C_3   0.810375 0.133700 0.449812 -0.277007
C67   C     C_3   0.180340 0.031179 0.033881 -0.226946
C68   C     C_3   0.319660 0.531181 0.966119 -0.226946
C69   C     C_3   0.680340 0.531179 0.033881 -0.226946
C70   C     C_3   0.683407 0.030136 0.030825 -0.215153
C71   C     C_3   0.316594 0.030137 0.969174 -0.215156
C72   C     C_3   0.183406 0.530135 0.030825 -0.215156
C73   C     C_3   0.816594 0.530137 0.969174 -0.215155
C74   C     C_3   0.753872 0.203526 0.061729 -0.261379
C75   C     C_3   0.246127 0.203526 0.938271 -0.261378
C76   C     C_3   0.253872 0.703526 0.061729 -0.261378
C77   C     C_3   0.189627 0.133705 0.550188 -0.277005
C78   C     C_3   0.746127 0.703526 0.938271 -0.261379
C79   C     C_3   0.747415 0.070779 0.074703 0.061903
C80   C     C_3   0.252585 0.070779 0.925297 0.061904
C81   C     C_3   0.247415 0.570779 0.074703 0.061904
C82   C     C_3   0.752585 0.570779 0.925297 0.061904
C83   C     C_3   0.759669 0.105564 0.935960 0.062016
C84   C     C_3   0.240331 0.105563 0.064041 0.062013
C85   C     C_3   0.259669 0.605564 0.935960 0.062013
C86   C     C_3   0.740332 0.605563 0.064041 0.062013
C87   C     C_3   0.695785 0.031168 0.948870 -0.260915
C88   C     C_3   0.310372 0.633704 0.449813 -0.277003
C89   C     C_3   0.304216 0.031169 0.051129 -0.260913
C90   C     C_3   0.195785 0.531168 0.948870 -0.260912
C91   C     C_3   0.804216 0.531169 0.051129 -0.260913
C92   C     C_3   0.748807 0.222511 0.979584 -0.217516
C93   C     C_3   0.251192 0.222510 0.020417 -0.217517
C94   C     C_3   0.248807 0.722511 0.979584 -0.217518
C95   C     C_3   0.751193 0.722511 0.020417 -0.217515
C96   C     C_3   0.004423 0.477714 0.040060 -0.227730
C97   C     C_3   0.995576 0.477714 0.959941 -0.227731
C98   C     C_3   0.504423 0.977714 0.040060 -0.227729
C99   C     C_3   0.689626 0.633697 0.550187 -0.277003
C100  C     C_3   0.495576 0.977714 0.959941 -0.227730
C101  C     C_3   0.064080 0.275020 0.026655 -0.213156
C102  C     C_3   0.935920 0.275019 0.973344 -0.213155
C103  C     C_3   0.564080 0.775020 0.026655 -0.213154
C104  C     C_3   0.435920 0.775019 0.973344 -0.213154
C105  C     C_3   0.941524 0.292512 0.055206 -0.263198
C106  C     C_3   0.058476 0.292513 0.944794 -0.263198
C107  C     C_3   0.441524 0.792512 0.055206 -0.263198
C108  C     C_3   0.558476 0.792513 0.944794 -0.263199
C109  C     C_R   0.968266 0.341509 0.644657 0.532123
C110  C     C_3   0.746543 0.060374 0.436267 0.050962
C111  C     C_R   0.031734 0.341509 0.355343 0.532118
C112  C     C_R   0.468265 0.841509 0.644656 0.532099
C113  C     C_R   0.531734 0.841509 0.355343 0.532115
C114  C     C_3   0.010745 0.350120 0.069305 0.062808
C115  C     C_3   0.989255 0.350120 0.930695 0.062807
C116  C     C_3   0.510745 0.850120 0.069305 0.062807
C117  C     C_3   0.489255 0.850120 0.930695 0.062809
C118  C     C_R   0.760557 0.534110 0.848841 0.534800
C119  C     C_R   0.239443 0.534110 0.151159 0.534804
C120  C     C_R   0.260557 0.034110 0.848841 0.534805
Cr1   Cr    Cr6+3 0.885690 0.492860 0.745310 0.992088
Cr2   Cr    Cr6+3 0.111880 0.178590 0.246990 0.992903
Cr3   Cr    Cr6+3 0.388120 0.678590 0.753010 0.992903
Cr4   Cr    Cr6+3 0.611880 0.678590 0.246990 0.992904
Cr5   Cr    Cr6+3 0.114310 0.492860 0.254690 0.992085
Cr6   Cr    Cr6+3 0.385690 0.992860 0.745310 0.992077
Cr7   Cr    Cr6+3 0.614310 0.992860 0.254690 0.992086
Cr8   Cr    Cr6+3 0.729880 0.332270 0.748190 0.986745
Cr9   Cr    Cr6+3 0.270120 0.332270 0.251810 0.986730
Cr10  Cr    Cr6+3 0.229880 0.832270 0.748190 0.986725
Cr11  Cr    Cr6+3 0.770120 0.832270 0.251810 0.986728
Cr12  Cr    Cr6+3 0.888120 0.178590 0.753010 0.992903
H1    H     H_    0.637938 0.094521 0.450079 0.153805
H2    H     H_    0.192010 0.916495 0.527813 0.122872
H3    H     H_    0.451836 0.032137 0.945834 0.133017
H4    H     H_    0.960507 0.523204 0.065221 0.114815
H5    H     H_    0.039491 0.523206 0.934779 0.114816
H6    H     H_    0.460508 0.023204 0.065221 0.114815
H7    H     H_    0.539491 0.023206 0.934779 0.114812
H8    H     H_    0.615637 0.784750 0.046687 0.111977
H9    H     H_    0.384362 0.784748 0.953313 0.111977
H10   H     H_    0.115637 0.284749 0.046687 0.111977
H11   H     H_    0.884362 0.284748 0.953313 0.111977
H12   H     H_    0.600200 0.848953 0.924790 0.108569
H13   H     H_    0.307990 0.416493 0.472188 0.122870
H14   H     H_    0.399799 0.848950 0.075210 0.108573
H15   H     H_    0.100200 0.348953 0.924790 0.108575
H16   H     H_    0.899799 0.348950 0.075210 0.108573
H17   H     H_    0.938008 0.206361 0.083203 0.109285
H18   H     H_    0.061994 0.206363 0.916796 0.109284
H19   H     H_    0.438008 0.706361 0.083203 0.109285
H20   H     H_    0.561994 0.706363 0.916796 0.109284
H21   H     H_    0.949454 0.182017 0.962817 0.121311
H22   H     H_    0.050547 0.182017 0.037182 0.121311
H23   H     H_    0.449454 0.682017 0.962817 0.121311
H24   H     H_    0.692011 0.416483 0.527810 0.122859
H25   H     H_    0.550547 0.682017 0.037182 0.121310
H26   H     H_    0.720511 0.874104 0.462012 0.098643
H27   H     H_    0.279487 0.874106 0.537987 0.098641
H28   H     H_    0.220513 0.374103 0.462014 0.098640
H29   H     H_    0.779488 0.374098 0.537984 0.098639
H30   H     H_    0.698143 0.931839 0.581087 0.146190
H31   H     H_    0.301861 0.931848 0.418914 0.146261
H32   H     H_    0.198137 0.431850 0.581086 0.146278
H33   H     H_    0.801862 0.431846 0.418912 0.146261
H34   H     H_    0.854835 0.094766 0.421917 0.128153
H35   H     H_    0.787945 0.909981 0.589921 0.106629
H36   H     H_    0.145167 0.094774 0.578083 0.128153
H37   H     H_    0.354833 0.594774 0.421918 0.128154
H38   H     H_    0.645166 0.594764 0.578081 0.128154
H39   H     H_    0.803371 0.224666 0.429605 0.103713
H40   H     H_    0.196634 0.224671 0.570395 0.103718
H41   H     H_    0.303365 0.724670 0.429606 0.103718
H42   H     H_    0.696631 0.724663 0.570395 0.103717
H43   H     H_    0.841855 0.218281 0.549558 0.114054
H44   H     H_    0.158146 0.218285 0.450442 0.114046
H45   H     H_    0.341853 0.718284 0.549558 0.114045
H46   H     H_    0.212060 0.909984 0.410076 0.106611
H47   H     H_    0.658147 0.718282 0.450443 0.114044
H48   H     H_    0.590473 0.176237 0.559900 0.211116
H49   H     H_    0.631583 0.142552 0.635038 0.259755
H50   H     H_    0.409563 0.175997 0.440243 0.211005
H51   H     H_    0.368485 0.142996 0.365001 0.259781
H52   H     H_    0.090430 0.675940 0.559725 0.210967
H53   H     H_    0.131497 0.643124 0.634988 0.259792
H54   H     H_    0.909564 0.675993 0.440247 0.210990
H55   H     H_    0.868486 0.643007 0.365001 0.259781
H56   H     H_    0.287937 0.409984 0.589926 0.106607
H57   H     H_    0.712061 0.409983 0.410073 0.106613
H58   H     H_    0.048260 0.147644 0.443398 0.131191
H59   H     H_    0.951741 0.147644 0.556602 0.131190
H60   H     H_    0.548261 0.647645 0.443398 0.131192
H61   H     H_    0.362060 0.094500 0.549921 0.153723
H62   H     H_    0.451741 0.647642 0.556601 0.131192
H63   H     H_    0.961474 0.155525 0.432945 0.107828
H64   H     H_    0.038527 0.155525 0.567056 0.107829
H65   H     H_    0.461474 0.655524 0.432943 0.107832
H66   H     H_    0.538527 0.655527 0.567056 0.107830
H67   H     H_    0.616406 0.888901 0.457203 0.116100
H68   H     H_    0.383592 0.888901 0.542797 0.116103
H69   H     H_    0.116407 0.388904 0.457201 0.116106
H70   H     H_    0.883594 0.388902 0.542798 0.116105
H71   H     H_    0.599133 0.826168 0.577208 0.105155
H72   H     H_    0.137940 0.594491 0.450081 0.153700
H73   H     H_    0.400866 0.826160 0.422793 0.105175
H74   H     H_    0.099135 0.326160 0.577204 0.105176
H75   H     H_    0.900866 0.326161 0.422795 0.105171
H76   H     H_    0.940122 0.466162 0.414654 0.180996
H77   H     H_    0.059881 0.466162 0.585346 0.181001
H78   H     H_    0.440121 0.966161 0.414653 0.180997
H79   H     H_    0.559870 0.966165 0.585344 0.180979
H80   H     H_    0.947905 0.496384 0.533796 0.138036
H81   H     H_    0.052094 0.496384 0.466205 0.138022
H82   H     H_    0.447903 0.996383 0.533795 0.138062
H83   H     H_    0.862060 0.594496 0.549920 0.153718
H84   H     H_    0.552097 0.996386 0.466203 0.138117
H85   H     H_    0.818929 0.922461 0.057926 0.137319
H86   H     H_    0.181073 0.922459 0.942075 0.137319
H87   H     H_    0.318929 0.422461 0.057926 0.137319
H88   H     H_    0.681073 0.422459 0.942075 0.137319
H89   H     H_    0.684778 0.221753 0.435327 0.082037
H90   H     H_    0.315230 0.221741 0.564679 0.082062
H91   H     H_    0.184766 0.721735 0.435320 0.082069
H92   H     H_    0.815229 0.721736 0.564679 0.082059
H93   H     H_    0.859214 0.057424 0.071885 0.115749
H94   H     H_    0.861726 0.065150 0.541199 0.130569
H95   H     H_    0.140785 0.057421 0.928114 0.115750
H96   H     H_    0.359214 0.557424 0.071885 0.115749
H97   H     H_    0.640785 0.557420 0.928114 0.115749
H98   H     H_    0.869216 0.069574 0.954203 0.133549
H99   H     H_    0.130784 0.069572 0.045797 0.133549
H100  H     H_    0.369216 0.569574 0.954203 0.133548
H101  H     H_    0.630784 0.569572 0.045797 0.133549
H102  H     H_    0.820747 0.943030 0.940107 0.116475
H103  H     H_    0.179253 0.943029 0.059893 0.116476
H104  H     H_    0.320747 0.443030 0.940107 0.116476
H105  H     H_    0.138276 0.065154 0.458801 0.130566
H106  H     H_    0.679253 0.443029 0.059893 0.116476
H107  H     H_    0.662476 0.947503 0.049965 0.111838
H108  H     H_    0.337525 0.947505 0.950034 0.111840
H109  H     H_    0.162476 0.447503 0.049965 0.111838
H110  H     H_    0.837525 0.447505 0.950034 0.111839
H111  H     H_    0.703012 0.940594 0.928315 0.108988
H112  H     H_    0.296990 0.940595 0.071685 0.108992
H113  H     H_    0.203011 0.440594 0.928315 0.108993
H114  H     H_    0.796990 0.440595 0.071685 0.108992
H115  H     H_    0.712458 0.251856 0.089597 0.109961
H116  H     H_    0.361723 0.565153 0.541199 0.130566
H117  H     H_    0.287540 0.251857 0.910403 0.109961
H118  H     H_    0.212458 0.751856 0.089597 0.109961
H119  H     H_    0.787540 0.751857 0.910403 0.109959
H120  H     H_    0.802924 0.236922 0.083004 0.108384
H121  H     H_    0.197074 0.236921 0.916997 0.108385
H122  H     H_    0.302924 0.736922 0.083004 0.108385
H123  H     H_    0.697074 0.736921 0.916997 0.108382
H124  H     H_    0.780180 0.294918 0.961450 0.108308
H125  H     H_    0.219819 0.294916 0.038551 0.108308
H126  H     H_    0.280180 0.794918 0.961450 0.108308
H127  H     H_    0.638276 0.565150 0.458799 0.130567
H128  H     H_    0.719819 0.794916 0.038551 0.108308
H129  H     H_    0.695709 0.250045 0.968861 0.116613
H130  H     H_    0.304290 0.250046 0.031139 0.116613
H131  H     H_    0.195709 0.750045 0.968861 0.116613
H132  H     H_    0.804290 0.750046 0.031139 0.116613
H133  H     H_    0.643760 0.097134 0.041260 0.118778
H134  H     H_    0.356240 0.097136 0.958740 0.118778
H135  H     H_    0.143760 0.597134 0.041260 0.118778
H136  H     H_    0.856240 0.597136 0.958740 0.118778
H137  H     H_    0.700061 0.248426 0.555227 0.149871
H138  H     H_    0.807989 0.916491 0.472184 0.122867
H139  H     H_    0.299938 0.248433 0.444787 0.149819
H140  H     H_    0.200066 0.748433 0.555207 0.149803
H141  H     H_    0.799937 0.748430 0.444789 0.149814
H142  H     H_    0.651408 0.070073 0.920376 0.109660
H143  H     H_    0.348592 0.070076 0.079623 0.109666
H144  H     H_    0.151408 0.570074 0.920376 0.109668
H145  H     H_    0.848592 0.570076 0.079623 0.109666
H146  H     H_    0.048162 0.532138 0.054166 0.133017
H147  H     H_    0.951836 0.532137 0.945834 0.133016
H148  H     H_    0.548162 0.032138 0.054166 0.133017
N1    N     N_3   0.629957 0.124051 0.580538 -0.689522
N2    N     N_3   0.370041 0.124073 0.419446 -0.689412
N3    N     N_3   0.129960 0.624085 0.580561 -0.689396
N4    N     N_3   0.870041 0.624073 0.419445 -0.689409
O1    O     O_R   0.957210 0.449410 0.665480 -0.534693
O2    O     O_R   0.167480 0.095300 0.164000 -0.533307
O3    O     O_R   0.332520 0.595300 0.836000 -0.533306
O4    O     O_R   0.667480 0.595300 0.164000 -0.533307
O5    O     O_R   0.946380 0.253940 0.826940 -0.512317
O6    O     O_R   0.053620 0.253940 0.173060 -0.512317
O7    O     O_R   0.446380 0.753940 0.826940 -0.512316
O8    O     O_R   0.553620 0.753940 0.173060 -0.512317
O9    O     O_3   0.834560 0.334570 0.748840 -0.272030
O10   O     O_3   0.165440 0.334570 0.251160 -0.272037
O11   O     O_3   0.334560 0.834570 0.748840 -0.272037
O12   O     O_R   0.042790 0.449410 0.334520 -0.534696
O13   O     O_3   0.665440 0.834570 0.251160 -0.272036
O14   O     O_R   0.820730 0.541240 0.668250 -0.517565
O15   O     O_R   0.179270 0.541240 0.331750 -0.517560
O16   O     O_R   0.320730 0.041240 0.668250 -0.517558
O17   O     O_R   0.679270 0.041240 0.331750 -0.517568
O18   O     O_R   0.714240 0.455060 0.663710 -0.530697
O19   O     O_R   0.285760 0.455060 0.336290 -0.530720
O20   O     O_R   0.214240 0.955060 0.663710 -0.530727
O21   O     O_R   0.785760 0.955060 0.336290 -0.530720
O22   O     O_R   0.736780 0.204870 0.675910 -0.523085
O23   O     O_R   0.457210 0.949410 0.665480 -0.534713
O24   O     O_R   0.263220 0.204870 0.324090 -0.523075
O25   O     O_R   0.236780 0.704870 0.675910 -0.523071
O26   O     O_R   0.763220 0.704870 0.324090 -0.523075
O27   O     O_R   0.833070 0.087590 0.673490 -0.531013
O28   O     O_R   0.166930 0.087590 0.326510 -0.531038
O29   O     O_R   0.333070 0.587590 0.673490 -0.531044
O30   O     O_R   0.666930 0.587590 0.326510 -0.531039
O31   O     O_R   0.946890 0.246800 0.676300 -0.510804
O32   O     O_R   0.053110 0.246800 0.323700 -0.510806
O33   O     O_R   0.446890 0.746800 0.676300 -0.510803
O34   O     O_R   0.542790 0.949410 0.334520 -0.534700
O35   O     O_R   0.553110 0.746800 0.323700 -0.510804
O36   O     O_R   0.956650 0.457120 0.827980 -0.531208
O37   O     O_R   0.043350 0.457120 0.172020 -0.531210
O38   O     O_R   0.456650 0.957120 0.827980 -0.531216
O39   O     O_R   0.543350 0.957120 0.172020 -0.531209
O40   O     O_R   0.820220 0.548390 0.818890 -0.509003
O41   O     O_R   0.179780 0.548390 0.181110 -0.509001
O42   O     O_R   0.320220 0.048390 0.818890 -0.508999
O43   O     O_R   0.679780 0.048390 0.181110 -0.509001
O44   O     O_R   0.713680 0.462770 0.826210 -0.532808
O45   O     O_R   0.736260 0.212010 0.826560 -0.511216
O46   O     O_R   0.286320 0.462770 0.173790 -0.532811
O47   O     O_R   0.213680 0.962770 0.826210 -0.532812
O48   O     O_R   0.786320 0.962770 0.173790 -0.532811
O49   O     O_R   0.263740 0.212010 0.173440 -0.511210
O50   O     O_R   0.236260 0.712010 0.826560 -0.511209
O51   O     O_R   0.763740 0.712010 0.173440 -0.511210
O52   O     O_R   0.832520 0.095300 0.836000 -0.533308

loop_
_geom_bond_atom_site_label_1
_geom_bond_atom_site_label_2
_ccdc_geom_bond_type
H51   N2    S    
C3    O43   A    
C76   H118  S    
C21   C110  S    
C77   H36   S    
C4    O45   A    
C6    C85   S    
C65   H98   S    
C98   H6    S    
C9    C114  S    
C61   O27   A    
C22   H27   S    
Cr9   O46   S    
C5    O2    A    
C41   C42   S    
C74   C92   S    
C18   H139  S    
C7    O4    A    
C76   C94   S    
Cr10  O47   S    
C43   H69   S    
C63   O25   A    
C87   H142  S    
C97   C115  S    
Cr9   O49   S    
C100  H3    S    
C25   C34   S    
C29   C64   S    
C67   H99   S    
C113  O34   A    
C96   C114  S    
C21   H138  S    
Cr12  O52   S    
C45   H80   S    
Cr8   O22   S    
C27   C31   S    
C60   H97   S    
C1    O14   A    
C28   C32   S    
C17   H137  S    
C66   H34   S    
C103  H25   S    
C35   C66   S    
C39   H63   S    
C16   H83   S    
C13   C33   S    
C118  O40   A    
C78   C82   S    
Cr1   O40   S    
C16   C20   S    
C48   H76   S    
Cr1   O14   S    
C66   C110  S    
C59   H96   S    
C102  H21   S    
C10   O7    A    
C93   H125  S    
C11   O8    A    
Cr8   O45   S    
C16   H92   S    
C30   H30   S    
C108  H12   S    
C75   C93   S    
C104  C117  S    
C53   C109  S    
C36   H105  S    
C107  H14   S    
C120  O47   A    
Cr6   O38   S    
C38   H47   S    
C70   C79   S    
C55   O17   A    
Cr4   O8    S    
H50   N2    S    
C85   C90   S    
C19   N3    S    
C81   C119  S    
C106  C115  S    
C36   C77   S    
C35   H43   S    
C71   H108  S    
C103  C116  S    
Cr6   O23   S    
C99   H42   S    
C49   C53   S    
C11   O39   A    
C6    O3    A    
C84   C93   S    
C2    C14   S    
C86   C95   S    
C33   O15   A    
C28   C63   S    
C26   C35   S    
C48   C52   S    
C49   H74   S    
C89   H143  S    
Cr12  O5    S    
C90   H144  S    
C100  C117  S    
C104  C107  S    
C106  H18   S    
Cr3   O33   S    
Cr1   O9    S    
Cr2   O6    S    
Cr3   O11   S    
C12   C110  S    
H49   N1    S    
C3    O48   A    
C40   H59   S    
C78   H123  S    
C84   C89   S    
C73   H136  S    
C30   H35   S    
C112  O23   A    
C43   C52   S    
C7    C86   S    
C62   O28   A    
C90   H113  S    
C13   C23   S    
C69   H101  S    
C98   C116  S    
C73   H110  S    
C25   H29   S    
C71   C89   S    
C29   C38   S    
C44   O16   A    
Cr7   O39   S    
C34   H33   S    
C76   H122  S    
C107  H19   S    
C91   H114  S    
C45   C53   S    
C96   C97   S    
C25   H24   S    
C68   C85   S    
C70   C87   S    
C97   H5    S    
C47   C50   S    
C8    O5    A    
C95   H128  S    
C31   H46   S    
C66   H39   S    
C41   H65   S    
C39   C40   S    
C5    C84   S    
C105  H16   S    
C46   C51   S    
C106  H15   S    
C63   O29   A    
C2    C22   S    
C100  H7    S    
C72   C90   S    
C101  H10   S    
C58   C67   S    
Cr5   O41   S    
C19   C28   S    
C55   O21   A    
C26   C30   S    
C71   H134  S    
C1    O18   A    
C93   H130  S    
C101  C106  S    
Cr10  O20   S    
C104  H9    S    
C108  C117  S    
C72   C81   S    
C75   H121  S    
C37   H45   S    
C97   H147  S    
C10   C117  S    
C98   H148  S    
C103  H8    S    
C58   H86   S    
C46   H67   S    
C94   H126  S    
C60   C69   S    
C32   H32   S    
Cr12  O27   S    
C107  C116  S    
C50   H78   S    
C1    C24   S    
C70   H107  S    
C58   H95   S    
C68   H100  S    
C47   C56   S    
C83   C87   S    
C101  C114  S    
C21   H26   S    
C37   C88   S    
C80   C120  S    
Cr5   O10   S    
C96   H4    S    
C99   H38   S    
C15   C19   S    
C50   C54   S    
C119  O46   A    
C26   C61   S    
C86   C91   S    
C60   H88   S    
C9    O6    A    
C33   O19   A    
C35   H94   S    
Cr12  O9    S    
C102  C105  S    
C91   H145  S    
C14   C18   S    
C20   H141  S    
C102  C115  S    
C42   C56   S    
C108  H20   S    
C45   H70   S    
C12   C17   S    
Cr3   O29   S    
Cr2   O10   S    
Cr3   O7    S    
C69   H106  S    
C92   H129  S    
C58   C80   S    
C17   N1    S    
C94   H131  S    
Cr11  O21   S    
C78   H119  S    
C51   H71   S    
C62   O24   A    
Cr8   O9    S    
C9    O37   A    
C29   C34   S    
C44   O20   A    
Cr7   O43   S    
Cr7   O13   S    
C65   H102  S    
Cr8   O18   S    
C42   H66   S    
C78   C95   S    
C46   C54   S    
Cr2   O28   S    
C89   H112  S    
Cr1   O1    S    
Cr4   O30   S    
C11   C116  S    
H53   N3    S    
C3    C79   S    
Cr3   O3    S    
C92   H124  S    
C95   H132  S    
C14   H61   S    
C8    O36   A    
C36   H44   S    
C46   H84   S    
C113  O35   A    
C73   C82   S    
Cr5   O12   S    
Cr6   O11   S    
C45   C48   S    
Cr9   O19   S    
Cr2   O32   S    
Cr4   O35   S    
C64   O30   A    
C59   C81   S    
C57   C65   S    
C38   C99   S    
C74   H120  S    
H55   N4    S    
C19   H140  S    
C27   C36   S    
C21   C30   S    
Cr5   O37   S    
C23   C32   S    
C2    C77   S    
Cr11  O48   S    
C4    C83   S    
C57   H85   S    
Cr9   O10   S    
H52   N3    S    
Cr10  O11   S    
C48   H75   S    
C10   O38   A    
C15   H91   S    
Cr7   O34   S    
C49   H77   S    
Cr11  O13   S    
C20   N4    S    
C75   H117  S    
C120  O42   A    
C47   H82   S    
C24   C99   S    
C57   C79   S    
C64   O26   A    
C38   H127  S    
C15   H72   S    
C111  O32   A    
C61   O22   A    
C83   C92   S    
C23   H13   S    
C67   H103  S    
C37   H116  S    
C22   H2    S    
C17   C26   S    
C28   C37   S    
Cr12  O31   S    
Cr5   O15   S    
Cr9   O24   S    
C65   C83   S    
Cr6   O16   S    
C5    O49   A    
C54   C113  S    
C7    O51   A    
C51   C56   S    
C42   H62   S    
C68   H104  S    
C8    C115  S    
C60   C82   S    
Cr8   O44   S    
C103  C108  S    
C75   C80   S    
C109  O1    A    
Cr1   O36   S    
C39   C52   S    
C67   C84   S    
C16   C24   S    
C109  O31   A    
C71   C80   S    
C20   C29   S    
C41   C54   S    
Cr11  O26   S    
C31   H31   S    
C22   C31   S    
C32   H56   S    
C105  C114  S    
C24   C25   S    
C73   C91   S    
C2    C44   S    
C39   H58   S    
C43   C49   S    
C52   C111  S    
C112  O33   A    
C119  O41   A    
C72   H135  S    
C88   H41   S    
C77   H40   S    
C59   C68   S    
C85   C94   S    
C87   H111  S    
C18   N2    S    
C23   H28   S    
Cr6   O42   S    
H54   N4    S    
C4    O52   A    
C12   H1    S    
C13   C15   S    
C55   C110  S    
C47   H68   S    
C6    O50   A    
C102  H11   S    
C43   H81   S    
Cr4   O4    S    
C70   H133  S    
C40   H64   S    
C111  O12   A    
C41   H60   S    
C72   H109  S    
C14   H90   S    
C34   H57   S    
C18   C27   S    
C88   H37   S    
C101  H22   S    
C76   C81   S    
Cr7   O17   S    
Cr10  O50   S    
C27   C62   S    
C105  H17   S    
C98   C100  S    
C74   C79   S    
C96   H146  S    
Cr2   O2    S    
C57   H93   S    
Cr11  O51   S    
C59   H87   S    
C74   H115  S    
C13   C88   S    
C12   H89   S    
Cr4   O13   S    
C50   H73   S    
C51   H79   S    
C104  H23   S    
C40   C53   S    
C118  O44   A    
C82   C118  S    
H48   N1    S    
C56   C112  S    
C69   C86   S    
Cr10  O25   S    
