data_mof_unit_50619.cif
_audit_creation_date              2012-10-26T20:01:45-0400
_audit_creation_method            fapswitch 2.2
_symmetry_space_group_name_H-M    P1
_symmetry_Int_Tables_number       1
_space_group_crystal_system       triclinic
_cell_length_a                    11.689413
_cell_length_b                    10.825651
_cell_length_c                    9.594501
_cell_angle_alpha                 89.358873
_cell_angle_beta                  91.234745
_cell_angle_gamma                 91.282417
_cell_volume                      1213.48538018

loop_
_atom_site_label
_atom_site_type_symbol
_atom_type_description
_atom_site_fract_x
_atom_site_fract_y
_atom_site_fract_z
_atom_type_partial_charge
C1    C     C_R   0.511029 0.263036 0.501398 0.546175
C2    C     C_R   0.489489 0.873029 0.503086 -0.010288
C3    C     C_R   0.637097 0.677481 0.140080 -0.106508
C4    C     C_R   0.284105 0.499614 0.498833 0.551709
C5    C     C_R   0.690461 0.769566 0.059723 -0.203493
C6    C     C_R   0.701281 0.752114 0.917207 -0.122522
C7    C     C_R   0.672211 0.635371 0.864848 0.084634
C8    C     C_R   0.578668 0.573070 0.927338 0.155188
C9    C     C_R   0.571269 0.581960 0.075067 0.140820
C10   C     C_R   0.429467 0.423947 0.073041 -0.012511
C11   C     C_R   0.427298 0.426444 0.924914 -0.020529
C12   C     C_R   0.539737 0.052452 0.886810 -0.111645
C13   C     C_R   0.493125 0.737792 0.500133 0.539736
C14   C     C_R   0.715860 0.499656 0.501003 0.536463
C15   C     C_1   0.162336 0.499197 0.497011 -0.026417
C16   C     C_1   0.059813 0.498844 0.498134 -0.046436
C17   C     C_1   0.940054 0.498629 0.500676 -0.054040
C18   C     C_1   0.837565 0.498836 0.502097 -0.044150
C19   C     C_R   0.573592 0.109443 0.762001 0.032432
C20   C     C_3   0.779404 0.560846 0.850821 -0.366006
C21   C     C_3   0.668076 0.206094 0.772259 -0.365924
C22   C     C_R   0.472167 0.945270 0.883949 -0.136600
C23   C     C_R   0.449057 0.886711 0.757623 -0.093196
C24   C     C_R   0.489183 0.938402 0.631058 0.015692
C25   C     C_R   0.531436 0.061222 0.632409 0.040424
C26   C     C_R   0.526190 0.128940 0.504728 -0.012546
C27   C     C_R   0.515586 0.065560 0.378273 -0.165038
C28   C     C_R   0.503446 0.938321 0.377723 -0.169111
Cu1   Cu    Cu3+1 0.499990 0.499990 0.640660 0.920205
Cu2   Cu    Cu3+1 0.500010 0.500010 0.359340 0.924334
H1    H     H_    0.515940 0.114264 0.279015 0.134323
H2    H     H_    0.732823 0.847893 0.109493 0.121007
H3    H     H_    0.833372 0.600435 0.766924 0.134513
H4    H     H_    0.830850 0.563103 0.949736 0.115043
H5    H     H_    0.760301 0.461769 0.831578 0.141509
H6    H     H_    0.741706 0.168038 0.832502 0.103603
H7    H     H_    0.700447 0.234427 0.668595 0.137205
H8    H     H_    0.637290 0.287543 0.828233 0.157612
H9    H     H_    0.759662 0.812740 0.861155 0.123212
H10   H     H_    0.367918 0.366069 0.868833 0.127428
H11   H     H_    0.567594 0.089934 0.986475 0.104571
H12   H     H_    0.443261 0.903525 0.980422 0.116301
H13   H     H_    0.397031 0.803028 0.760572 0.148239
H14   H     H_    0.502308 0.891519 0.278471 0.135494
H15   H     H_    0.371980 0.361419 0.127539 0.119511
H16   H     H_    0.650997 0.684950 0.249593 0.185961
N1    N     N_R   0.501070 0.501210 0.147910 -0.240518
N2    N     N_R   0.501110 0.501290 0.852040 -0.253771
O1    O     O_R   0.499990 0.319640 0.618810 -0.501055
O2    O     O_R   0.500000 0.319660 0.381240 -0.505690
O3    O     O_R   0.337190 0.500000 0.618790 -0.497622
O4    O     O_R   0.337200 0.500030 0.381210 -0.489774
O5    O     O_R   0.500000 0.680340 0.618760 -0.499363
O6    O     O_R   0.500010 0.680360 0.381190 -0.523882
O7    O     O_R   0.662800 0.499970 0.618790 -0.508016
O8    O     O_R   0.662810 0.500000 0.381210 -0.506689

loop_
_geom_bond_atom_site_label_1
_geom_bond_atom_site_label_2
_ccdc_geom_bond_type
C22   H12   S    
C14   O8    A    
C23   C24   A    
C8    N2    A    
C9    N1    A    
C6    C7    A    
C3    C9    A    
Cu1   O7    S    
C1    O2    A    
C14   C18   S    
C3    H16   S    
C5    H2    S    
C20   H4    S    
C10   H15   S    
C14   O7    A    
C11   N2    A    
C23   H13   S    
C7    C8    A    
C21   H6    S    
Cu1   O1    S    
C13   O6    A    
Cu2   O6    S    
C26   C27   A    
Cu1   Cu2   S    
Cu1   O5    S    
C4    O4    A    
C5    C6    A    
C12   C19   A    
C19   C21   S    
C17   C18   T    
C13   O5    A    
C4    C15   S    
C2    C24   A    
C1    C26   S    
C19   C25   A    
C10   C11   A    
C20   H3    S    
Cu1   N2    S    
C27   H1    S    
C11   H10   S    
C12   C22   A    
Cu2   N1    S    
C10   N1    A    
C21   H7    S    
C24   C25   A    
C12   H11   S    
C7    C20   S    
Cu1   O3    S    
C27   C28   A    
C2    C13   S    
Cu2   O4    S    
C6    H9    S    
C16   C17   S    
C2    C28   A    
C4    O3    A    
Cu2   O2    S    
C25   C26   A    
C22   C23   A    
C20   H5    S    
Cu2   O8    S    
C28   H14   S    
C21   H8    S    
C15   C16   T    
C8    C9    A    
C3    C5    A    
C1    O1    A    
