data_mof_unit_59867.cif
_audit_creation_date              2012-12-10T18:11:49-0500
_audit_creation_method            fapswitch 2.2
_symmetry_space_group_name_H-M    P1
_symmetry_Int_Tables_number       1
_space_group_crystal_system       triclinic
_cell_length_a                    15.858935
_cell_length_b                    10.727157
_cell_length_c                    9.418635
_cell_angle_alpha                 89.982318
_cell_angle_beta                  89.988313
_cell_angle_gamma                 90.07882
_cell_volume                      1602.30866885

loop_
_atom_site_label
_atom_site_type_symbol
_atom_type_description
_atom_site_fract_x
_atom_site_fract_y
_atom_site_fract_z
_atom_type_partial_charge
C1    C     C_R   0.500020 0.259773 0.500174 0.758496
C2    C     C_3   0.082778 0.500564 0.500008 0.174565
C3    C     C_3   0.972627 0.617007 0.508725 0.142882
C4    C     C_3   0.917241 0.500324 0.499840 0.161540
C5    C     C_3   0.028372 0.566338 0.387563 -0.181063
C6    C     C_3   0.972011 0.448283 0.378989 -0.183331
C7    C     C_1   0.174463 0.500349 0.500075 -0.084567
C8    C     C_1   0.825500 0.500000 0.499814 -0.092512
C9    C     C_3   0.500165 0.071282 0.655639 -0.379448
C10   C     C_3   0.500357 0.928588 0.655696 -0.375970
C11   C     C_3   0.420416 0.071772 0.424208 -0.382355
C12   C     C_R   0.339795 0.500001 0.500019 0.834974
C13   C     C_3   0.579588 0.072119 0.423793 -0.382280
C14   C     C_3   0.500055 0.121809 0.500911 0.173242
C15   C     C_3   0.500074 0.878158 0.501014 0.173815
C16   C     C_3   0.420355 0.927883 0.424474 -0.383168
C17   C     C_3   0.579552 0.928214 0.423699 -0.383021
C18   C     C_3   0.569230 0.582137 0.084225 -0.187313
C19   C     C_3   0.568927 0.583759 0.916523 -0.190239
C20   C     C_3   0.515390 0.374156 0.082375 -0.191699
C21   C     C_3   0.420691 0.547027 0.084433 -0.183130
C22   C     C_3   0.514749 0.375927 0.915178 -0.183574
C23   C     C_R   0.500030 0.740214 0.500246 0.755189
C24   C     C_3   0.420362 0.549154 0.917160 -0.189055
C25   C     C_R   0.660197 0.499979 0.499974 0.833877
C26   C     C_3   0.971903 0.434611 0.611863 -0.182840
C27   C     C_3   0.028070 0.382513 0.491005 -0.146417
C28   C     C_1   0.250050 0.500182 0.500089 -0.213321
C29   C     C_1   0.749925 0.499962 0.499867 -0.210616
C30   C     C_3   0.028257 0.552632 0.621280 -0.181426
Cu1   Cu    Cu3+1 0.500040 0.499860 0.642410 0.889465
Cu2   Cu    Cu3+1 0.499960 0.500140 0.357590 0.890048
H1    H     H_    0.052430 0.285774 0.483625 0.124768
H2    H     H_    0.443890 0.894153 0.714170 0.158299
H3    H     H_    0.362600 0.106614 0.478118 0.146704
H4    H     H_    0.362596 0.893036 0.478779 0.145536
H5    H     H_    0.581197 0.106546 0.312310 0.158401
H6    H     H_    0.637475 0.107009 0.477608 0.147536
H7    H     H_    0.637496 0.893404 0.477243 0.145838
H8    H     H_    0.581012 0.893985 0.312163 0.158252
H9    H     H_    0.418732 0.105977 0.312647 0.158574
H10   H     H_    0.418444 0.893434 0.313039 0.159760
H11   H     H_    0.947491 0.380276 0.703430 0.129500
H12   H     H_    0.561430 0.678883 0.124426 0.135169
H13   H     H_    0.561125 0.681232 0.878577 0.132956
H14   H     H_    0.631559 0.552175 0.877887 0.145100
H15   H     H_    0.576360 0.335612 0.120848 0.135530
H16   H     H_    0.575274 0.337499 0.874625 0.136929
H17   H     H_    0.367836 0.486724 0.120663 0.144597
H18   H     H_    0.407696 0.642221 0.125826 0.135740
H19   H     H_    0.407617 0.645415 0.878779 0.133277
H20   H     H_    0.367229 0.490139 0.879498 0.145557
H21   H     H_    0.465180 0.309586 0.119998 0.136349
H22   H     H_    0.463990 0.312391 0.877515 0.136543
H23   H     H_    0.052703 0.620672 0.295923 0.119142
H24   H     H_    0.052489 0.595777 0.720352 0.119266
H25   H     H_    0.443439 0.105075 0.713669 0.156855
H26   H     H_    0.556776 0.105700 0.713662 0.156974
H27   H     H_    0.557223 0.894748 0.713293 0.156149
N1    N     N_3   0.501840 0.500250 0.143650 -0.111093
N2    N     N_3   0.501160 0.503300 0.856280 -0.110575
O1    O     O_R   0.500050 0.317570 0.620260 -0.600133
O2    O     O_R   0.499980 0.317810 0.379740 -0.596697
O3    O     O_R   0.379110 0.499870 0.620240 -0.586031
O4    O     O_R   0.379040 0.500110 0.379720 -0.586715
O5    O     O_R   0.500020 0.682190 0.620260 -0.595633
O6    O     O_R   0.499950 0.682430 0.379740 -0.596769
O7    O     O_R   0.620960 0.499890 0.620280 -0.585016
O8    O     O_R   0.620890 0.500130 0.379760 -0.583975
H28   H     H_    0.632094 0.550161 0.121364 0.144104
H29   H     H_    0.947683 0.405191 0.279965 0.128752
C31   C     C_3   0.938621 0.749921 0.518648 -0.424357
C32   C     C_3   0.010461 0.845362 0.525847 -0.341006
C33   C     C_3   0.976291 0.978011 0.535450 -0.867047
H30   H     H_    0.937652 0.000113 0.440374 0.251682
H31   H     H_    0.937061 0.989024 0.632351 0.251003
H32   H     H_    0.029653 0.044955 0.540896 0.234204
H33   H     H_    0.050320 0.826684 0.620547 0.213197
H34   H     H_    0.050570 0.837545 0.429459 0.213335
H35   H     H_    0.898749 0.768560 0.423986 0.194541
H36   H     H_    0.898657 0.757483 0.615197 0.194180

loop_
_geom_bond_atom_site_label_1
_geom_bond_atom_site_label_2
_ccdc_geom_bond_type
C24   H20   S    
Cu1   O5    S    
C22   H16   S    
C18   H28   S    
C24   N2    S    
C32   C33   S    
Cu1   N2    S    
C3    C31   S    
C2    C7    S    
C4    C8    S    
C1    O1    A    
C21   H17   S    
C19   H14   S    
C22   H22   S    
C27   H1    S    
C26   C27   S    
C33   H31   S    
C12   C28   S    
C8    C29   T    
C23   O5    A    
C18   C19   S    
C10   C15   S    
C5    C6    S    
C12   O3    A    
C11   C14   S    
C15   C16   S    
C9    H26   S    
C17   H7    S    
C23   O6    A    
C6    C27   S    
C33   H32   S    
C32   H33   S    
C2    C27   S    
C20   N1    S    
C9    C10   S    
C13   H5    S    
C31   H36   S    
C24   H19   S    
C15   C23   S    
C13   C14   S    
Cu1   O1    S    
C6    H29   S    
C25   O7    A    
C1    O2    A    
C21   H18   S    
C26   H11   S    
C25   C29   S    
Cu1   O7    S    
C33   H30   S    
C21   N1    S    
C4    C6    S    
C20   H21   S    
C30   H24   S    
C7    C28   T    
C17   H8    S    
C3    C30   S    
C9    C14   S    
C18   H12   S    
C11   C16   S    
Cu1   Cu2   S    
C32   H34   S    
C10   H2    S    
C13   H6    S    
Cu2   O6    S    
C18   N1    S    
C20   C22   S    
C26   C30   S    
C2    C5    S    
C25   O8    A    
Cu2   N1    S    
C3    C4    S    
C16   H10   S    
C15   C17   S    
Cu1   O3    S    
C5    H23   S    
Cu2   O2    S    
C31   C32   S    
C3    C5    S    
C4    C26   S    
C19   H13   S    
Cu2   O8    S    
C12   O4    A    
C13   C17   S    
C2    C30   S    
C11   H3    S    
C10   H27   S    
C31   H35   S    
C16   H4    S    
C22   N2    S    
C19   N2    S    
C11   H9    S    
C9    H25   S    
C20   H15   S    
C21   C24   S    
C1    C14   S    
Cu2   O4    S    
