data_mof_unit_68124.cif
_audit_creation_date              2013-03-05T15:58:27-0500
_audit_creation_method            fapswitch 2.2
_symmetry_space_group_name_H-M    P1
_symmetry_Int_Tables_number       1
_space_group_crystal_system       triclinic
_cell_length_a                    7.67955
_cell_length_b                    16.343181
_cell_length_c                    16.88404
_cell_angle_alpha                 90.086993
_cell_angle_beta                  90.080815
_cell_angle_gamma                 90.017882
_cell_volume                      2119.08209128

loop_
_atom_site_label
_atom_site_type_symbol
_atom_site_description
_atom_site_fract_x
_atom_site_fract_y
_atom_site_fract_z
_atom_type_partial_charge
O1    O     O_R   0.388780 0.834790 0.412340 -0.642278
O2    O     O_R   0.111220 0.165210 0.912340 -0.641883
O3    O     O_R   0.888780 0.665210 0.587660 -0.631582
O4    O     O_R   0.611220 0.334790 0.087660 -0.640682
O5    O     O_R   0.059040 0.845930 0.587040 -0.537019
O6    O     O_R   0.440960 0.154070 0.087040 -0.536058
O7    O     O_R   0.559040 0.654070 0.412960 -0.535951
O8    O     O_R   0.940960 0.345930 0.912960 -0.533339
C1    C     C_R   0.224649 0.868692 0.612890 1.016207
C2    C     C_R   0.275422 0.131427 0.113043 1.017146
C3    C     C_R   0.724494 0.631899 0.386694 1.019892
C4    C     C_R   0.775390 0.368791 0.887028 1.019603
O9    O     O_R   0.059070 0.845930 0.412970 -0.548595
O10   O     O_R   0.440930 0.154070 0.912970 -0.548677
O11   O     O_R   0.559070 0.654070 0.587030 -0.551442
O12   O     O_R   0.940930 0.345930 0.087030 -0.548386
O13   O     O_R   0.888760 0.665210 0.412340 -0.582016
O14   O     O_R   0.611240 0.334790 0.912340 -0.584875
O15   O     O_R   0.388760 0.834790 0.587660 -0.585138
O16   O     O_R   0.111240 0.165210 0.087660 -0.584315
C5    C     C_R   0.229061 0.864001 0.380185 0.977973
C6    C     C_R   0.270771 0.136019 0.880255 0.982369
C7    C     C_R   0.729296 0.635675 0.619414 0.992735
C8    C     C_R   0.771093 0.363795 0.120117 0.978636
O17   O     O_3   0.222280 0.690700 0.500000 -0.346354
O18   O     O_3   0.277720 0.309300 0.000000 -0.349200
O19   O     O_3   0.722280 0.809300 0.500000 -0.351238
O20   O     O_3   0.777720 0.190700 0.000000 -0.350500
V1    V     V_3+5 0.947430 0.761000 0.500000 1.226676
V2    V     V_3+5 0.552570 0.239000 0.000000 1.224104
V3    V     V_3+5 0.447430 0.739000 0.500000 1.223569
V4    V     V_3+5 0.052570 0.261000 0.000000 1.224448
C9    C     C_3   0.865599 0.597771 0.781836 0.459458
C10   C     C_3   0.631102 0.403733 0.282485 0.459845
C11   C     C_3   0.367600 0.902990 0.218077 0.461793
C12   C     C_3   0.132112 0.097488 0.718219 0.465658
C13   C     C_3   0.862989 0.525004 0.849259 0.430236
C14   C     C_3   0.630574 0.477373 0.349177 0.433441
C15   C     C_3   0.365765 0.975961 0.150824 0.430991
C16   C     C_3   0.134448 0.024596 0.650668 0.432979
H1    H     H_    0.029700 0.458628 0.759103 0.266486
H2    H     H_    0.476129 0.546228 0.256790 0.267484
H3    H     H_    0.526882 0.044256 0.241638 0.265845
H4    H     H_    0.973580 0.956443 0.741054 0.265872
C17   C     C_3   0.862412 0.486449 0.670748 0.713317
C18   C     C_3   0.643609 0.513773 0.170724 0.699193
C19   C     C_3   0.358520 0.014168 0.329158 0.701442
C20   C     C_3   0.140671 0.986016 0.828982 0.700454
C21   C     C_3   0.562104 0.530923 0.726796 0.705485
C22   C     C_3   0.938974 0.466861 0.230770 0.708794
C23   C     C_3   0.061314 0.967524 0.270844 0.707919
C24   C     C_3   0.438214 0.032424 0.771166 0.707458
C25   C     C_3   0.749011 0.568648 0.698272 -0.645505
C26   C     C_3   0.751865 0.430740 0.199704 -0.648550
C27   C     C_3   0.248608 0.930995 0.301006 -0.651905
C28   C     C_3   0.250877 0.069118 0.801114 -0.653718
C29   C     C_3   0.779799 0.442914 0.819719 -0.460873
C30   C     C_3   0.720466 0.557941 0.319929 -0.484955
C31   C     C_3   0.279444 0.057505 0.180094 -0.480114
C32   C     C_3   0.220575 0.942895 0.679820 -0.480303
C33   C     C_3   0.900936 0.432980 0.745573 0.086863
C34   C     C_3   0.606740 0.569230 0.243802 0.095995
C35   C     C_3   0.397038 0.068240 0.255345 0.102569
C36   C     C_3   0.103053 0.932041 0.754832 0.099179
C37   C     C_3   0.588692 0.458939 0.789813 0.076607
C38   C     C_3   0.912544 0.539845 0.292910 0.080289
C39   C     C_3   0.087605 0.040094 0.208307 0.079530
C40   C     C_3   0.412040 0.959891 0.708513 0.080204
H5    H     H_    0.510252 0.474069 0.843051 0.174716
H6    H     H_    0.987035 0.524611 0.347336 0.175875
H7    H     H_    0.011776 0.024464 0.154358 0.171571
H8    H     H_    0.488542 0.975168 0.654796 0.172171
O21   O     O_3   0.042283 0.604220 0.756919 -0.554107
C41   C     C_3   0.078194 0.682384 0.726826 0.379251
H9    H     H_    0.118362 0.723216 0.773685 0.151247
H10   H     H_    0.961902 0.711734 0.703006 0.131689
C42   C     C_3   0.219274 0.682723 0.666998 -0.515537
H11   H     H_    0.239996 0.622885 0.640979 0.299239
H12   H     H_    0.173664 0.722376 0.621792 0.184947
H13   H     H_    0.340141 0.710768 0.688783 0.204555
O22   O     O_3   0.456089 0.397658 0.255202 -0.547727
C43   C     C_3   0.420420 0.318877 0.226695 0.376872
H14   H     H_    0.380247 0.279608 0.274298 0.155318
H15   H     H_    0.536636 0.289153 0.203208 0.132148
C44   C     C_3   0.278555 0.317141 0.167377 -0.522388
H16   H     H_    0.262726 0.375816 0.139443 0.292286
H17   H     H_    0.322103 0.276307 0.122745 0.181763
H18   H     H_    0.156032 0.291641 0.190322 0.213664
O23   O     O_3   0.543377 0.897153 0.244564 -0.551977
C45   C     C_3   0.579764 0.818490 0.273276 0.373763
H19   H     H_    0.621209 0.778873 0.225837 0.154194
H20   H     H_    0.463579 0.788593 0.296700 0.134157
C46   C     C_3   0.720669 0.817241 0.333036 -0.526177
H21   H     H_    0.738592 0.876476 0.359986 0.295131
H22   H     H_    0.675358 0.777122 0.377814 0.183503
H23   H     H_    0.842410 0.790325 0.310876 0.210522
O24   O     O_3   0.955990 0.103294 0.744194 -0.552527
C47   C     C_3   0.919397 0.181866 0.773422 0.371606
H24   H     H_    0.879014 0.222431 0.726436 0.155988
H25   H     H_    0.035492 0.211141 0.797369 0.138162
C48   C     C_3   0.778891 0.182815 0.833177 -0.522307
H26   H     H_    0.761265 0.123468 0.859766 0.294488
H27   H     H_    0.823944 0.223058 0.878078 0.185039
H28   H     H_    0.657034 0.209603 0.811167 0.211867
Br1   Br    Br    0.485688 0.355141 0.757911 -0.427633
Br2   Br    Br    0.021637 0.642835 0.261231 -0.412571
Br3   Br    Br    0.979336 0.143337 0.239489 -0.415371
Br4   Br    Br    0.518092 0.856452 0.740182 -0.414890
Br5   Br    Br    0.765928 0.391504 0.615117 -0.447469
Br6   Br    Br    0.750242 0.605259 0.115176 -0.437509
Br7   Br    Br    0.253700 0.106799 0.384262 -0.439160
Br8   Br    Br    0.244344 0.893126 0.884031 -0.436254
Br9   Br    Br    0.074256 0.354670 0.746364 -0.449721
Br10  Br    Br    0.431804 0.646223 0.238907 -0.420470
Br11  Br    Br    0.568955 0.147103 0.260789 -0.420660
Br12  Br    Br    0.927911 0.854973 0.757940 -0.416596
Br13  Br    Br    0.834635 0.699894 0.852442 -0.467158
Br14  Br    Br    0.656827 0.303713 0.355776 -0.478259
Br15  Br    Br    0.339897 0.801694 0.146105 -0.471269
Br16  Br    Br    0.160813 0.199722 0.647679 -0.489602
Br17  Br    Br    0.772563 0.546244 0.947568 -0.533739
Br18  Br    Br    0.710133 0.458890 0.451077 -0.522061
Br19  Br    Br    0.279619 0.955164 0.050909 -0.527578
Br20  Br    Br    0.220155 0.046080 0.551209 -0.528195
Br21  Br    Br    0.097735 0.507525 0.894597 -0.406457
Br22  Br    Br    0.389671 0.497075 0.388136 -0.399055
Br23  Br    Br    0.602835 0.994321 0.108178 -0.405047
Br24  Br    Br    0.898106 0.005849 0.607306 -0.406012
O25   O     O_3   0.028454 0.511489 0.639934 -0.611047
C49   C     C_3   0.055566 0.503398 0.557869 0.395562
H29   H     H_    0.161805 0.544986 0.540408 0.168737
H30   H     H_    0.947578 0.528830 0.524393 0.117380
C50   C     C_3   0.115166 0.416749 0.535379 -0.621916
H31   H     H_    0.017770 0.387695 0.497060 0.240374
H32   H     H_    0.241218 0.416631 0.504797 0.269003
H33   H     H_    0.134536 0.377917 0.587981 0.333466
O26   O     O_3   0.475177 0.492723 0.139188 -0.597958
C51   C     C_3   0.457554 0.490885 0.056514 0.423997
H34   H     H_    0.355841 0.446397 0.040878 0.158893
H35   H     H_    0.571705 0.464283 0.028723 0.109092
C52   C     C_3   0.392634 0.571889 0.021750 -0.598341
H36   H     H_    0.461534 0.627087 0.041869 0.298133
H37   H     H_    0.406987 0.566527 0.957341 0.197836
H38   H     H_    0.253929 0.583359 0.033767 0.305217
O27   O     O_3   0.526423 0.993200 0.360948 -0.597079
C53   C     C_3   0.541494 0.990485 0.443709 0.423695
H39   H     H_    0.641656 0.945359 0.459427 0.159496
H40   H     H_    0.425511 0.964823 0.470744 0.107394
C54   C     C_3   0.606726 0.070808 0.479718 -0.605783
H41   H     H_    0.540166 0.126484 0.459484 0.298204
H42   H     H_    0.589310 0.064828 0.543838 0.196657
H43   H     H_    0.746147 0.081707 0.469191 0.305261
O28   O     O_3   0.972559 0.006971 0.860557 -0.597173
C55   C     C_3   0.956979 0.009396 0.943372 0.424263
H44   H     H_    0.856453 0.054322 0.959139 0.158650
H45   H     H_    0.072397 0.035440 0.970728 0.107366
C56   C     C_3   0.892187 0.928854 0.979113 -0.601151
H46   H     H_    0.957218 0.873087 0.958018 0.298132
H47   H     H_    0.911269 0.934229 0.043224 0.195501
H48   H     H_    0.752333 0.918295 0.969383 0.304039
Br25  Br    Br    0.438407 0.493390 0.632840 -0.355243
Br26  Br    Br    0.071053 0.502320 0.139193 -0.344898
Br27  Br    Br    0.931550 0.003642 0.363008 -0.343753
Br28  Br    Br    0.567047 0.996339 0.863603 -0.344094
O29   O     O_3   0.428972 0.584324 0.756745 -0.594430
C57   C     C_3   0.493644 0.642552 0.808483 0.143428
H49   H     H_    0.561990 0.688124 0.771669 0.191787
H50   H     H_    0.567082 0.609922 0.851792 0.157866
C58   C     C_3   0.365984 0.688466 0.860452 -0.628859
H51   H     H_    0.245518 0.654334 0.872027 0.300096
H52   H     H_    0.427326 0.704361 0.918087 0.264582
H53   H     H_    0.340943 0.747878 0.833752 0.269215
O30   O     O_3   0.068637 0.412686 0.262131 -0.591577
C59   C     C_3   0.002289 0.356812 0.315478 0.140050
H54   H     H_    0.931478 0.311573 0.279042 0.196855
H55   H     H_    0.933011 0.390804 0.360474 0.158270
C60   C     C_3   0.132188 0.308549 0.363868 -0.622807
H56   H     H_    0.250227 0.343643 0.378767 0.295537
H57   H     H_    0.070830 0.285853 0.419001 0.264969
H58   H     H_    0.160782 0.252067 0.332279 0.265374
O31   O     O_3   0.930285 0.913469 0.240126 -0.594011
C61   C     C_3   0.996182 0.855823 0.188365 0.137881
H59   H     H_    0.064902 0.810345 0.225240 0.195442
H60   H     H_    0.069488 0.888826 0.144975 0.158866
C62   C     C_3   0.867466 0.809586 0.137106 -0.625966
H61   H     H_    0.747513 0.844237 0.125134 0.298386
H62   H     H_    0.928295 0.792720 0.079699 0.265697
H63   H     H_    0.841075 0.750888 0.165092 0.269232
O32   O     O_3   0.569745 0.086122 0.740651 -0.594318
C63   C     C_3   0.504416 0.143746 0.688814 0.137561
H64   H     H_    0.436872 0.189520 0.725689 0.197673
H65   H     H_    0.429777 0.110978 0.645726 0.159109
C64   C     C_3   0.633239 0.189070 0.637079 -0.623698
H66   H     H_    0.753317 0.154456 0.625723 0.299861
H67   H     H_    0.572300 0.205346 0.579535 0.264173
H68   H     H_    0.660076 0.248115 0.664089 0.272301

loop_
_geom_bond_atom_site_label_1
_geom_bond_atom_site_label_2
_geom_bond_distance
_ccdc_geom_bond_type
C10   Br14  2.061069 S    
C20   O28   1.438715 S    
C19   O27   1.437712 S    
O1    C5    1.423515 A    
C63   H64   1.102755 S    
C16   C32   1.569805 S    
O19   V1    1.900942 S    
O13   V1    2.198875 S    
C58   H51   1.098056 S    
C11   Br15  2.062888 S    
H1    C33   1.097510 S    
O4    V2    2.198841 S    
O15   V3    2.199928 S    
O22   C43   1.400695 S    
C62   H61   1.100130 S    
H3    C35   1.096409 S    
C38   H6    1.110398 S    
O30   C59   1.381401 S    
H4    C36   1.096209 S    
O7    C3    1.394204 A    
O29   C57   1.382498 S    
C41   H10   1.090525 S    
C18   C34   1.556207 S    
C22   O30   1.433974 S    
C36   Br12  1.843245 S    
O9    V1    2.197693 S    
C46   H23   1.099229 S    
O10   V2    2.193254 S    
C34   Br10  1.842834 S    
C52   H37   1.096591 S    
C53   H40   1.085866 S    
C19   C35   1.557507 S    
O4    C8    1.424549 A    
C47   H24   1.079843 S    
C17   Br5   1.957525 S    
C62   H62   1.110953 S    
C39   H7    1.109834 S    
C22   Br26  1.939628 S    
C8    C26   1.738016 S    
C16   Br24  1.979727 S    
O24   C47   1.403625 S    
C37   H5    1.110389 S    
O1    V3    2.202240 S    
C15   Br19  1.842286 S    
O2    V4    2.199899 S    
O21   C41   1.402932 S    
C17   C33   1.565138 S    
O3    V1    2.202894 S    
C59   H54   1.103736 S    
C63   C64   1.514706 S    
C31   C39   1.574942 S    
C61   H59   1.104210 S    
O3    C7    1.422234 A    
C30   C38   1.572635 S    
C56   H46   1.098515 S    
C2    O16   1.441475 A    
C64   H67   1.110540 S    
C41   C42   1.482343 S    
O2    C6    1.422613 A    
C50   H33   1.102310 S    
C23   Br27  1.940331 S    
C12   O24   1.425595 S    
O14   V2    2.202925 S    
C10   O22   1.423541 S    
C3    C30   1.651783 S    
H2    C34   1.093675 S    
C55   H45   1.085416 S    
C24   C40   1.600041 S    
C40   H8    1.110024 S    
C35   Br11  1.846878 S    
C60   H58   1.088003 S    
O11   C7    1.448095 A    
C17   C25   1.667055 S    
O12   C8    1.449222 A    
C14   C30   1.567355 S    
C57   H50   1.066480 S    
C58   H52   1.110955 S    
C38   Br2   1.955548 S    
C37   Br1   1.946474 S    
C14   Br22  1.990508 S    
C1    O15   1.441544 A    
C7    C25   1.731943 S    
C13   Br21  1.978525 S    
C42   H12   1.061188 S    
C9    C25   1.735789 S    
C9    Br13  2.063563 S    
C16   Br20  1.838802 S    
O7    V3    2.195235 S    
C41   H9    1.078887 S    
C44   H17   1.060372 S    
C11   C27   1.734051 S    
O8    V4    2.196436 S    
C48   H26   1.077960 S    
C12   C16   1.648100 S    
C15   Br23  1.981677 S    
C55   C56   1.532082 S    
C52   H38   1.100711 S    
C5    C27   1.735929 S    
O18   V4    1.900494 S    
C62   H63   1.089110 S    
C6    C28   1.731809 S    
C60   H57   1.108292 S    
C42   H11   1.083357 S    
C9    C13   1.647649 S    
C61   C62   1.514024 S    
O31   C61   1.380761 S    
C11   C15   1.648003 S    
C19   Br7   1.950398 S    
O5    C1    1.394279 A    
C12   C28   1.733303 S    
C53   C54   1.529763 S    
C45   H20   1.092056 S    
O8    C4    1.395435 A    
C64   H68   1.086236 S    
C15   C31   1.568184 S    
C18   C26   1.665435 S    
C55   H44   1.098311 S    
O9    C5    1.449184 A    
C46   H21   1.077781 S    
C23   C39   1.602050 S    
O11   V3    2.196413 S    
C22   C38   1.600525 S    
C59   C60   1.511616 S    
C44   H16   1.076135 S    
C14   Br18  1.850226 S    
C21   C37   1.600352 S    
C30   C34   1.564132 S    
C24   Br28  1.939402 S    
C18   O26   1.439505 S    
C13   Br17  1.832897 S    
C4    C29   1.662660 S    
C11   O23   1.424715 S    
C39   Br3   1.953193 S    
C9    O21   1.425067 S    
C20   Br8   1.950747 S    
C21   O29   1.436431 S    
C43   H14   1.074798 S    
C48   H28   1.097845 S    
C43   H15   1.091086 S    
C18   Br6   1.947143 S    
C33   Br9   1.846845 S    
C57   H49   1.103904 S    
C58   H53   1.088217 S    
C54   H43   1.100098 S    
C49   C50   1.535690 S    
C47   C48   1.478334 S    
O5    V1    2.193275 S    
O27   C53   1.402717 S    
C45   C46   1.478642 S    
C19   C27   1.668011 S    
C53   H39   1.098355 S    
O16   V4    2.202271 S    
C44   H18   1.100171 S    
C20   C28   1.668708 S    
C3    O13   1.439634 A    
C63   H65   1.068672 S    
O6    V2    2.197715 S    
C10   C14   1.646917 S    
C21   Br25  1.946181 S    
O17   V3    1.900494 S    
C29   C37   1.573530 S    
C23   O31   1.434767 S    
C51   C52   1.532193 S    
O6    C2    1.395552 A    
C56   H47   1.095509 S    
C29   C33   1.569002 S    
C51   H35   1.085547 S    
C56   H48   1.099811 S    
O12   V4    2.195210 S    
C43   C44   1.479058 S    
O26   C51   1.402517 S    
C31   C35   1.567345 S    
C48   H27   1.060477 S    
C32   C36   1.566478 S    
C49   H30   1.086079 S    
C1    C32   1.656687 S    
C54   H42   1.095542 S    
C49   H29   1.102480 S    
O25   C49   1.407477 S    
C22   C26   1.638515 S    
C54   H41   1.098492 S    
C42   H13   1.097814 S    
C10   C26   1.735998 S    
O10   C6    1.448089 A    
C45   H19   1.077637 S    
C50   H31   1.095878 S    
C21   C25   1.635425 S    
C17   O25   1.437455 S    
O20   V2    1.900942 S    
C59   H55   1.081145 S    
C2    C31   1.657180 S    
C23   C27   1.638280 S    
C24   O32   1.434639 S    
O32   C63   1.380647 S    
C12   Br16  2.065267 S    
C47   H25   1.088761 S    
C61   H60   1.070852 S    
C20   C36   1.557060 S    
C51   H34   1.098614 S    
C60   H56   1.101161 S    
C32   C40   1.571988 S    
C57   C58   1.514924 S    
C46   H22   1.060513 S    
C64   H66   1.098917 S    
C4    O14   1.443031 A    
C50   H32   1.097772 S    
C40   Br4   1.951766 S    
O23   C45   1.402716 S    
C52   H36   1.098829 S    
C13   C29   1.566311 S    
C24   C28   1.639120 S    
O28   C55   1.404042 S    
