data_mof_unit_9215.cif
_audit_creation_date              2012-12-10T20:26:27-0500
_audit_creation_method            fapswitch 2.2
_symmetry_space_group_name_H-M    P1
_symmetry_Int_Tables_number       1
_space_group_crystal_system       triclinic
_cell_length_a                    10.73592
_cell_length_b                    10.673577
_cell_length_c                    9.871343
_cell_angle_alpha                 90.37233
_cell_angle_beta                  90.409759
_cell_angle_gamma                 90.089185
_cell_volume                      1131.10953231

loop_
_atom_site_label
_atom_site_type_symbol
_atom_type_description
_atom_site_fract_x
_atom_site_fract_y
_atom_site_fract_z
_atom_type_partial_charge
C1    C     C_R   0.493742 0.260078 0.499478 0.889934
C2    C     C_R   0.474505 0.128113 0.500688 -0.132136
C3    C     C_R   0.417337 0.061731 0.391810 0.177824
C4    C     C_R   0.421374 0.931299 0.394105 -0.228668
C5    C     C_R   0.478510 0.870880 0.503479 -0.153588
C6    C     C_R   0.509419 0.937458 0.619990 0.140585
C7    C     C_3   0.624638 0.932742 0.705622 -0.485890
C8    C     C_3   0.623220 0.074830 0.703826 -0.466445
C9    C     C_R   0.421704 0.422430 0.069936 0.215465
C10   C     C_R   0.584483 0.568434 0.073104 -0.133040
C11   C     C_R   0.584421 0.568533 0.929167 -0.135325
C12   C     C_R   0.262582 0.500939 0.499491 0.922799
C13   C     C_R   0.421947 0.422242 0.927390 0.224272
C14   C     C_3   0.283366 0.423048 0.919787 -0.498990
C15   C     C_3   0.282864 0.424207 0.073308 -0.535595
C16   C     C_R   0.496916 0.739812 0.500525 0.893375
C17   C     C_R   0.737327 0.495255 0.500432 0.933104
C18   C     C_2   0.932546 0.476694 0.386908 -0.156641
C19   C     C_2   0.868437 0.477644 0.502153 -0.342537
C20   C     C_2   0.066563 0.469056 0.389675 -0.170227
C21   C     C_2   0.130752 0.507546 0.498462 -0.327863
C22   C     C_R   0.508068 0.064770 0.618235 0.093680
H1    H     H_    0.886952 0.482575 0.288517 0.171688
H2    H     H_    0.703126 0.116296 0.648621 0.197867
H3    H     H_    0.650947 0.625837 0.128293 0.147485
H4    H     H_    0.650753 0.626103 0.875815 0.144719
H5    H     H_    0.245590 0.510580 0.875046 0.218814
H6    H     H_    0.245638 0.334893 0.875010 0.200854
H7    H     H_    0.245606 0.512830 0.116655 0.219293
H8    H     H_    0.243513 0.337103 0.116650 0.199174
H9    H     H_    0.911299 0.461835 0.600375 0.150884
H10   H     H_    0.112618 0.434486 0.299496 0.163022
H11   H     H_    0.087818 0.547180 0.588050 0.144465
H12   H     H_    0.385484 0.877563 0.308744 0.171327
H13   H     H_    0.606404 0.893111 0.807468 0.204231
H14   H     H_    0.705306 0.891236 0.651416 0.195864
H15   H     H_    0.604174 0.117364 0.804670 0.207590
N1    N     N_R   0.499170 0.499140 0.142800 -0.106960
N2    N     N_R   0.499170 0.499180 0.857150 -0.108030
O1    O     O_R   0.500020 0.316790 0.614690 -0.617999
O2    O     O_R   0.500000 0.316760 0.385350 -0.613389
O3    O     O_R   0.319080 0.500020 0.614640 -0.625701
O4    O     O_R   0.319070 0.499980 0.385300 -0.619207
O5    O     O_R   0.500000 0.683240 0.614650 -0.614768
O6    O     O_R   0.499980 0.683210 0.385310 -0.622507
O7    O     O_R   0.680930 0.500020 0.614700 -0.625805
O8    O     O_R   0.680920 0.499980 0.385360 -0.618527
Zn1   Zn    Zn3+2 0.500010 0.500020 0.653130 0.939376
Zn2   Zn    Zn3+2 0.499990 0.499980 0.346870 0.936968
C23   C     C_3   0.355857 0.125231 0.272927 -0.878296
H16   H     H_    0.290022 0.197739 0.309857 0.235174
H17   H     H_    0.427278 0.168344 0.207172 0.255264
H18   H     H_    0.301757 0.057696 0.209701 0.223038

loop_
_geom_bond_atom_site_label_1
_geom_bond_atom_site_label_2
_ccdc_geom_bond_type
C16   O6    A    
C2    C22   A    
C8    C22   S    
C6    C7    S    
C8    H2    S    
C14   H5    S    
C7    H14   S    
C16   O5    A    
C23   H17   S    
C11   H4    S    
O6    Zn2   S    
C10   N1    A    
C19   H9    S    
C23   H16   S    
C9    C15   S    
C7    C8    S    
O8    Zn2   S    
N1    Zn2   S    
O3    Zn1   S    
C13   C14   S    
C17   O7    A    
C11   N2    A    
C15   H8    S    
C10   H3    S    
O2    Zn2   S    
C9    N1    A    
C17   C19   S    
C3    C23   S    
C15   H7    S    
C12   O4    A    
C2    C3    A    
C5    C6    A    
C4    H12   S    
C13   N2    A    
C23   H18   S    
C21   H11   S    
C10   C11   A    
C18   H1    S    
C6    C22   A    
O7    Zn1   S    
C17   O8    A    
C8    H15   S    
O5    Zn1   S    
C20   C21   D    
C18   C20   S    
C1    C2    S    
C20   H10   S    
C1    O2    A    
O1    Zn1   S    
C9    C13   A    
C14   C15   S    
C18   C19   D    
C5    C16   S    
C12   O3    A    
C1    O1    A    
C14   H6    S    
C7    H13   S    
C12   C21   S    
O4    Zn2   S    
C3    C4    A    
C4    C5    A    
N2    Zn1   S    
