data_mof_unit_19801.cif
_audit_creation_date              2012-12-10T17:22:09-0500
_audit_creation_method            fapswitch 2.2
_symmetry_space_group_name_H-M    P1
_symmetry_Int_Tables_number       1
_space_group_crystal_system       triclinic
_cell_length_a                    15.879064
_cell_length_b                    10.861971
_cell_length_c                    9.584043
_cell_angle_alpha                 90.340266
_cell_angle_beta                  90.147392
_cell_angle_gamma                 92.640584
_cell_volume                      1651.24488758

loop_
_atom_site_label
_atom_site_type_symbol
_atom_type_description
_atom_site_fract_x
_atom_site_fract_y
_atom_site_fract_z
_atom_type_partial_charge
C1    C     C_R   0.507358 0.263230 0.500493 0.797610
C2    C     C_3   0.949193 0.429332 0.628419 -0.376341
C3    C     C_3   0.917231 0.500085 0.500204 0.332700
C4    C     C_3   0.955588 0.633827 0.505919 -0.380601
C5    C     C_3   0.053193 0.633540 0.505644 -0.377007
C6    C     C_1   0.825038 0.500337 0.500420 -0.118470
C7    C     C_1   0.174944 0.499383 0.499535 -0.115290
C8    C     C_1   0.250531 0.499343 0.499568 -0.175200
C9    C     C_R   0.553195 0.122002 0.756887 -0.161950
C10   C     C_R   0.542890 0.062842 0.884645 -0.176705
C11   C     C_R   0.500358 0.948511 0.890300 -0.143670
C12   C     C_R   0.340258 0.499434 0.499889 0.842130
C13   C     C_R   0.476859 0.887392 0.766975 -0.165932
C14   C     C_R   0.496944 0.939665 0.635032 0.093280
C15   C     C_R   0.522565 0.065495 0.631810 0.099434
C16   C     C_R   0.516351 0.129574 0.503725 -0.122184
C17   C     C_R   0.507814 0.063293 0.378624 -0.223295
C18   C     C_R   0.499541 0.936134 0.379862 -0.221804
C19   C     C_R   0.493414 0.872537 0.506513 -0.110171
C20   C     C_R   0.612300 0.663929 0.145422 -0.121316
C21   C     C_R   0.666728 0.744536 0.073778 -0.223535
C22   C     C_R   0.666844 0.744184 0.930068 -0.199078
C23   C     C_R   0.495684 0.737676 0.501421 0.767801
C24   C     C_R   0.612412 0.663391 0.857204 -0.110359
C25   C     C_R   0.555442 0.579988 0.925895 0.175330
C26   C     C_R   0.555408 0.580095 0.075432 0.114498
C27   C     C_R   0.446445 0.423150 0.074136 0.534652
C28   C     C_R   0.446464 0.425081 0.924600 -0.184278
C29   C     C_R   0.659740 0.500377 0.500110 0.797354
C30   C     C_3   0.046799 0.429027 0.628136 -0.378784
C31   C     C_3   0.046393 0.436514 0.365715 -0.375025
C32   C     C_3   0.948785 0.436810 0.365989 -0.377810
C33   C     C_1   0.749455 0.500430 0.500414 -0.179015
C34   C     C_3   0.082752 0.499596 0.499737 0.330714
Cu1   Cu    Cu3+1 0.499990 0.499990 0.640660 0.918325
Cu2   Cu    Cu3+1 0.500010 0.500010 0.359340 0.966016
H1    H     H_    0.922596 0.332708 0.626683 0.159183
H2    H     H_    0.071903 0.472704 0.726005 0.160771
H3    H     H_    0.933677 0.686689 0.414624 0.158592
H4    H     H_    0.507962 0.109676 0.279007 0.151550
H5    H     H_    0.565385 0.107648 0.979741 0.127265
H6    H     H_    0.440912 0.801363 0.778064 0.169528
H7    H     H_    0.067020 0.332259 0.626252 0.160368
H8    H     H_    0.617720 0.672066 0.255412 0.197950
H9    H     H_    0.709148 0.807817 0.130523 0.144142
H10   H     H_    0.617357 0.671585 0.747321 0.197195
H11   H     H_    0.402401 0.366556 0.865761 0.160228
H12   H     H_    0.071186 0.485674 0.271759 0.162482
H13   H     H_    0.066619 0.339888 0.359069 0.159946
H14   H     H_    0.922188 0.340318 0.359472 0.159695
H15   H     H_    0.926758 0.486115 0.272161 0.161944
H16   H     H_    0.078401 0.680940 0.601290 0.160151
H17   H     H_    0.078098 0.686276 0.414223 0.160708
H18   H     H_    0.933981 0.681354 0.601696 0.158666
N1    N     N_R   0.500800 0.501210 0.147910 -0.232020
N2    N     N_R   0.500820 0.501290 0.852040 -0.221043
O1    O     O_R   0.499990 0.319640 0.618810 -0.588940
O2    O     O_R   0.500000 0.319660 0.381240 -0.553589
O3    O     O_R   0.379430 0.499990 0.618840 -0.581881
O4    O     O_R   0.379440 0.500020 0.381260 -0.520073
O5    O     O_R   0.500000 0.680340 0.618760 -0.611985
O6    O     O_R   0.500010 0.680360 0.381190 -0.603908
O7    O     O_R   0.620560 0.499980 0.618740 -0.597012
O8    O     O_R   0.620570 0.500010 0.381160 -0.595997
H19   H     H_    0.927480 0.473180 0.726408 0.161587
H20   H     H_    0.587428 0.210306 0.757335 0.161972
H21   H     H_    0.487178 0.905778 0.990155 0.138885
H22   H     H_    0.496942 0.887725 0.280662 0.164033
O9    O     O_3   0.386706 0.352921 0.148566 -0.576828
C35   C     C_3   0.375498 0.230663 0.097320 0.024218
H23   H     H_    0.378184 0.167819 0.187897 0.169064
H24   H     H_    0.425901 0.202700 0.024736 0.122725
C36   C     C_3   0.288141 0.211013 0.030600 -0.353057
H25   H     H_    0.239106 0.220445 0.112074 0.220312
H26   H     H_    0.278207 0.281923 0.950054 0.211428
C37   C     C_3   0.277588 0.083511 0.963280 -0.919353
H27   H     H_    0.324132 0.073984 0.877949 0.268863
H28   H     H_    0.213178 0.070706 0.918595 0.250351
H29   H     H_    0.286640 0.010709 0.042144 0.253901
H30   H     H_    0.709197 0.807376 0.874282 0.145958

loop_
_geom_bond_atom_site_label_1
_geom_bond_atom_site_label_2
_ccdc_geom_bond_type
C29   O7    A    
C28   H11   S    
C36   H25   S    
Cu1   Cu2   S    
C37   H29   S    
C3    C6    S    
C26   N1    A    
C28   N2    A    
C7    C8    T    
C5    H17   S    
C37   H28   S    
Cu2   O2    S    
C27   N1    A    
C18   H22   S    
C15   C16   A    
C29   C33   S    
C30   H2    S    
Cu1   O3    S    
C18   C19   A    
C9    H20   S    
C12   O3    A    
C23   O6    A    
C16   C17   A    
C25   N2    A    
C5    H16   S    
C35   H23   S    
C13   C14   A    
C9    C10   A    
C27   O9    S    
C2    H19   S    
C29   O8    A    
C21   C22   A    
C10   H5    S    
C36   H26   S    
C3    C32   S    
C31   H13   S    
Cu2   O6    S    
C13   H6    S    
C20   H8    S    
C11   H21   S    
C21   H9    S    
C30   C34   S    
C37   H27   S    
C25   C26   A    
C17   H4    S    
C19   C23   S    
C32   H15   S    
C1    O1    A    
C31   C32   S    
C4    H3    S    
C8    C12   S    
C5    C34   S    
C35   C36   S    
C17   C18   A    
C31   C34   S    
Cu1   O5    S    
C1    C16   S    
C24   C25   A    
C32   H14   S    
C31   H12   S    
C36   C37   S    
C22   C24   A    
C30   H7    S    
C3    C4    S    
C4    H18   S    
Cu1   N2    S    
C14   C19   A    
C4    C5    S    
Cu2   O4    S    
Cu1   O7    S    
C6    C33   T    
C2    C30   S    
Cu1   O1    S    
C24   H10   S    
C2    C3    S    
C9    C15   A    
C22   H30   S    
Cu2   N1    S    
C1    O2    A    
C11   C13   A    
C2    H1    S    
C20   C26   A    
C7    C34   S    
O9    C35   S    
C10   C11   A    
C12   O4    A    
C23   O5    A    
C20   C21   A    
C27   C28   A    
C14   C15   A    
C35   H24   S    
Cu2   O8    S    
