data_mof_unit_29808.cif
_audit_creation_date              2012-12-11T15:34:56-0500
_audit_creation_method            fapswitch 2.2
_symmetry_space_group_name_H-M    P1
_symmetry_Int_Tables_number       1
_space_group_crystal_system       triclinic
_cell_length_a                    30.548166
_cell_length_b                    7.252646
_cell_length_c                    25.976315
_cell_angle_alpha                 90.0005
_cell_angle_beta                  111.973273
_cell_angle_gamma                 89.998432
_cell_volume                      5337.11818655

loop_
_atom_site_label
_atom_site_type_symbol
_atom_type_description
_atom_site_fract_x
_atom_site_fract_y
_atom_site_fract_z
_atom_type_partial_charge
O1    O     O_R   0.295360 0.592990 0.320420 -0.533435
O2    O     O_R   0.704640 0.407010 0.679580 -0.533436
O3    O     O_R   0.204640 0.092990 0.179580 -0.533454
O4    O     O_R   0.795360 0.907010 0.820420 -0.533454
O5    O     O_R   0.294060 0.265620 0.213230 -0.540798
O6    O     O_R   0.705940 0.734380 0.786770 -0.540799
O7    O     O_R   0.205940 0.765620 0.286770 -0.540862
O8    O     O_R   0.794060 0.234380 0.713230 -0.540860
C1    C     C_R   0.304291 0.432332 0.199614 0.731024
C2    C     C_R   0.695709 0.567668 0.800386 0.731023
C3    C     C_R   0.195709 0.932336 0.300389 0.731021
C4    C     C_R   0.804291 0.067664 0.699611 0.731020
O9    O     O_R   0.300850 0.263360 0.322080 -0.534165
O10   O     O_R   0.699150 0.736640 0.677920 -0.534165
O11   O     O_R   0.199150 0.763360 0.177920 -0.534165
O12   O     O_R   0.800850 0.236640 0.822080 -0.534165
O13   O     O_R   0.211480 0.091820 0.289210 -0.538771
O14   O     O_R   0.788520 0.908180 0.710790 -0.538772
O15   O     O_R   0.288520 0.591820 0.210790 -0.538756
O16   O     O_R   0.711480 0.408180 0.789210 -0.538756
C5    C     C_R   0.313259 0.431452 0.343164 0.684601
C6    C     C_R   0.686741 0.568548 0.656836 0.684600
C7    C     C_R   0.186741 0.931459 0.156837 0.684566
C8    C     C_R   0.813259 0.068541 0.843163 0.684567
O17   O     O_3   0.220670 0.426670 0.239090 -0.375758
O18   O     O_3   0.779330 0.573330 0.760910 -0.375757
O19   O     O_3   0.279330 0.926670 0.260910 -0.375711
O20   O     O_3   0.720670 0.073330 0.739090 -0.375712
V1    V     V_3+5 0.255440 0.152290 0.252020 1.423095
V2    V     V_3+5 0.744560 0.847710 0.747980 1.423095
V3    V     V_3+5 0.244560 0.652290 0.247980 1.423014
V4    V     V_3+5 0.755440 0.347710 0.752020 1.423016
C9    C     C_R   0.850229 0.063728 0.899375 -0.039788
C10   C     C_R   0.149771 0.936271 0.100625 -0.039789
C11   C     C_R   0.649770 0.563793 0.600622 -0.039864
C12   C     C_R   0.350230 0.436206 0.399378 -0.039865
C13   C     C_R   0.873719 0.127548 0.997357 -0.149933
C14   C     C_R   0.126281 0.872452 0.002642 -0.149932
C15   C     C_R   0.626249 0.628219 0.502670 -0.149874
C16   C     C_R   0.373751 0.371781 0.497330 -0.149873
C17   C     C_R   0.838888 0.118471 0.944364 -0.159218
C18   C     C_R   0.161112 0.881529 0.055636 -0.159218
C19   C     C_R   0.661089 0.618952 0.555654 -0.159072
C20   C     C_R   0.338911 0.381048 0.444346 -0.159070
C21   C     C_R   0.897203 0.018542 0.907751 -0.207393
C22   C     C_R   0.102797 0.981458 0.092249 -0.207394
C23   C     C_R   0.602806 0.518386 0.592235 -0.207383
C24   C     C_R   0.397194 0.481614 0.407765 -0.207383
C25   C     C_R   0.933796 0.030041 0.961472 0.086024
C26   C     C_R   0.066204 0.969958 0.038528 0.086025
C27   C     C_R   0.566203 0.530089 0.538526 0.086022
C28   C     C_R   0.433797 0.469911 0.461474 0.086022
C29   C     C_R   0.920837 0.085287 0.006255 0.129519
C30   C     C_R   0.079163 0.914713 0.993745 0.129518
C31   C     C_R   0.579140 0.585758 0.493764 0.129469
C32   C     C_R   0.420860 0.414242 0.506236 0.129468
C33   C     C_R   0.982630 0.991363 0.972312 0.055313
C34   C     C_R   0.017369 0.008637 0.027688 0.055314
C35   C     C_R   0.517376 0.491233 0.527680 0.055312
C36   C     C_R   0.482624 0.508766 0.472320 0.055312
C37   C     C_R   0.002081 0.063379 0.070346 -0.177181
C38   C     C_R   0.997919 0.936621 0.929654 -0.177179
C39   C     C_R   0.497892 0.563933 0.429683 -0.177151
C40   C     C_R   0.502108 0.436067 0.570317 -0.177150
C41   C     C_R   0.954921 0.100374 0.059722 -0.185512
C42   C     C_R   0.045079 0.899626 0.940278 -0.185510
C43   C     C_R   0.545044 0.601089 0.440311 -0.185455
C44   C     C_R   0.454956 0.398911 0.559689 -0.185454
H1    H     H_    0.945037 0.142574 0.093943 0.137938
H2    H     H_    0.054963 0.857426 0.906057 0.137940
H3    H     H_    0.554912 0.643621 0.406107 0.137978
H4    H     H_    0.445088 0.356378 0.593893 0.137978
H5    H     H_    0.096049 0.020306 0.128616 0.099974
H6    H     H_    0.903950 0.979694 0.871384 0.099975
H7    H     H_    0.403926 0.520756 0.371412 0.100023
H8    H     H_    0.596074 0.479245 0.628588 0.100023
H9    H     H_    0.197070 0.844511 0.061677 0.117892
H10   H     H_    0.802930 0.155490 0.938323 0.117892
H11   H     H_    0.302963 0.343835 0.438297 0.118016
H12   H     H_    0.697037 0.656165 0.561703 0.118014
H13   H     H_    0.863858 0.170445 0.031518 0.127343
H14   H     H_    0.136142 0.829555 0.968482 0.127344
H15   H     H_    0.636093 0.671444 0.468526 0.127422
H16   H     H_    0.363906 0.328556 0.531474 0.127424
H17   H     H_    0.025792 0.079712 0.112823 0.132380
H18   H     H_    0.974208 0.920287 0.887177 0.132381
H19   H     H_    0.474169 0.580493 0.387220 0.132400
H20   H     H_    0.525831 0.419507 0.612780 0.132400
C45   C     C_R   0.087300 0.074762 0.471778 0.653691
C46   C     C_R   0.912701 0.925229 0.528224 0.653669
C47   C     C_R   0.412917 0.576278 0.028525 0.653671
C48   C     C_R   0.587083 0.423722 0.971475 0.653670
N1    N     N_R   0.073281 0.972425 0.423821 -0.539924
N2    N     N_R   0.926719 0.027572 0.576180 -0.539925
N3    N     N_R   0.426721 0.472449 0.076187 -0.540020
N4    N     N_R   0.573279 0.527551 0.923813 -0.540020
C49   C     C_R   0.031012 0.879738 0.405587 0.612109
C50   C     C_R   0.968988 0.120264 0.594413 0.612130
C51   C     C_R   0.468774 0.378263 0.094116 0.612163
C52   C     C_R   0.531226 0.621737 0.905884 0.612163
C53   C     C_R   0.001074 0.888232 0.435696 -0.038028
C54   C     C_R   0.998926 0.111767 0.564305 -0.038035
C55   C     C_R   0.498701 0.386708 0.063993 -0.038253
C56   C     C_R   0.501299 0.613291 0.936007 -0.038253
C57   C     C_R   0.014847 0.994253 0.484621 -0.012883
C58   C     C_R   0.985153 0.005743 0.515381 -0.012881
C59   C     C_R   0.485153 0.494261 0.015381 -0.012969
C60   C     C_R   0.514847 0.505739 0.984619 -0.012969
C61   C     C_R   0.058256 0.088736 0.502875 -0.046023
C62   C     C_R   0.941744 0.911258 0.497127 -0.046014
C63   C     C_R   0.441970 0.590286 0.997439 -0.045951
C64   C     C_R   0.558030 0.409714 0.002561 -0.045951
C65   C     C_R   0.957684 0.794177 0.417936 -0.128228
C66   C     C_R   0.042316 0.205821 0.582065 -0.128225
C67   C     C_R   0.541864 0.291100 0.081437 -0.128161
C68   C     C_R   0.458136 0.708900 0.918563 -0.128161
C69   C     C_R   0.928385 0.805604 0.448252 -0.138020
C70   C     C_R   0.071616 0.194390 0.551750 -0.138015
C71   C     C_R   0.571163 0.302519 0.051121 -0.138137
C72   C     C_R   0.428837 0.697481 0.948879 -0.138137
O21   O     O_2   0.129416 0.161582 0.489665 -0.510023
O22   O     O_2   0.870586 0.838401 0.510340 -0.510037
O23   O     O_2   0.371002 0.664550 0.010913 -0.510178
O24   O     O_2   0.628998 0.335450 0.989087 -0.510178
O25   O     O_2   0.017697 0.781063 0.358165 -0.503134
O26   O     O_2   0.982301 0.218947 0.641834 -0.503121
O27   O     O_2   0.481888 0.278130 0.141254 -0.502523
O28   O     O_2   0.518112 0.721870 0.858746 -0.502523
H21   H     H_    0.946171 0.711464 0.380508 0.173554
H22   H     H_    0.053829 0.288535 0.619493 0.173555
H23   H     H_    0.553197 0.207165 0.118616 0.173677
H24   H     H_    0.446803 0.792835 0.881384 0.173678
H25   H     H_    0.895234 0.731253 0.433235 0.170335
H26   H     H_    0.104767 0.268740 0.566767 0.170338
H27   H     H_    0.604134 0.226939 0.065888 0.170242
H28   H     H_    0.395866 0.773061 0.934112 0.170243
C73   C     C_R   0.886167 0.878702 0.631992 0.680734
C74   C     C_R   0.113842 0.121302 0.368019 0.680742
C75   C     C_R   0.613564 0.378947 0.867655 0.680893
C76   C     C_R   0.386436 0.621053 0.132345 0.680893
C77   C     C_R   0.856333 0.888756 0.661765 -0.287599
C78   C     C_R   0.143675 0.111248 0.338246 -0.287593
C79   C     C_R   0.643405 0.389003 0.837892 -0.287884
C80   C     C_R   0.356594 0.610997 0.162108 -0.287884
H29   H     H_    0.848938 0.763428 0.679693 0.160427
H30   H     H_    0.151077 0.236580 0.320326 0.160422
H31   H     H_    0.650594 0.263879 0.819694 0.160629
H32   H     H_    0.349406 0.736121 0.180306 0.160630
C81   C     C_R   0.836616 0.058230 0.668632 -0.146253
C82   C     C_R   0.163384 0.941770 0.331369 -0.146261
C83   C     C_R   0.663383 0.558250 0.831360 -0.146177
C84   C     C_R   0.336617 0.441750 0.168640 -0.146178
C85   C     C_R   0.847711 0.217633 0.644993 -0.180293
C86   C     C_R   0.152281 0.782362 0.354997 -0.180301
C87   C     C_R   0.652551 0.717431 0.855325 -0.180292
C88   C     C_R   0.347449 0.282569 0.144674 -0.180292
H33   H     H_    0.833142 0.350365 0.649180 0.162339
H34   H     H_    0.166843 0.649627 0.350801 0.162350
H35   H     H_    0.667332 0.849969 0.851401 0.162072
H36   H     H_    0.332668 0.150031 0.148599 0.162072
C89   C     C_R   0.877201 0.207215 0.614773 -0.146380
C90   C     C_R   0.122791 0.792779 0.385217 -0.146389
C91   C     C_R   0.623065 0.706998 0.885551 -0.146030
C92   C     C_R   0.376934 0.293002 0.114448 -0.146030
H37   H     H_    0.884736 0.331106 0.596329 0.210213
H38   H     H_    0.115250 0.668885 0.403653 0.210246
H39   H     H_    0.615744 0.830703 0.904259 0.209544
H40   H     H_    0.384256 0.169297 0.095741 0.209544
C93   C     C_R   0.896590 0.037814 0.607846 0.240296
C94   C     C_R   0.103410 0.962185 0.392155 0.240287
C95   C     C_R   0.603408 0.537815 0.892144 0.239926
C96   C     C_R   0.396592 0.462185 0.107856 0.239926
F1    F     F_    0.905247 0.713875 0.627037 -0.670442
F2    F     F_    0.094769 0.286134 0.372984 -0.670461
F3    F     F_    0.594215 0.214367 0.872264 -0.669368
F4    F     F_    0.405785 0.785633 0.127736 -0.669368

loop_
_geom_bond_atom_site_label_1
_geom_bond_atom_site_label_2
_ccdc_geom_bond_type
C66   H22   S    
O17   V3    S    
C51   C55   A    
C25   C29   A    
C1    C84   S    
O1    C5    A    
O19   V1    S    
C53   C65   A    
C16   H16   S    
C75   F3    S    
C10   C18   A    
C48   N4    A    
C80   H32   S    
O4    V2    S    
C11   C23   A    
C77   C81   A    
C33   C38   A    
C5    C12   S    
C67   H23   S    
C79   H31   S    
C6    C11   S    
C38   H18   S    
C35   C40   A    
C26   C30   A    
C65   H21   S    
C36   C39   A    
C40   C44   A    
O9    V1    S    
C23   H8    S    
C14   C18   A    
C78   H30   S    
C48   O24   S    
N2    C93   S    
C58   C62   A    
O4    C8    A    
N3    C51   A    
C44   H4    S    
C43   H3    S    
C74   C94   A    
N2    C50   A    
C45   C61   A    
O1    V3    S    
O13   V1    S    
C31   C43   A    
O2    V4    S    
C47   C63   A    
O3    V1    S    
C81   C85   A    
C73   C77   A    
C28   C36   A    
C69   H25   S    
C56   C68   A    
C75   C79   A    
C1    O15   A    
C52   C56   A    
C15   C31   A    
C84   C88   A    
C2    O16   A    
C16   C32   A    
N4    C95   S    
C68   H24   S    
C74   F2    S    
C59   C60   A    
C75   C95   A    
C10   C22   A    
C83   C87   A    
C11   C19   A    
N3    C96   S    
C73   C93   A    
C70   H26   S    
C77   H29   S    
C13   C29   A    
C34   C37   A    
O11   C7    A    
O15   V3    S    
C35   C36   A    
O12   C8    A    
C47   O23   S    
C14   H14   S    
C85   H33   S    
C46   O22   S    
C24   H7    S    
C13   H13   S    
O10   V2    S    
C62   C69   A    
C61   C70   A    
C46   N2    A    
O5    V1    S    
C53   C57   A    
C39   C43   A    
N1    C94   S    
O7    V3    S    
C38   C42   A    
C87   H35   S    
C26   C34   A    
C88   H36   S    
C49   O25   S    
C74   C78   A    
C17   H10   S    
C90   H38   S    
O18   V4    S    
C48   C64   A    
C15   C19   A    
C91   C95   A    
C87   C91   A    
O3    C7    A    
C50   C54   A    
C47   N3    A    
C45   N1    A    
C71   H27   S    
C68   C72   A    
C85   C89   A    
C21   H6    S    
C72   H28   S    
O8    V4    S    
C55   C67   A    
O5    C1    A    
C9    C21   A    
C54   C66   A    
C37   C41   A    
C2    C83   S    
C3    C82   S    
O7    C3    A    
C90   C94   A    
C24   C28   A    
C91   H39   S    
O8    C4    A    
C7    C10   S    
C21   C25   A    
O9    C5    A    
C66   C70   A    
C37   H17   S    
C51   O27   S    
C92   H40   S    
O6    V2    S    
C67   C71   A    
O14   V2    S    
C65   C69   A    
C12   C20   A    
C27   C35   A    
C46   C62   A    
N1    C49   A    
C56   C60   A    
C29   C41   A    
O16   V4    S    
C50   O26   S    
C57   C61   A    
C3    O13   A    
C39   H19   S    
C52   O28   S    
C59   C63   A    
C4    C81   S    
C86   C90   A    
C20   H11   S    
C76   C80   A    
O6    C2    A    
C64   C71   A    
C23   C27   A    
O11   V3    S    
C30   C42   A    
O12   V4    S    
C57   C58   A    
C22   C26   A    
C8    C9    S    
C14   C30   A    
C9    C17   A    
O10   C6    A    
O20   V2    S    
C73   F1    S    
C19   H12   S    
C89   C93   A    
C80   C84   A    
C32   C44   A    
O2    C6    A    
C78   C82   A    
C33   C34   A    
C42   H2    S    
C45   O21   S    
C41   H1    S    
N4    C52   A    
C79   C83   A    
C12   C24   A    
C27   C31   A    
C13   C17   A    
C89   H37   S    
C92   C96   A    
C15   H15   S    
C60   C64   A    
C25   C33   A    
C16   C20   A    
C88   C92   A    
C18   H9    S    
C76   C96   A    
C82   C86   A    
C54   C58   A    
C4    O14   A    
C86   H34   S    
C63   C72   A    
C55   C59   A    
C40   H20   S    
C22   H5    S    
C49   C53   A    
C28   C32   A    
C76   F4    S    
