data_mof_unit_42823.cif
_audit_creation_date              2012-12-11T15:48:44-0500
_audit_creation_method            fapswitch 2.2
_symmetry_space_group_name_H-M    P1
_symmetry_Int_Tables_number       1
_space_group_crystal_system       triclinic
_cell_length_a                    10.955044
_cell_length_b                    11.023448
_cell_length_c                    18.7954
_cell_angle_alpha                 90.431611
_cell_angle_beta                  90.091642
_cell_angle_gamma                 60.297684
_cell_volume                      1971.4923341

loop_
_atom_site_label
_atom_site_type_symbol
_atom_type_description
_atom_site_fract_x
_atom_site_fract_y
_atom_site_fract_z
_atom_type_partial_charge
C1    C     C_R   0.238483 0.645959 0.610069 0.540593
C2    C     C_3   0.695677 0.525980 0.803035 0.122804
C3    C     C_3   0.691353 0.668695 0.815619 0.087697
C4    C     C_3   0.665519 0.638531 0.679761 0.004797
C5    C     C_3   0.781175 0.676360 0.690191 -0.259739
C6    C     C_3   0.705355 0.501375 0.721367 -0.170155
C7    C     C_R   0.678963 0.154981 0.822477 0.007974
C8    C     C_R   0.774038 0.178569 0.784471 0.012268
C9    C     C_R   0.768048 0.186004 0.710466 -0.009513
C10   C     C_R   0.576697 0.135845 0.710107 0.058259
C11   C     C_R   0.571273 0.149390 0.783686 -0.150732
C12   C     C_R   0.649775 0.615768 0.603701 0.548238
C13   C     C_3   0.929362 0.100776 0.785913 -0.281685
C14   C     C_3   0.924553 0.105824 0.705313 -0.287063
C15   C     C_R   0.671673 0.162626 0.671942 0.046034
C16   C     C_R   0.177180 0.670829 0.834363 0.029773
C17   C     C_R   0.155852 0.575687 0.794348 0.045677
C18   C     C_R   0.164749 0.572226 0.720546 -0.007525
C19   C     C_R   0.196989 0.772078 0.724038 -0.176770
C20   C     C_R   0.200407 0.767943 0.797925 -0.154675
C21   C     C_3   0.234307 0.420917 0.799105 -0.281673
C22   C     C_3   0.244930 0.417629 0.718728 -0.269909
C23   C     C_R   0.629949 0.224774 0.601559 0.555458
C24   C     C_R   0.189037 0.667903 0.683864 0.008464
C25   C     C_R   0.653002 0.658111 0.165245 -0.005829
C26   C     C_R   0.750801 0.537896 0.201991 0.074725
C27   C     C_R   0.745601 0.531832 0.274730 0.020399
C28   C     C_R   0.529934 0.750679 0.277510 -0.162016
C29   C     C_R   0.534308 0.758158 0.202813 -0.178533
C30   C     C_3   0.909228 0.464727 0.204298 -0.033010
C31   C     C_3   0.900748 0.458858 0.284289 -0.231629
C32   C     C_R   0.642902 0.641587 0.314383 0.005764
C33   C     C_R   0.634434 0.188316 0.168760 0.007219
C34   C     C_R   0.221215 0.648683 0.401968 0.554607
C35   C     C_R   0.518279 0.203314 0.207027 0.021306
C36   C     C_R   0.515013 0.215873 0.279704 0.031436
C37   C     C_R   0.728154 0.227844 0.277331 -0.148749
C38   C     C_R   0.730141 0.217875 0.203211 -0.161752
C39   C     C_3   0.453132 0.111883 0.209955 -0.267758
C40   C     C_3   0.448457 0.127686 0.289987 -0.279089
C41   C     C_R   0.626655 0.213616 0.316460 0.019253
C42   C     C_R   0.119592 0.690053 0.188236 0.023042
C43   C     C_R   0.069635 0.809136 0.231431 0.042910
C44   C     C_R   0.082441 0.800122 0.303780 0.011858
C45   C     C_R   0.638911 0.619144 0.390432 0.550482
C46   C     C_R   0.178846 0.550133 0.293706 -0.164871
C47   C     C_R   0.166032 0.560392 0.219950 -0.185409
C48   C     C_3   0.098520 0.927855 0.227871 -0.257862
C49   C     C_3   0.108110 0.921719 0.308009 -0.271804
C50   C     C_R   0.149584 0.669050 0.335302 0.018513
C51   C     C_R   0.702327 0.098616 0.894896 0.538979
C52   C     C_R   0.720312 0.686173 0.890051 0.561557
C53   C     C_R   0.118337 0.706320 0.905915 0.540246
C54   C     C_R   0.672883 0.110653 0.102567 0.537185
C55   C     C_R   0.695311 0.688679 0.096900 0.528096
C56   C     C_R   0.611989 0.238364 0.392291 0.548720
C57   C     C_R   0.089485 0.712097 0.113628 0.539557
C58   C     C_3   0.546173 0.786027 0.789403 -0.219593
C59   C     C_3   0.526011 0.755943 0.711656 -0.235747
C60   C     C_3   0.810964 0.673027 0.770409 -0.043677
Cr1   Cr    Cr6+3 0.392960 0.397920 0.502240 1.006341
Cr2   Cr    Cr6+3 0.398340 0.708480 0.501250 1.006824
Cr3   Cr    Cr6+3 0.708670 0.393570 0.496460 1.004722
Cr4   Cr    Cr6+3 0.937650 0.938540 0.007610 1.001757
Cr5   Cr    Cr6+3 0.625330 0.937370 0.994520 0.997328
Cr6   Cr    Cr6+3 0.937940 0.625230 0.001190 0.993174
H1    H     H_    0.538511 0.889444 0.794200 0.122501
H2    H     H_    0.814295 0.419915 0.707146 0.093308
H3    H     H_    0.910521 0.574518 0.780972 0.154032
H4    H     H_    0.879265 0.600745 0.661880 0.120030
H5    H     H_    0.491920 0.134935 0.810291 0.136253
H6    H     H_    0.967763 0.995566 0.807987 0.178385
H7    H     H_    0.973554 0.162896 0.810218 0.118079
H8    H     H_    0.968403 0.169018 0.682629 0.134636
H9    H     H_    0.961889 0.002693 0.679178 0.142486
H10   H     H_    0.211803 0.851803 0.698765 0.132749
H11   H     H_    0.459188 0.792519 0.822335 0.129800
H12   H     H_    0.211925 0.847424 0.826444 0.121788
H13   H     H_    0.167390 0.378984 0.819380 0.126028
H14   H     H_    0.336108 0.382852 0.826998 0.148986
H15   H     H_    0.352940 0.381168 0.699332 0.182492
H16   H     H_    0.185494 0.372614 0.692133 0.117800
H17   H     H_    0.442368 0.832712 0.306311 0.124811
H18   H     H_    0.451675 0.847198 0.175598 0.118382
H19   H     H_    0.953578 0.529869 0.185780 0.173920
H20   H     H_    0.943549 0.351838 0.305833 0.152030
H21   H     H_    0.449367 0.718726 0.709932 0.163582
H22   H     H_    0.935893 0.524918 0.312683 0.118983
H23   H     H_    0.808312 0.241205 0.303807 0.139412
H24   H     H_    0.814029 0.218609 0.173661 0.161192
H25   H     H_    0.527541 0.003974 0.192150 0.170656
H26   H     H_    0.347486 0.161130 0.184948 0.122384
H27   H     H_    0.339821 0.188188 0.311452 0.133335
H28   H     H_    0.518160 0.028599 0.318139 0.141646
H29   H     H_    0.225789 0.447138 0.316827 0.145309
H30   H     H_    0.197045 0.467374 0.187983 0.122116
H31   H     H_    0.008136 0.024521 0.207923 0.160022
H32   H     H_    0.483115 0.851609 0.679318 0.145445
H33   H     H_    0.200322 0.898366 0.201422 0.136786
H34   H     H_    0.213916 0.896092 0.326769 0.161094
H35   H     H_    0.020156 0.013766 0.334687 0.131976
H36   H     H_    0.746340 0.781543 0.667484 0.154143
H37   H     H_    0.791281 0.438322 0.827171 0.109883
H38   H     H_    0.633671 0.461891 0.704825 0.166880
O1    O     O_R   0.507380 0.255700 0.581440 -0.518114
O2    O     O_R   0.524480 0.695810 0.424040 -0.504526
O3    O     O_R   0.736390 0.504290 0.414790 -0.522430
O4    O     O_R   0.691300 0.277290 0.422170 -0.513420
O5    O     O_3   0.499990 0.499990 0.499980 -0.256873
O6    O     O_R   0.089400 0.825690 0.930570 -0.535585
O7    O     O_R   0.818460 0.054440 0.929850 -0.503480
O8    O     O_R   0.606060 0.077150 0.915510 -0.535113
O9    O     O_R   0.646550 0.806680 0.917570 -0.506844
O10   O     O_R   0.837170 0.593410 0.915250 -0.546596
O11   O     O_R   0.065200 0.635530 0.931570 -0.485201
O12   O     O_R   0.280320 0.527350 0.578930 -0.506846
O13   O     O_R   0.068260 0.828890 0.091840 -0.521970
O14   O     O_R   0.798870 0.057410 0.079340 -0.510370
O15   O     O_R   0.584930 0.080350 0.076780 -0.524387
O16   O     O_R   0.626960 0.809650 0.067060 -0.510110
O17   O     O_R   0.816040 0.596610 0.076510 -0.538608
O18   O     O_R   0.045610 0.638500 0.081060 -0.518219
O19   O     O_3   0.833640 0.833710 0.001100 -0.231673
O20   O     O_R   0.260510 0.739590 0.584590 -0.533609
O21   O     O_R   0.532300 0.695080 0.573820 -0.503936
O22   O     O_R   0.744840 0.503500 0.576370 -0.527429
O23   O     O_R   0.699120 0.276560 0.571960 -0.510863
O24   O     O_R   0.498940 0.256500 0.419860 -0.518093
O25   O     O_R   0.272500 0.528080 0.429150 -0.512219
O26   O     O_R   0.252060 0.740380 0.423010 -0.525008
N1    N     N_3   0.490436 0.087977 0.675164 -0.627086
H39   H     H_    0.402402 0.171149 0.652550 0.251924
H40   H     H_    0.444352 0.055090 0.713146 0.189201
N2    N     N_3   0.974084 0.326131 0.171516 -0.667319
H41   H     H_    0.963332 0.338312 0.116381 0.249370
H42   H     H_    0.081795 0.276953 0.182079 0.215641
N3    N     N_3   0.832416 0.790014 0.790881 -0.601644
H43   H     H_    0.739963 0.883031 0.782510 0.245362
H44   H     H_    0.905770 0.793006 0.756630 0.224787
O27   O     O_3   0.573100 0.522999 0.826504 -0.587423
C61   C     C_3   0.545012 0.540947 0.900747 0.002579
H45   H     H_    0.448119 0.534242 0.908736 0.155454
H46   H     H_    0.516563 0.647165 0.919452 0.124558
C62   C     C_3   0.660522 0.428634 0.947288 -0.283503
H47   H     H_    0.702637 0.325909 0.921531 0.177153
H48   H     H_    0.749186 0.448115 0.954147 0.175369
C63   C     C_3   0.605019 0.424778 0.021154 -0.448939
H49   H     H_    0.554406 0.530187 0.046193 0.146088
H50   H     H_    0.693686 0.352232 0.055290 0.156944
H51   H     H_    0.527360 0.387987 0.017619 0.152392

loop_
_geom_bond_atom_site_label_1
_geom_bond_atom_site_label_2
_ccdc_geom_bond_type
C53   O6    A    
C44   C49   S    
C55   O17   A    
C51   O8    A    
C32   C45   S    
Cr2   O26   S    
C35   C36   A    
C40   H27   S    
C9    C14   S    
Cr1   O5    S    
Cr2   O20   S    
C5    H36   S    
C7    C8    A    
Cr5   O8    S    
C52   O9    A    
C7    C11   A    
C48   H31   S    
N3    H44   S    
C26   C27   A    
C8    C13   S    
C18   C24   A    
C14   H8    S    
C23   O23   A    
C28   C29   A    
C63   H50   S    
C10   C15   A    
C61   H46   S    
C49   H35   S    
C30   C31   S    
C11   H5    S    
C12   O22   A    
C23   O1    A    
C60   H3    S    
Cr4   O14   S    
C4    C59   S    
C16   C53   S    
C56   O4    A    
C58   H11   S    
C57   O18   A    
C10   N1    S    
Cr5   O16   S    
C46   H29   S    
C63   H49   S    
C34   O25   A    
C16   C17   A    
C30   N2    S    
C47   H30   S    
Cr6   O18   S    
C1    O12   A    
C6    H38   S    
C4    C12   S    
Cr1   O1    S    
C43   C48   S    
Cr1   O25   S    
C60   N3    S    
C3    C60   S    
C15   C23   S    
C31   H20   S    
C13   C14   S    
C28   H17   S    
C37   C41   A    
C36   C41   A    
C2    C6    S    
C62   C63   S    
C42   C57   S    
C39   H25   S    
C55   O16   A    
C25   C29   A    
C54   O15   A    
C34   C50   S    
Cr6   O11   S    
C27   C31   S    
C22   H15   S    
C28   C32   A    
C63   H51   S    
O27   C61   S    
C29   H18   S    
C4    C6    S    
C61   C62   S    
C39   C40   S    
C8    C9    A    
Cr4   O7    S    
N2    H42   S    
C12   O21   A    
C25   C26   A    
C17   C21   S    
Cr4   O13   S    
Cr3   O5    S    
C35   C39   S    
C43   C44   A    
C41   C56   S    
C37   C38   A    
Cr4   O6    S    
C36   C40   S    
C16   C20   A    
C21   H13   S    
Cr1   O12   S    
C17   C18   A    
Cr5   O15   S    
Cr6   O17   S    
C30   H19   S    
C62   H48   S    
C48   C49   S    
C13   H7    S    
C26   C30   S    
C54   O14   A    
Cr5   O19   S    
C42   C43   A    
Cr3   O3    S    
N1    H39   S    
C22   H16   S    
C39   H26   S    
C45   O2    A    
C57   O13   A    
C44   C50   A    
C33   C54   S    
C48   H33   S    
C46   C50   A    
C46   C47   A    
C19   H10   S    
C51   O7    A    
C31   H22   S    
Cr6   O10   S    
C5    C60   S    
C27   C32   A    
C18   C22   S    
Cr5   O9    S    
C25   C55   S    
C40   H28   S    
C62   H47   S    
N1    H40   S    
C5    H4    S    
Cr2   O21   S    
C3    C52   S    
N2    H41   S    
Cr2   O2    S    
C13   H6    S    
C52   O10   A    
Cr4   O19   S    
N3    H43   S    
C38   H24   S    
C33   C38   A    
C20   H12   S    
C2    O27   S    
C14   H9    S    
C19   C20   A    
C19   C24   A    
C58   C59   S    
C1    O20   A    
C7    C51   S    
C61   H45   S    
C49   H34   S    
Cr2   O5    S    
C2    H37   S    
C21   H14   S    
C6    H2    S    
C33   C35   A    
C37   H23   S    
C2    C3    S    
Cr1   O24   S    
C42   C47   A    
C56   O24   A    
C9    C15   A    
C59   H21   S    
Cr3   O22   S    
C10   C11   A    
C3    C58   S    
C53   O11   A    
C58   H1    S    
C4    C5    S    
C34   O26   A    
C1    C24   S    
C59   H32   S    
Cr6   O19   S    
Cr3   O4    S    
C21   C22   S    
Cr3   O23   S    
C45   O3    A    
