data_mof_unit_40650.cif
_audit_creation_date              2012-12-10T19:53:40-0500
_audit_creation_method            fapswitch 2.2
_symmetry_space_group_name_H-M    P1
_symmetry_Int_Tables_number       1
_space_group_crystal_system       triclinic
_cell_length_a                    14.995936
_cell_length_b                    14.166535
_cell_length_c                    10.498939
_cell_angle_alpha                 89.853415
_cell_angle_beta                  89.59592
_cell_angle_gamma                 89.836255
_cell_volume                      2230.32758785

loop_
_atom_site_label
_atom_site_type_symbol
_atom_type_description
_atom_site_fract_x
_atom_site_fract_y
_atom_site_fract_z
_atom_type_partial_charge
C1    C     C_R   0.327504 0.500298 0.500863 0.896258
C2    C     C_R   0.434240 0.795796 0.438710 0.042379
C3    C     C_R   0.499882 0.053314 0.500277 0.141301
C4    C     C_R   0.499851 0.946605 0.500334 0.133615
C5    C     C_R   0.499499 0.500136 0.257132 0.832274
C6    C     C_R   0.500918 0.499817 0.742853 0.838128
C7    C     C_3   0.473416 0.585271 0.040504 -0.141833
C8    C     C_3   0.527696 0.414461 0.959399 -0.143014
C9    C     C_3   0.557041 0.566674 0.957723 -0.170079
C10   C     C_3   0.444199 0.433030 0.042190 -0.158855
C11   C     C_3   0.417870 0.517771 0.957926 -0.199094
C12   C     C_R   0.672202 0.499829 0.501630 0.918323
C13   C     C_3   0.583233 0.481847 0.042190 -0.213371
C14   C     C_3   0.501308 0.499342 0.877740 0.043782
C15   C     C_3   0.499729 0.500399 0.122225 0.044693
C16   C     C_R   0.094139 0.578538 0.570002 -0.262538
C17   C     C_R   0.904193 0.431623 0.588043 -0.282209
C18   C     C_R   0.908253 0.573626 0.457985 -0.265422
C19   C     C_R   0.090521 0.423570 0.472066 -0.264777
C20   C     C_R   0.186256 0.578660 0.563116 0.432127
C21   C     C_R   0.811639 0.431256 0.583690 0.421711
C22   C     C_R   0.816780 0.570092 0.443527 0.432379
C23   C     C_R   0.467308 0.105389 0.395770 -0.274204
C24   C     C_R   0.182218 0.424777 0.456564 0.445773
C25   C     C_R   0.231013 0.501466 0.505907 -0.292491
C26   C     C_R   0.768065 0.499747 0.508748 -0.271451
C27   C     C_R   0.047088 0.500825 0.526247 0.011220
C28   C     C_R   0.951483 0.503333 0.527206 0.022454
C29   C     C_3   0.251880 0.640972 0.740334 0.098729
C30   C     C_3   0.202549 0.713891 0.821794 -0.340961
C31   C     C_3   0.227001 0.704373 0.962152 -0.979186
C32   C     C_3   0.767219 0.369264 0.776392 0.069265
C33   C     C_3   0.756848 0.271785 0.837459 -0.315551
C34   C     C_R   0.566888 0.894455 0.562761 -0.275747
C35   C     C_3   0.763622 0.276052 0.982262 -0.986914
C36   C     C_3   0.760086 0.595911 0.244421 0.112568
C37   C     C_3   0.839103 0.614228 0.154211 -0.356268
C38   C     C_3   0.820903 0.577208 0.020529 -0.993889
C39   C     C_3   0.245168 0.372458 0.269857 0.120179
C40   C     C_3   0.165023 0.360204 0.181370 -0.384024
C41   C     C_3   0.191335 0.376457 0.042349 -0.963237
C42   C     C_R   0.532466 0.104921 0.604686 -0.282554
C43   C     C_R   0.432826 0.895085 0.437864 -0.277524
C44   C     C_R   0.467843 0.204657 0.397679 0.048707
C45   C     C_R   0.565609 0.795178 0.561612 0.041254
C46   C     C_R   0.531954 0.204206 0.602514 0.048049
H1    H     H_    0.350214 0.530906 0.920597 0.119605
H2    H     H_    0.052745 0.364295 0.436142 0.169227
H3    H     H_    0.442688 0.069965 0.311937 0.133007
H4    H     H_    0.620909 0.929829 0.610761 0.138366
H5    H     H_    0.557013 0.069138 0.688651 0.132109
H6    H     H_    0.378732 0.930955 0.390016 0.140276
H7    H     H_    0.442636 0.243446 0.316687 0.117003
H8    H     H_    0.617474 0.756126 0.609944 0.132450
H9    H     H_    0.556818 0.242736 0.683473 0.122547
H10   H     H_    0.382362 0.757228 0.390420 0.139226
H11   H     H_    0.324790 0.651236 0.751994 0.179462
H12   H     H_    0.650075 0.467324 0.081755 0.125605
H13   H     H_    0.235952 0.568571 0.776558 0.100558
H14   H     H_    0.219900 0.786065 0.788225 0.235618
H15   H     H_    0.129468 0.704059 0.811610 0.215567
H16   H     H_    0.208695 0.633265 0.998503 0.262202
H17   H     H_    0.190211 0.758219 0.018589 0.271141
H18   H     H_    0.299662 0.715548 0.975000 0.262204
H19   H     H_    0.711115 0.415484 0.807544 0.144658
H20   H     H_    0.830706 0.400585 0.811254 0.131864
H21   H     H_    0.691256 0.241517 0.811397 0.210927
H22   H     H_    0.810082 0.224275 0.800363 0.229808
H23   H     H_    0.451184 0.654800 0.077762 0.138183
H24   H     H_    0.828530 0.306746 0.010888 0.266709
H25   H     H_    0.758575 0.203646 0.022336 0.272049
H26   H     H_    0.708532 0.319179 0.022394 0.263246
H27   H     H_    0.699825 0.630542 0.204483 0.173377
H28   H     H_    0.745220 0.518795 0.248550 0.097912
H29   H     H_    0.852239 0.691319 0.149057 0.233364
H30   H     H_    0.899701 0.578474 0.190995 0.215575
H31   H     H_    0.809327 0.499845 0.023305 0.261981
H32   H     H_    0.879381 0.591361 0.957956 0.270078
H33   H     H_    0.761744 0.613005 0.979504 0.262154
H34   H     H_    0.549810 0.344930 0.921985 0.137550
H35   H     H_    0.298493 0.322994 0.238793 0.153996
H36   H     H_    0.273167 0.445009 0.260014 0.103494
H37   H     H_    0.137835 0.287711 0.192312 0.234941
H38   H     H_    0.111877 0.411614 0.207161 0.215782
H39   H     H_    0.218111 0.448867 0.029322 0.257104
H40   H     H_    0.131834 0.368385 0.981017 0.270514
H41   H     H_    0.242520 0.324190 0.011983 0.264068
H42   H     H_    0.602642 0.621087 0.918166 0.129875
H43   H     H_    0.398898 0.378007 0.080237 0.121981
H44   H     H_    0.059290 0.638597 0.610602 0.162102
H45   H     H_    0.939129 0.376283 0.639075 0.164033
H46   H     H_    0.946102 0.628088 0.409270 0.164672
N1    N     N_R   0.500000 0.252470 0.500000 -0.091038
N2    N     N_R   0.500000 0.747530 0.500000 -0.097606
O1    O     O_R   0.369060 0.579480 0.500010 -0.592822
O2    O     O_3   0.764425 0.359127 0.642364 -0.618103
O3    O     O_3   0.775727 0.636051 0.365762 -0.626450
O4    O     O_3   0.222955 0.348653 0.397313 -0.621871
O5    O     O_R   0.630940 0.420520 0.499990 -0.574497
O6    O     O_R   0.630940 0.579480 0.499990 -0.599226
O7    O     O_R   0.369060 0.420520 0.500010 -0.582120
O8    O     O_R   0.499980 0.579460 0.313950 -0.631015
O9    O     O_R   0.500020 0.420540 0.686050 -0.633946
O10   O     O_R   0.500020 0.579460 0.686050 -0.638152
O11   O     O_R   0.499980 0.420540 0.313950 -0.641772
O12   O     O_3   0.231729 0.655737 0.610189 -0.622997
Zn1   Zn    Zn3+2 0.500000 0.606140 0.500000 0.954991
Zn2   Zn    Zn3+2 0.500000 0.393860 0.500000 0.968482

loop_
_geom_bond_atom_site_label_1
_geom_bond_atom_site_label_2
_ccdc_geom_bond_type
C21   C26   A    
C3    C42   A    
C16   H44   S    
C8    C13   S    
C40   H38   S    
C3    C23   A    
C17   H45   S    
C5    O11   A    
C7    C11   S    
O5    Zn2   S    
C37   C38   S    
C24   O4    S    
C36   C37   S    
C10   C15   S    
N1    Zn2   S    
C30   C31   S    
C11   C14   S    
C43   H6    S    
C23   H3    S    
C38   H33   S    
C42   C46   A    
C10   H43   S    
C9    C13   S    
C12   O5    A    
C44   N1    A    
C11   H1    S    
C44   H7    S    
C29   H13   S    
C35   H24   S    
C30   H14   S    
C46   H9    S    
C36   O3    S    
C6    O10   A    
C19   C27   A    
C16   C20   A    
C42   H5    S    
C16   C27   A    
C7    C15   S    
C37   H29   S    
C35   H25   S    
C22   O3    S    
C1    C25   S    
C31   H16   S    
C40   H37   S    
C45   N2    A    
C20   O12   S    
C41   H41   S    
O11   Zn2   S    
C4    C34   A    
N2    Zn1   S    
C34   H4    S    
C5    C15   S    
C31   H17   S    
C2    N2    A    
C18   C28   A    
C24   C25   A    
C39   H35   S    
C36   H27   S    
C39   C40   S    
C19   H2    S    
C39   O4    S    
C13   H12   S    
C38   H32   S    
C21   O2    S    
C17   C21   A    
C23   C44   A    
C12   C26   S    
C9    C14   S    
C7    H23   S    
C29   C30   S    
C41   H40   S    
C6    C14   S    
C2    C43   A    
C1    O1    A    
O8    Zn1   S    
C34   C45   A    
C6    O9    A    
O9    Zn2   S    
O1    Zn1   S    
C40   C41   S    
C32   O2    S    
C37   H30   S    
C29   H11   S    
C45   H8    S    
C13   C15   S    
C22   C26   A    
C29   O12   S    
C3    C4    S    
C1    O7    A    
C33   H21   S    
C32   H20   S    
C7    C9    S    
C5    O8    A    
C36   H28   S    
O6    Zn1   S    
C8    C14   S    
C18   C22   A    
C17   C28   A    
C31   H18   S    
C39   H36   S    
C35   H26   S    
C38   H31   S    
C41   H39   S    
C18   H46   S    
C32   C33   S    
C19   C24   A    
C9    H42   S    
C2    H10   S    
C46   N1    A    
O7    Zn2   S    
C33   C35   S    
C4    C43   A    
C12   O6    A    
C10   C11   S    
C8    C10   S    
C20   C25   A    
C30   H15   S    
C27   C28   S    
C8    H34   S    
O10   Zn1   S    
C33   H22   S    
C32   H19   S    
