data_mof_unit_54770.cif
_audit_creation_date              2012-10-26T18:25:40-0400
_audit_creation_method            fapswitch 2.2
_symmetry_space_group_name_H-M    P1
_symmetry_Int_Tables_number       1
_space_group_crystal_system       triclinic
_cell_length_a                    7.538655
_cell_length_b                    8.686776
_cell_length_c                    10.967362
_cell_angle_alpha                 87.030619
_cell_angle_beta                  74.464806
_cell_angle_gamma                 102.612369
_cell_volume                      670.617030954

loop_
_atom_site_label
_atom_site_type_symbol
_atom_type_description
_atom_site_fract_x
_atom_site_fract_y
_atom_site_fract_z
_atom_type_partial_charge
C1    C     C_R   0.452092 0.200025 0.506318 0.534334
C2    C     C_2   0.574388 0.968437 0.484614 -0.090778
C3    C     C_3   0.909172 0.302160 0.595093 -0.066536
C4    C     C_3   0.085209 0.701277 0.414959 -0.064257
C5    C     C_R   0.547637 0.799893 0.494873 0.599337
C6    C     C_R   0.430642 0.504210 0.741215 0.556628
C7    C     C_R   0.574145 0.514424 0.257391 0.589989
C8    C     C_2   0.413669 0.529019 0.875337 -0.117861
C9    C     C_2   0.605157 0.520021 0.119669 -0.076364
C10   C     C_2   0.563976 0.598914 0.917139 0.237036
C11   C     C_2   0.534918 0.613737 0.052079 0.244751
C12   C     C_2   0.425281 0.031429 0.517761 -0.131781
Cu1   Cu    Cu3+1 0.688910 0.517800 0.485820 1.047402
Cu2   Cu    Cu3+1 0.311090 0.482200 0.514180 1.022422
H1    H     H_    0.679855 0.436067 0.072109 0.084479
H2    H     H_    0.019672 0.755080 0.349980 0.158410
H3    H     H_    0.085362 0.775698 0.493593 0.142320
H4    H     H_    0.225137 0.696063 0.356588 0.214750
H5    H     H_    0.273982 0.487999 0.943485 0.107864
H6    H     H_    0.282027 0.959164 0.556912 0.126456
H7    H     H_    0.717710 0.040737 0.445518 0.123333
H8    H     H_    0.509536 0.025822 0.011998 0.356106
H9    H     H_    0.044346 0.850760 0.850618 0.363277
H10   H     H_    0.903963 0.219239 0.522445 0.105895
H11   H     H_    0.975980 0.253598 0.661981 0.139270
H12   H     H_    0.769210 0.309494 0.655056 0.160640
N1    N     N_2   0.027170 0.455360 0.535550 -0.127814
N2    N     N_2   0.972830 0.544640 0.464450 -0.155099
O1    O     O_R   0.622710 0.286400 0.490790 -0.542401
O2    O     O_2   0.527715 0.838175 0.214599 -0.327168
O3    O     O_3   0.560738 0.934904 0.980614 -0.456572
O4    O     O_2   0.902305 0.573694 0.771667 -0.299810
O5    O     O_2   0.787564 0.802590 0.711564 -0.281975
O6    O     O_3   0.915122 0.806492 0.908740 -0.459130
O7    O     O_R   0.377290 0.713600 0.509210 -0.529346
O8    O     O_R   0.303660 0.256330 0.514730 -0.521603
O9    O     O_R   0.696340 0.743670 0.485270 -0.486688
O10   O     O_R   0.600900 0.509520 0.671740 -0.457255
O11   O     O_R   0.399100 0.490480 0.328260 -0.503606
O12   O     O_R   0.281840 0.479450 0.695690 -0.472740
O13   O     O_R   0.718160 0.520550 0.304310 -0.478365
O14   O     O_2   0.252198 0.755419 0.130477 -0.332613
S1    S     S_3+6 0.464045 0.787088 0.101293 0.017864
S2    S     S_3+6 0.796735 0.695932 0.820785 0.047200

loop_
_geom_bond_atom_site_label_1
_geom_bond_atom_site_label_2
_ccdc_geom_bond_type
C4    H2    S    
C6    O10   A    
Cu1   N2    S    
C11   S1    S    
C5    O9    A    
Cu2   N1    S    
O14   S1    D    
Cu1   O9    S    
H9    O6    S    
C2    C12   D    
C12   H6    S    
C2    H7    S    
Cu1   O13   S    
C9    H1    S    
C4    H4    S    
Cu1   Cu2   S    
C9    C11   D    
Cu1   O10   S    
C1    C12   S    
O3    S1    S    
C4    H3    S    
C5    O7    A    
Cu1   O1    S    
C4    N2    S    
C3    N1    S    
C7    O13   A    
Cu2   O8    S    
C6    O12   A    
O2    S1    D    
C8    H5    S    
C10   C11   S    
C1    O1    A    
Cu2   O12   S    
C2    C5    S    
C3    H11   S    
O6    S2    S    
O4    S2    D    
C8    C10   D    
H8    O3    S    
N1    N2    D    
C7    C9    S    
C7    O11   A    
C6    C8    S    
Cu2   O11   S    
O5    S2    D    
C10   S2    S    
Cu2   O7    S    
C3    H12   S    
C1    O8    A    
C3    H10   S    
