data_mof_unit_40856.cif
_audit_creation_date              2012-12-10T20:39:13-0500
_audit_creation_method            fapswitch 2.2
_symmetry_space_group_name_H-M    P1
_symmetry_Int_Tables_number       1
_space_group_crystal_system       triclinic
_cell_length_a                    19.069565
_cell_length_b                    10.688438
_cell_length_c                    9.868157
_cell_angle_alpha                 89.588384
_cell_angle_beta                  89.192932
_cell_angle_gamma                 90.212877
_cell_volume                      2011.09979323

loop_
_atom_site_label
_atom_site_type_symbol
_atom_type_description
_atom_site_fract_x
_atom_site_fract_y
_atom_site_fract_z
_atom_type_partial_charge
C1    C     C_R   0.502808 0.260057 0.500238 0.877921
C2    C     C_R   0.853452 0.571207 0.486733 -0.039270
C3    C     C_R   0.513981 0.062998 0.622608 0.090437
C4    C     C_R   0.365292 0.501604 0.500644 0.901627
C5    C     C_R   0.514683 0.128893 0.500573 -0.075470
C6    C     C_R   0.527895 0.065851 0.378572 -0.219246
C7    C     C_R   0.526767 0.936324 0.378103 -0.206777
C8    C     C_R   0.512010 0.871628 0.499424 -0.072416
C9    C     C_R   0.511196 0.935611 0.621839 0.059607
C10   C     C_3   0.461928 0.930052 0.741553 0.008060
C11   C     C_3   0.465531 0.071842 0.742201 -0.509883
C12   C     C_R   0.289367 0.514153 0.500502 -0.074271
C13   C     C_R   0.478689 0.396276 0.073498 0.173295
C14   C     C_R   0.528688 0.596382 0.070335 -0.099474
C15   C     C_R   0.529340 0.595764 0.926362 -0.110353
C16   C     C_R   0.501923 0.740023 0.499540 0.910931
C17   C     C_R   0.474717 0.399528 0.931444 0.127931
C18   C     C_3   0.400871 0.348537 0.939430 -0.038726
C19   C     C_3   0.409830 0.333042 0.091180 -0.480945
C20   C     C_R   0.634676 0.500791 0.498971 0.897374
C21   C     C_R   0.254585 0.567755 0.611287 -0.169878
C22   C     C_R   0.182740 0.585673 0.608234 -0.164990
C23   C     C_R   0.929209 0.580676 0.494659 0.368411
C24   C     C_R   0.145217 0.552543 0.493145 0.032888
C25   C     C_R   0.179728 0.498741 0.380948 0.191370
C26   C     C_R   0.251696 0.479964 0.385584 -0.203238
C27   C     C_3   0.277174 0.393660 0.899162 -0.711511
C28   C     C_3   0.709925 0.267209 0.323887 -0.749197
C29   C     C_3   0.869634 0.548087 0.153354 -0.670122
C30   C     C_R   0.069945 0.568167 0.495985 0.307242
C31   C     C_R   0.812165 0.611202 0.596868 0.153159
C32   C     C_R   0.741206 0.584235 0.600248 -0.273332
C33   C     C_R   0.710580 0.515872 0.496189 -0.130667
C34   C     C_R   0.751456 0.473032 0.385722 0.159469
C35   C     C_R   0.823183 0.505187 0.378412 0.123441
H1    H     H_    0.282949 0.598625 0.698874 0.181311
H2    H     H_    0.156454 0.626903 0.695072 0.171906
H3    H     H_    0.415828 0.233858 0.123524 0.174348
H4    H     H_    0.277969 0.437829 0.299594 0.162839
H5    H     H_    0.709582 0.618962 0.683885 0.188713
H6    H     H_    0.534165 0.115582 0.283081 0.166137
H7    H     H_    0.361092 0.513595 0.847887 0.270981
H8    H     H_    0.239304 0.472253 0.901233 0.251233
H9    H     H_    0.263800 0.329000 0.984429 0.265950
H10   H     H_    0.272521 0.343346 0.801558 0.240394
H11   H     H_    0.740796 0.406581 0.187941 0.231501
H12   H     H_    0.532791 0.888077 0.282502 0.161035
H13   H     H_    0.681596 0.217332 0.242748 0.236040
H14   H     H_    0.761333 0.221059 0.339469 0.235926
H15   H     H_    0.677914 0.260086 0.418586 0.235604
H16   H     H_    0.857985 0.371743 0.241224 0.238789
H17   H     H_    0.818389 0.551862 0.101593 0.220255
H18   H     H_    0.910068 0.515064 0.080021 0.266718
H19   H     H_    0.883920 0.644108 0.185407 0.261736
H20   H     H_    0.486519 0.886728 0.831833 0.136375
H21   H     H_    0.415411 0.118153 0.715903 0.220626
H22   H     H_    0.492274 0.109816 0.832539 0.178740
H23   H     H_    0.550648 0.675312 0.123236 0.136357
H24   H     H_    0.552246 0.673782 0.870936 0.140576
H25   H     H_    0.393453 0.259655 0.884349 0.159099
H26   H     H_    0.372425 0.387712 0.154041 0.234355
I1    I     I_    0.358187 0.863294 0.698524 -0.388060
I2    I     I_    0.127172 0.434941 0.205720 -0.341497
I3    I     I_    0.852824 0.716825 0.760095 -0.368775
N1    N     N_R   0.036972 0.626420 0.392695 -0.122292
N2    N     N_R   0.967461 0.632273 0.391905 -0.137616
N3    N     N_R   0.962368 0.525232 0.599483 -0.133814
N4    N     N_R   0.031807 0.519708 0.600572 -0.149150
N5    N     N_R   0.499530 0.499140 0.142800 -0.096292
N6    N     N_R   0.499530 0.499180 0.857150 -0.112111
N7    N     N_2   0.347597 0.441887 0.913075 -0.279619
N8    N     N_2   0.720324 0.396736 0.284505 -0.292317
N9    N     N_2   0.866337 0.463446 0.268645 -0.305532
O1    O     O_R   0.500010 0.316790 0.614690 -0.618319
O2    O     O_R   0.500000 0.316760 0.385350 -0.622817
O3    O     O_R   0.398140 0.500000 0.614710 -0.623240
O4    O     O_R   0.398130 0.499970 0.385370 -0.615337
O5    O     O_R   0.500000 0.683240 0.614650 -0.617044
O6    O     O_R   0.499990 0.683210 0.385310 -0.628093
O7    O     O_R   0.601870 0.500030 0.614630 -0.625303
O8    O     O_R   0.601860 0.500000 0.385290 -0.588241
Zn1   Zn    Zn3+2 0.500000 0.500020 0.653130 0.950592
Zn2   Zn    Zn3+2 0.500000 0.499980 0.346870 0.963933

loop_
_geom_bond_atom_site_label_1
_geom_bond_atom_site_label_2
_ccdc_geom_bond_type
C2    C35   A    
C7    C8    A    
C21   H1    S    
C28   N8    S    
C29   H18   S    
C3    C9    A    
C1    O1    A    
C23   N2    A    
C18   C19   S    
C5    C6    A    
C26   H4    S    
C29   N9    S    
C29   H19   S    
O4    Zn2   S    
C34   C35   A    
C25   I2    S    
C23   N3    A    
C20   O8    A    
C28   H15   S    
C27   H9    S    
C35   N9    S    
C8    C9    A    
C6    H6    S    
C4    C12   S    
C9    C10   S    
H11   N8    S    
C27   H10   S    
C22   C24   A    
C17   N6    A    
C8    C16   S    
C21   C22   A    
C10   I1    S    
O1    Zn1   S    
O8    Zn2   S    
C33   C34   A    
C14   H23   S    
C20   O7    A    
N3    N4    A    
C1    O2    A    
C24   C25   A    
O7    Zn1   S    
O3    Zn1   S    
C13   C19   S    
C25   C26   A    
C22   H2    S    
C12   C21   A    
C12   C26   A    
C2    C31   A    
C7    H12   S    
N5    Zn2   S    
C19   H3    S    
C28   H14   S    
O5    Zn1   S    
C31   C32   A    
C17   C18   S    
C10   H20   S    
C20   C33   S    
C18   H25   S    
C14   N5    A    
C1    C5    S    
C34   N8    S    
C27   N7    S    
C18   N7    S    
C15   N6    A    
C28   H13   S    
C15   H24   S    
C31   I3    S    
H16   N9    S    
C3    C5    A    
C6    C7    A    
C13   C17   A    
C16   O6    A    
C32   C33   A    
C4    O4    A    
O6    Zn2   S    
O2    Zn2   S    
C13   N5    A    
C19   H26   S    
H7    N7    S    
C16   O5    A    
C32   H5    S    
N6    Zn1   S    
C24   C30   S    
C4    O3    A    
C30   N1    A    
C3    C11   S    
C10   C11   S    
C27   H8    S    
N1    N2    A    
C2    C23   S    
C14   C15   A    
C11   H22   S    
C30   N4    A    
C11   H21   S    
C29   H17   S    
