data_mof_unit_58870.cif
_audit_creation_date              2012-12-10T17:18:19-0500
_audit_creation_method            fapswitch 2.2
_symmetry_space_group_name_H-M    P1
_symmetry_Int_Tables_number       1
_space_group_crystal_system       triclinic
_cell_length_a                    10.227158
_cell_length_b                    10.567802
_cell_length_c                    14.920151
_cell_angle_alpha                 90.903019
_cell_angle_beta                  81.982806
_cell_angle_gamma                 94.086289
_cell_volume                      1592.70119402

loop_
_atom_site_label
_atom_site_type_symbol
_atom_type_description
_atom_site_fract_x
_atom_site_fract_y
_atom_site_fract_z
_atom_type_partial_charge
C1    C     C_R   0.553238 0.733272 0.487825 0.938929
C2    C     C_2   0.073847 0.497812 0.487080 -0.059743
C3    C     C_R   0.499983 0.496880 0.672508 0.888754
C4    C     C_R   0.500550 0.505083 0.327430 0.963062
C5    C     C_R   0.428127 0.412993 0.193891 -0.202668
C6    C     C_R   0.568075 0.593187 0.806091 -0.212813
C7    C     C_R   0.501022 0.509906 0.232007 -0.103518
C8    C     C_R   0.500087 0.493040 0.767747 -0.108685
C9    C     C_R   0.574309 0.607054 0.179927 -0.053764
C10   C     C_R   0.433376 0.392296 0.819238 -0.046332
C11   C     C_R   0.573460 0.604350 0.085911 0.016263
C12   C     C_R   0.446125 0.266347 0.500436 0.950607
C13   C     C_R   0.431877 0.396331 0.913382 0.020327
C14   C     C_R   0.500876 0.503545 0.046710 0.042057
C15   C     C_R   0.501707 0.498812 0.952810 0.039697
C16   C     C_R   0.428032 0.407119 0.101289 0.056957
C17   C     C_R   0.572020 0.596771 0.898366 0.072714
C18   C     C_R   0.645654 0.698204 0.030032 -0.176496
C19   C     C_R   0.360220 0.301992 0.969003 -0.177272
C20   C     C_2   0.647658 0.711690 0.224155 0.897731
C21   C     C_2   0.370329 0.282438 0.773905 0.860814
C22   C     C_2   0.604385 0.125182 0.355179 1.019708
C23   C     C_R   0.644021 0.696157 0.937397 0.146247
C24   C     C_2   0.371941 0.869893 0.386695 1.020528
C25   C     C_2   0.123269 0.428175 0.404340 0.986025
C26   C     C_2   0.878419 0.590472 0.585920 0.981842
C27   C     C_R   0.357723 0.306603 0.062058 0.148798
C28   C     C_2   0.576627 0.866750 0.465202 -0.352765
C29   C     C_2   0.420285 0.131535 0.485809 -0.299902
C30   C     C_2   0.486602 0.929365 0.427820 -0.091359
C31   C     C_2   0.502571 0.066492 0.426163 -0.091514
C32   C     C_2   0.926958 0.510165 0.508570 -0.047982
H1    H     H_    0.374171 0.340820 0.237817 0.205456
H2    H     H_    0.229611 0.217641 0.699199 0.352538
H3    H     H_    0.651655 0.258361 0.258849 0.354233
H4    H     H_    0.187259 0.886565 0.357084 0.369672
H5    H     H_    0.148802 0.423795 0.267868 0.348690
H6    H     H_    0.842317 0.607604 0.721652 0.347899
H7    H     H_    0.616684 0.668409 0.762553 0.172812
H8    H     H_    0.704740 0.774358 0.057348 0.201612
H9    H     H_    0.303929 0.224248 0.941007 0.196364
H10   H     H_    0.338610 0.082387 0.529056 0.181442
H11   H     H_    0.664082 0.917678 0.485418 0.200342
H12   H     H_    0.120858 0.600213 0.594127 0.192205
H13   H     H_    0.878081 0.390553 0.410593 0.194248
H14   H     H_    0.793309 0.764224 0.298107 0.369070
I1    I     I_    0.755506 0.847364 0.862565 -0.258904
I2    I     I_    0.245547 0.155911 0.137150 -0.223833
N1    N     N_2   0.842700 0.448880 0.462930 -0.214985
N2    N     N_2   0.157300 0.551120 0.537070 -0.216203
O1    O     O_R   0.431060 0.692470 0.507460 -0.612561
O2    O     O_R   0.751837 0.685336 0.270798 -0.758026
O3    O     O_2   0.412400 0.177456 0.777519 -0.599115
O4    O     O_R   0.263164 0.299237 0.727614 -0.755833
O5    O     O_2   0.710071 0.077362 0.335133 -0.589456
O6    O     O_R   0.576253 0.229929 0.307434 -0.809775
O7    O     O_2   0.379815 0.768188 0.347176 -0.604866
O8    O     O_R   0.257224 0.935024 0.388526 -0.764709
O9    O     O_2   0.159277 0.321088 0.409349 -0.584449
O10   O     O_R   0.119551 0.482515 0.320028 -0.773097
O11   O     O_2   0.860575 0.701730 0.574160 -0.606709
O12   O     O_R   0.568940 0.307530 0.492540 -0.615123
O13   O     O_R   0.865298 0.541325 0.673346 -0.779677
O14   O     O_R   0.651120 0.659650 0.483670 -0.567707
O15   O     O_R   0.348880 0.340350 0.516330 -0.557272
O16   O     O_R   0.389960 0.516440 0.644050 -0.576187
O17   O     O_R   0.610040 0.483560 0.355950 -0.573855
O18   O     O_R   0.610030 0.483620 0.620260 -0.601773
O19   O     O_R   0.389970 0.516380 0.379740 -0.584008
O20   O     O_2   0.617661 0.820970 0.218552 -0.580037
Zn1   Zn    Zn3+2 0.353060 0.521920 0.515880 1.051626
Zn2   Zn    Zn3+2 0.646940 0.478080 0.484120 1.043702

loop_
_geom_bond_atom_site_label_1
_geom_bond_atom_site_label_2
_ccdc_geom_bond_type
C27   I2    S    
C1    C28   S    
C22   O6    S    
N2    Zn1   S    
C1    O14   A    
C11   C18   A    
C26   C32   S    
C22   O5    D    
C25   O10   S    
C12   C29   S    
C4    O17   A    
C9    C11   A    
C12   O15   A    
C28   H11   S    
O16   Zn1   S    
H13   N1    S    
C21   O4    S    
C26   O13   S    
O14   Zn2   S    
C25   O9    D    
C16   C27   A    
C28   C30   D    
C5    C7    A    
O12   Zn2   S    
C6    C17   A    
C29   C31   D    
C19   H9    S    
O15   Zn1   S    
C21   O3    D    
C1    O1    A    
C20   O20   D    
C17   C23   A    
O1    Zn1   S    
C4    C7    S    
C15   C17   A    
C2    C32   S    
C4    O19   A    
C11   C14   A    
C26   O11   D    
H2    O4    S    
C2    C25   S    
H4    O8    S    
C13   C15   A    
C10   C21   S    
C30   C31   S    
C29   H10   S    
C9    C20   S    
C14   C16   A    
C32   N1    D    
C3    C8    S    
C24   C30   S    
C23   I1    S    
C22   C31   S    
C13   C19   A    
C18   C23   A    
H5    O10   S    
C24   O8    S    
H14   O2    S    
O19   Zn1   S    
O17   Zn2   S    
C12   O12   A    
C20   O2    S    
H6    O13   S    
H12   N2    S    
C7    C9    A    
C3    O16   A    
C18   H8    S    
C6    H7    S    
C24   O7    D    
C5    C16   A    
C6    C8    A    
C2    N2    D    
C19   C27   A    
H3    O6    S    
C14   C15   A    
C10   C13   A    
C8    C10   A    
C3    O18   A    
O18   Zn2   S    
N1    Zn2   S    
C5    H1    S    
