data_mof_unit_36858.cif
_audit_creation_date              2012-12-11T14:08:32-0500
_audit_creation_method            fapswitch 2.2
_symmetry_space_group_name_H-M    P1
_symmetry_Int_Tables_number       1
_space_group_crystal_system       triclinic
_cell_length_a                    10.946106
_cell_length_b                    10.940835
_cell_length_c                    18.696732
_cell_angle_alpha                 90.215788
_cell_angle_beta                  89.762284
_cell_angle_gamma                 60.083841
_cell_volume                      1940.70337187

loop_
_atom_site_label
_atom_site_type_symbol
_atom_type_description
_atom_site_fract_x
_atom_site_fract_y
_atom_site_fract_z
_atom_type_partial_charge
C1    C     C_R   0.238972 0.644467 0.609512 0.582202
C2    C     C_2   0.791483 0.135728 0.705797 0.057189
C3    C     C_2   0.191550 0.657292 0.683524 -0.108057
C4    C     C_R   0.652338 0.620908 0.602155 0.573983
C5    C     C_2   0.199755 0.660989 0.840640 -0.099874
C6    C     C_2   0.220427 0.547653 0.802365 0.042153
C7    C     C_2   0.246701 0.541475 0.724978 -0.158682
C8    C     C_2   0.664398 0.664718 0.325413 -0.055577
C9    C     C_2   0.711859 0.737643 0.180503 0.078114
C10   C     C_2   0.812814 0.647766 0.224857 -0.134285
C11   C     C_2   0.789397 0.641561 0.301619 -0.112071
C12   C     C_3   0.685466 0.542523 0.800868 -0.256843
C13   C     C_2   0.637530 0.190910 0.319689 0.109274
C14   C     C_2   0.635845 0.211500 0.160429 -0.082216
C15   C     C_2   0.524983 0.241047 0.200760 -0.137905
C16   C     C_R   0.628707 0.227090 0.601790 0.572139
C17   C     C_2   0.527482 0.270529 0.276101 -0.127563
C18   C     C_2   0.188805 0.660776 0.326290 -0.072760
C19   C     C_2   0.183298 0.643772 0.172940 -0.101930
C20   C     C_2   0.239209 0.711053 0.206446 -0.135746
C21   C     C_2   0.267592 0.690229 0.281832 -0.139130
C22   C     C_R   0.703388 0.102309 0.897698 0.551004
C23   C     C_3   0.698936 0.674580 0.812760 0.027490
C24   C     C_R   0.723516 0.688221 0.888463 0.548406
C25   C     C_R   0.121104 0.704952 0.908058 0.558958
C26   C     C_R   0.672078 0.116957 0.100004 0.573541
C27   C     C_R   0.735957 0.722795 0.103545 0.592343
C28   C     C_R   0.224823 0.648227 0.400389 0.564984
C29   C     C_R   0.099345 0.705316 0.110598 0.560771
C30   C     C_R   0.645276 0.625434 0.395726 0.551368
C31   C     C_R   0.615825 0.231180 0.394071 0.579419
C32   C     C_3   0.563241 0.806443 0.785053 -0.231339
C33   C     C_3   0.545091 0.790349 0.704936 -0.226443
C34   C     C_3   0.668123 0.647139 0.677285 0.055392
C35   C     C_3   0.826874 0.661722 0.769342 -0.207476
C36   C     C_3   0.811152 0.640382 0.689391 -0.054593
C37   C     C_3   0.664671 0.527529 0.721078 -0.248686
C38   C     C_2   0.674129 0.158028 0.671205 -0.071575
C39   C     C_2   0.692509 0.163664 0.827425 -0.134816
C40   C     C_2   0.804716 0.106106 0.782990 -0.149141
Cr1   Cr    Cr6+3 0.393010 0.398050 0.501480 1.054793
Cr2   Cr    Cr6+3 0.398820 0.707980 0.501630 1.070314
Cr3   Cr    Cr6+3 0.708140 0.393940 0.496850 1.083495
Cr4   Cr    Cr6+3 0.937950 0.938450 0.008940 1.046384
Cr5   Cr    Cr6+3 0.626180 0.937030 0.994750 1.061916
Cr6   Cr    Cr6+3 0.937790 0.625760 0.001410 1.052543
H1    H     H_    0.570012 0.903718 0.793547 0.161980
H2    H     H_    0.469130 0.819708 0.814943 0.136394
H3    H     H_    0.125288 0.762033 0.705882 0.136243
H4    H     H_    0.914942 0.569303 0.203619 0.130869
H5    H     H_    0.879540 0.599352 0.337138 0.145031
H6    H     H_    0.578459 0.689551 0.289252 0.118378
H7    H     H_    0.438336 0.229182 0.180967 0.181376
H8    H     H_    0.429804 0.356526 0.297783 0.134124
H9    H     H_    0.716133 0.233820 0.180202 0.141156
H10   H     H_    0.248851 0.795060 0.181008 0.183037
H11   H     H_    0.442043 0.795140 0.696832 0.150223
H12   H     H_    0.749213 0.422239 0.702692 0.171636
H13   H     H_    0.347714 0.711997 0.302129 0.157046
H14   H     H_    0.183579 0.552932 0.196559 0.093859
H15   H     H_    0.107237 0.639203 0.308274 0.100470
H16   H     H_    0.541437 0.879800 0.675079 0.164727
H17   H     H_    0.835414 0.757906 0.777872 0.142474
H18   H     H_    0.781993 0.446513 0.819529 0.162236
H19   H     H_    0.594318 0.551388 0.831903 0.122925
H20   H     H_    0.562392 0.530505 0.713093 0.112315
H21   H     H_    0.926921 0.570682 0.788322 0.169398
H22   H     H_    0.898479 0.534332 0.673171 0.171912
H23   H     H_    0.908601 0.031114 0.802996 0.169557
H24   H     H_    0.588207 0.238728 0.808030 0.116871
H25   H     H_    0.596975 0.140743 0.699335 0.100188
H26   H     H_    0.312514 0.437557 0.701510 0.170437
H27   H     H_    0.220407 0.738659 0.815845 0.085953
I1    I     I_    0.972699 0.121447 0.654896 -0.337595
I2    I     I_    0.229505 0.364413 0.847096 -0.374272
I3    I     I_    0.522656 0.924693 0.215774 -0.364422
I4    I     I_    0.831328 0.007439 0.291355 -0.342190
I5    I     I_    0.837260 0.788130 0.624080 -0.410336
O1    O     O_R   0.507110 0.256280 0.580300 -0.514697
O2    O     O_R   0.837080 0.593860 0.915300 -0.500889
O3    O     O_R   0.064770 0.636080 0.932550 -0.463321
O4    O     O_R   0.280830 0.527190 0.577940 -0.492527
O5    O     O_R   0.068250 0.829200 0.092940 -0.492814
O6    O     O_R   0.799650 0.057040 0.080330 -0.488685
O7    O     O_R   0.586130 0.079760 0.077080 -0.493989
O8    O     O_R   0.627700 0.809630 0.066580 -0.469347
O9    O     O_R   0.816140 0.597180 0.075920 -0.517696
O10   O     O_R   0.045360 0.639170 0.081440 -0.525187
O11   O     O_3   0.833980 0.833750 0.001700 -0.294162
O12   O     O_R   0.524640 0.695370 0.425100 -0.494219
O13   O     O_R   0.261360 0.738990 0.584270 -0.487861
O14   O     O_R   0.532590 0.694780 0.574370 -0.505942
O15   O     O_R   0.744470 0.503750 0.577000 -0.503665
O16   O     O_R   0.698520 0.277230 0.571620 -0.465527
O17   O     O_R   0.498530 0.256920 0.419280 -0.509466
O18   O     O_R   0.272880 0.527780 0.428680 -0.505704
O19   O     O_R   0.252780 0.739630 0.423250 -0.485714
O20   O     O_R   0.735890 0.504390 0.415980 -0.502541
O21   O     O_R   0.690560 0.277820 0.422350 -0.479855
O22   O     O_3   0.499990 0.499990 0.499980 -0.288823
O23   O     O_R   0.089190 0.825870 0.932320 -0.520277
O24   O     O_R   0.819070 0.053960 0.931440 -0.499191
O25   O     O_R   0.607070 0.076440 0.916460 -0.495355
O26   O     O_R   0.647110 0.806550 0.917690 -0.506017

loop_
_geom_bond_atom_site_label_1
_geom_bond_atom_site_label_2
_ccdc_geom_bond_type
C28   O19   A    
C34   C37   S    
C35   C36   S    
Cr3   O20   S    
C20   H10   S    
Cr4   O5    S    
C3    H3    S    
C6    I2    S    
Cr6   O11   S    
C12   C23   S    
C15   H7    S    
Cr3   O21   S    
C21   H13   S    
C3    C7    D    
C26   O7    A    
C5    C6    D    
C12   H18   S    
Cr1   O18   S    
Cr1   O4    S    
C18   C21   D    
Cr3   O16   S    
Cr2   O13   S    
C12   C37   S    
C29   O10   A    
Cr5   O25   S    
C24   O2    A    
C19   C20   D    
C33   H16   S    
C1    C3    S    
C26   O6    A    
C23   C24   S    
C9    I3    S    
C31   O21   A    
Cr5   O11   S    
C9    C10   D    
C8    H6    S    
Cr2   O14   S    
C37   H12   S    
C2    I1    S    
C30   O12   A    
C14   H9    S    
C1    O13   A    
C25   O3    A    
C32   H2    S    
Cr6   O10   S    
C13   I4    S    
C40   H23   S    
C18   C28   S    
Cr3   O22   S    
Cr2   O19   S    
C7    H26   S    
Cr4   O24   S    
C1    O4    A    
C22   O25   A    
C24   O26   A    
C27   O8    A    
Cr5   O7    S    
Cr5   O26   S    
Cr2   O22   S    
Cr6   O3    S    
C2    C38   D    
C35   H21   S    
C37   H20   S    
C33   C34   S    
Cr1   O22   S    
C14   C26   S    
C27   O9    A    
C5    C25   S    
C23   C35   S    
C32   H1    S    
C19   C29   S    
C39   C40   D    
C9    C27   S    
Cr6   O9    S    
C15   C17   S    
C38   H25   S    
C33   H11   S    
C13   C31   S    
Cr4   O6    S    
Cr1   O1    S    
Cr4   O23   S    
C36   H22   S    
C18   H15   S    
C29   O5    A    
C6    C7    S    
C19   H14   S    
C12   H19   S    
C30   O20   A    
C16   O16   A    
C22   O24   A    
C13   C17   D    
C28   O18   A    
C16   O1    A    
C8    C30   S    
C23   C32   S    
Cr5   O8    S    
C36   I5    S    
C32   C33   S    
Cr6   O2    S    
C25   O23   A    
Cr1   O17   S    
C8    C11   D    
C31   O17   A    
C22   C39   S    
Cr3   O15   S    
C39   H24   S    
C34   C36   S    
C4    C34   S    
C5    H27   S    
C11   H5    S    
C10   C11   S    
C4    O15   A    
C2    C40   S    
C20   C21   S    
C14   C15   D    
C35   H17   S    
Cr2   O12   S    
C17   H8    S    
Cr4   O11   S    
C16   C38   S    
C4    O14   A    
C10   H4    S    
