data_mof_unit_67986.cif
_audit_creation_date              2012-12-10T20:52:12-0500
_audit_creation_method            fapswitch 2.2
_symmetry_space_group_name_H-M    P1
_symmetry_Int_Tables_number       1
_space_group_crystal_system       triclinic
_cell_length_a                    10.927784
_cell_length_b                    9.084412
_cell_length_c                    8.272054
_cell_angle_alpha                 90.651356
_cell_angle_beta                  92.453644
_cell_angle_gamma                 90.590426
_cell_volume                      820.333660068

loop_
_atom_site_label
_atom_site_type_symbol
_atom_type_description
_atom_site_fract_x
_atom_site_fract_y
_atom_site_fract_z
_atom_type_partial_charge
C1    C     C_R   0.499760 0.218385 0.499375 0.912501
C2    C     C_R   0.740358 0.498214 0.503380 0.856904
C3    C     C_R   0.221367 0.515212 0.996583 0.517442
C4    C     C_R   0.780907 0.489834 0.008934 0.581875
C5    C     C_R   0.136994 0.532089 0.117450 -0.228127
C6    C     C_R   0.857306 0.470024 0.879337 -0.272863
C7    C     C_R   0.103288 0.410467 0.207555 -0.046937
C8    C     C_R   0.896810 0.591793 0.792958 0.003316
C9    C     C_R   0.131110 0.266344 0.157611 -0.025028
C10   C     C_R   0.881556 0.736892 0.852279 0.013494
C11   C     C_R   0.192155 0.249232 0.011801 -0.047173
C12   C     C_R   0.500121 0.781613 0.500600 0.928074
C13   C     C_R   0.823116 0.753228 0.999962 -0.119452
C14   C     C_R   0.244926 0.371935 0.942551 -0.297096
C15   C     C_R   0.762954 0.633659 0.064107 -0.260192
C16   C     C_R   0.929236 0.434124 0.376570 -0.255740
C17   C     C_R   0.071201 0.565589 0.624912 -0.136510
C18   C     C_3   0.305907 0.750856 0.036784 0.115899
C19   C     C_3   0.408269 0.848325 0.976507 -0.756895
C20   C     C_3   0.747978 0.232852 0.045720 0.059048
C21   C     C_3   0.671202 0.169948 0.902629 -0.807685
C22   C     C_2   0.108037 0.140453 0.265758 0.549102
C23   C     C_R   0.873376 0.494921 0.508598 -0.091772
C24   C     C_2   0.911811 0.869771 0.756574 0.487534
C25   C     C_2   0.198437 0.109476 0.920989 0.453496
C26   C     C_2   0.825921 0.889315 0.097706 0.347361
C27   C     C_R   0.126812 0.505708 0.492092 -0.099742
C28   C     C_R   0.945970 0.558001 0.636155 0.093607
C29   C     C_R   0.054126 0.443365 0.364441 -0.001592
C30   C     C_1   0.499857 0.065003 0.499159 -0.191076
C31   C     C_1   0.499996 0.934991 0.500783 -0.193119
C32   C     C_R   0.259709 0.502154 0.496741 0.872202
H1    H     H_    0.306932 0.351535 0.848377 0.189581
H2    H     H_    0.418330 0.948859 0.053824 0.205711
H3    H     H_    0.496778 0.789660 0.982029 0.234457
H4    H     H_    0.726144 0.167649 0.153385 0.182787
H5    H     H_    0.847820 0.220330 0.031507 0.164140
H6    H     H_    0.697607 0.222343 0.788945 0.254703
H7    H     H_    0.684978 0.049830 0.890519 0.186987
H8    H     H_    0.572569 0.188488 0.921754 0.270045
H9    H     H_    0.038493 0.147788 0.355158 0.069959
H10   H     H_    0.883441 0.977757 0.796141 0.102616
H11   H     H_    0.270407 0.092897 0.836575 0.039232
H12   H     H_    0.701615 0.656250 0.158803 0.188863
H13   H     H_    0.752214 0.912583 0.177818 0.058283
H14   H     H_    0.109452 0.640541 0.156450 0.169839
H15   H     H_    0.874272 0.361983 0.829604 0.137824
H16   H     H_    0.876009 0.379942 0.281637 0.185270
H17   H     H_    0.124716 0.619250 0.720533 0.216675
H18   H     H_    0.334784 0.711223 0.158386 0.183978
H19   H     H_    0.223112 0.817548 0.048788 0.230341
H20   H     H_    0.387032 0.880758 0.849682 0.262279
N1    N     N_1   0.500020 0.500030 0.073640 -0.011472
N2    N     N_1   0.499980 0.499970 0.926360 -0.000458
O1    O     O_R   0.499990 0.285340 0.636850 -0.653518
O2    O     O_3   0.713765 0.378447 0.079965 -0.617931
O3    O     O_2   0.169793 0.029406 0.261136 -0.564226
O4    O     O_2   0.966874 0.861815 0.631590 -0.573946
O5    O     O_2   0.117349 0.017410 0.927644 -0.531258
O6    O     O_2   0.915165 0.970396 0.100418 -0.564755
O7    O     O_R   0.500010 0.714660 0.363150 -0.657280
O8    O     O_R   0.500010 0.285350 0.363100 -0.593598
O9    O     O_R   0.499990 0.714650 0.636900 -0.604134
O10   O     O_R   0.316750 0.500000 0.636870 -0.602279
O11   O     O_R   0.683250 0.500000 0.363130 -0.598148
O12   O     O_R   0.316770 0.500020 0.363120 -0.636312
O13   O     O_R   0.683230 0.499980 0.636880 -0.628205
O14   O     O_3   0.280535 0.633554 0.926061 -0.621613
Zn1   Zn    Zn3+2 0.499990 0.499990 0.682780 0.983331
Zn2   Zn    Zn3+2 0.500010 0.500010 0.317220 0.981372

loop_
_geom_bond_atom_site_label_1
_geom_bond_atom_site_label_2
_ccdc_geom_bond_type
O7    Zn2   S    
C18   H19   S    
N1    N2    T    
C7    C29   S    
C27   C29   A    
C24   H10   S    
C5    H14   S    
O12   Zn2   S    
C3    O14   S    
C21   H7    S    
C18   H18   S    
C20   O2    S    
C2    O11   A    
C1    O8    A    
C16   H16   S    
C4    C15   A    
C1    O1    A    
C4    C6    A    
C19   H3    S    
O10   Zn1   S    
C4    O2    S    
O13   Zn1   S    
C20   H5    S    
C3    C14   A    
O8    Zn2   S    
O1    Zn1   S    
N2    Zn1   S    
C14   H1    S    
C27   C32   S    
N1    Zn2   S    
C9    C11   A    
C22   O3    D    
C32   O12   A    
C25   H11   S    
C15   H12   S    
C18   C19   S    
C16   C23   A    
C21   H8    S    
C13   C15   A    
C12   C31   S    
C30   C31   T    
C8    C28   S    
C11   C14   A    
C13   C26   S    
C22   H9    S    
C6    H15   S    
C11   C25   S    
C18   O14   S    
O11   Zn2   S    
C17   C27   A    
C7    C9    A    
C12   O7    A    
C20   C21   S    
C32   O10   A    
C24   O4    D    
C2    O13   A    
C17   H17   S    
C2    C23   S    
C5    C7    A    
C12   O9    A    
C9    C22   S    
C1    C30   S    
C6    C8    A    
C25   O5    D    
C26   H13   S    
C10   C24   S    
C16   C29   A    
C23   C28   A    
C17   C28   A    
C26   O6    D    
C19   H20   S    
C19   H2    S    
C8    C10   A    
C21   H6    S    
O9    Zn1   S    
C3    C5    A    
C10   C13   A    
C20   H4    S    
