data_mof_unit_50458.cif
_audit_creation_date              2012-12-11T16:08:29-0500
_audit_creation_method            fapswitch 2.2
_symmetry_space_group_name_H-M    P1
_symmetry_Int_Tables_number       1
_space_group_crystal_system       triclinic
_cell_length_a                    12.980791
_cell_length_b                    13.277263
_cell_length_c                    27.724683
_cell_angle_alpha                 95.010028
_cell_angle_beta                  90.105443
_cell_angle_gamma                 119.337669
_cell_volume                      4144.10039824

loop_
_atom_site_label
_atom_site_type_symbol
_atom_type_description
_atom_site_fract_x
_atom_site_fract_y
_atom_site_fract_z
_atom_type_partial_charge
C1    C     C_R   0.627855 0.895183 0.427458 0.547221
C2    C     C_R   0.190141 0.752014 0.297600 0.008416
C3    C     C_R   0.177169 0.747313 0.197123 0.009850
C4    C     C_R   0.600912 0.221672 0.440463 0.545214
C5    C     C_R   0.191361 0.662528 0.218145 -0.131751
C6    C     C_R   0.195816 0.663757 0.268220 -0.133940
C7    C     C_R   0.161173 0.739626 0.147291 -0.130185
C8    C     C_R   0.127986 0.812733 0.126602 -0.006159
C9    C     C_R   0.197128 0.938715 0.356824 -0.137272
C10   C     C_R   0.178255 0.931194 0.306606 0.010892
C11   C     C_R   0.179489 0.839827 0.276896 0.060565
C12   C     C_R   0.580983 0.255404 0.219797 -0.104793
C13   C     C_R   0.163497 0.015659 0.285312 -0.134125
C14   C     C_R   0.148993 0.008875 0.234933 -0.133073
C15   C     C_R   0.152279 0.919338 0.205284 0.010365
C16   C     C_R   0.269500 0.876062 0.425449 0.546317
C17   C     C_R   0.170616 0.836171 0.226420 0.059757
C18   C     C_R   0.130340 0.906770 0.155151 -0.136428
C19   C     C_R   0.213579 0.853903 0.377003 -0.004385
C20   C     C_R   0.753683 0.935413 0.357896 -0.129253
C21   C     C_R   0.759594 0.925901 0.307977 0.012608
C22   C     C_R   0.762794 0.915394 0.207296 0.011961
C23   C     C_R   0.569578 0.239494 0.269103 -0.102874
C24   C     C_R   0.854949 0.008769 0.235689 -0.126943
C25   C     C_R   0.854284 0.013072 0.285880 -0.126084
C26   C     C_R   0.767154 0.907547 0.157396 -0.127129
C27   C     C_R   0.685716 0.805873 0.129027 -0.005654
C28   C     C_R   0.627587 0.898312 0.564649 0.547036
C29   C     C_R   0.561586 0.759656 0.352017 -0.133297
C30   C     C_R   0.568686 0.745890 0.301840 0.014390
C31   C     C_R   0.665886 0.831951 0.279657 0.062101
C32   C     C_R   0.477614 0.651528 0.273193 -0.126936
C33   C     C_R   0.482997 0.642517 0.222758 -0.126864
C34   C     C_R   0.663309 0.311764 0.302784 0.035960
C35   C     C_R   0.578081 0.729244 0.200414 0.014671
C36   C     C_R   0.668596 0.825590 0.229102 0.062332
C37   C     C_R   0.587981 0.719075 0.150200 -0.135744
C38   C     C_R   0.651151 0.857918 0.379626 -0.005094
C39   C     C_R   0.741783 0.301155 0.651382 -0.138941
C40   C     C_R   0.603268 0.227641 0.578338 0.545402
C41   C     C_R   0.755624 0.324417 0.701860 0.006683
C42   C     C_R   0.770907 0.352474 0.803748 0.005849
C43   C     C_R   0.861462 0.347447 0.777969 -0.140803
C44   C     C_R   0.853109 0.331960 0.727296 -0.140707
C45   C     C_R   0.686473 0.343351 0.203812 0.035456
C46   C     C_R   0.779334 0.371274 0.854385 -0.138426
C47   C     C_R   0.688753 0.378789 0.879249 -0.005744
C48   C     C_R   0.560270 0.312315 0.652481 -0.135117
C49   C     C_R   0.569439 0.329344 0.702621 0.001518
C50   C     C_R   0.666315 0.333425 0.727588 0.057301
C51   C     C_R   0.478914 0.334500 0.728124 -0.144398
C52   C     C_R   0.271819 0.879498 0.563439 0.546973
C53   C     C_R   0.482688 0.340746 0.778396 -0.143618
C54   C     C_R   0.578770 0.345394 0.803554 0.001355
C55   C     C_R   0.672048 0.343616 0.778310 0.056515
C56   C     C_1   0.695023 0.366739 0.153762 -0.058253
C57   C     C_R   0.585503 0.357654 0.853716 -0.133319
C58   C     C_R   0.640592 0.288755 0.627025 -0.006742
C59   C     C_1   0.222204 0.863061 0.610172 -0.012603
C60   C     C_R   0.077432 0.746197 0.718042 -0.103621
C61   C     C_R   0.062423 0.736125 0.767657 -0.103479
C62   C     C_R   0.232515 0.928096 0.786028 -0.104786
C63   C     C_R   0.247474 0.938211 0.736381 -0.104398
C64   C     C_1   0.632261 0.267346 0.394397 -0.014568
C65   C     C_R   0.170314 0.847082 0.702284 0.036016
C66   C     C_R   0.140538 0.826566 0.801762 0.036363
C67   C     C_1   0.650115 0.292663 0.353314 -0.058591
C68   C     C_1   0.123654 0.814276 0.852659 -0.058187
C69   C     C_1   0.193373 0.854168 0.651572 -0.057480
C70   C     C_1   0.100286 0.797142 0.894256 -0.014258
C71   C     C_1   0.647540 0.860941 0.608997 -0.014506
C72   C     C_R   0.696288 0.906266 0.734889 -0.104133
C73   C     C_R   0.706673 0.889501 0.783252 -0.102158
C74   C     C_R   0.676712 0.696907 0.758239 -0.106626
C75   C     C_R   0.666086 0.713678 0.709645 -0.105315
C76   C     C_R   0.769280 0.399116 0.286798 -0.106150
C77   C     C_R   0.675947 0.818620 0.697954 0.036843
C78   C     C_1   0.703478 0.394483 0.113047 -0.014331
C79   C     C_R   0.696633 0.784857 0.795109 0.036437
C80   C     C_1   0.710111 0.770266 0.845113 -0.058516
C81   C     C_1   0.661498 0.837406 0.648640 -0.057776
C82   C     C_1   0.724950 0.761841 0.887172 -0.011329
C83   C     C_R   0.065532 0.773236 0.079020 0.549734
C84   C     C_R   0.717030 0.441486 0.067310 0.548902
C85   C     C_R   0.720603 0.782868 0.081062 0.558262
C86   C     C_R   0.056491 0.766208 0.941226 0.538405
C87   C     C_R   0.710243 0.434145 0.928940 0.536855
C88   C     C_R   0.780695 0.415051 0.237424 -0.104331
C89   C     C_R   0.201104 0.756756 0.347445 -0.130274
C90   C     C_R   0.748471 0.754406 0.936896 0.563443
Cr1   Cr    Cr6+3 0.416430 0.829200 0.492370 1.021413
Cr2   Cr    Cr6+3 0.674630 0.087020 0.504170 1.021194
Cr3   Cr    Cr6+3 0.408920 0.083740 0.503490 1.021222
Cr4   Cr    Cr6+3 0.914010 0.832750 0.013970 1.016942
Cr5   Cr    Cr6+3 0.922310 0.578600 0.003000 1.017041
Cr6   Cr    Cr6+3 0.656280 0.574630 0.003870 1.021134
H1    H     H_    0.842557 0.455063 0.312412 0.112077
H2    H     H_    0.412795 0.568146 0.201265 0.103580
H3    H     H_    0.402406 0.584883 0.289782 0.099859
H4    H     H_    0.862291 0.484241 0.225549 0.119383
H5    H     H_    0.482855 0.698766 0.368912 0.122560
H6    H     H_    0.858883 0.386816 0.874043 0.128987
H7    H     H_    0.804996 0.284792 0.631649 0.127447
H8    H     H_    0.938100 0.354538 0.796979 0.113514
H9    H     H_    0.922466 0.325395 0.708032 0.112817
H10   H     H_    0.514298 0.361651 0.872605 0.137783
H11   H     H_    0.411344 0.343499 0.797620 0.113651
H12   H     H_    0.134868 0.073271 0.219183 0.101578
H13   H     H_    0.403791 0.330655 0.709159 0.113110
H14   H     H_    0.483277 0.305488 0.633800 0.135701
H15   H     H_    0.017974 0.674787 0.692088 0.113736
H16   H     H_    0.990524 0.657397 0.779443 0.117794
H17   H     H_    0.292997 0.998760 0.812020 0.114416
H18   H     H_    0.320338 0.016246 0.724589 0.120154
H19   H     H_    0.703561 0.987531 0.726291 0.117278
H20   H     H_    0.669450 0.615797 0.767032 0.122065
H21   H     H_    0.649816 0.645083 0.681398 0.113395
H22   H     H_    0.487395 0.171173 0.281007 0.120335
H23   H     H_    0.162261 0.086255 0.307592 0.104690
H24   H     H_    0.162063 0.668457 0.125235 0.132967
H25   H     H_    0.211698 0.689665 0.362687 0.131325
H26   H     H_    0.195779 0.593595 0.195880 0.104240
H27   H     H_    0.205346 0.596709 0.283985 0.099610
H28   H     H_    0.106348 0.964473 0.139071 0.123804
H29   H     H_    0.507109 0.200299 0.194302 0.114466
H30   H     H_    0.722642 0.958216 0.811407 0.116357
H31   H     H_    0.205647 0.013258 0.379648 0.123262
H32   H     H_    0.841696 0.976290 0.141270 0.132359
H33   H     H_    0.824044 0.010276 0.379190 0.132223
H34   H     H_    0.928413 0.077363 0.219079 0.099702
H35   H     H_    0.926303 0.085827 0.307380 0.102847
H36   H     H_    0.524267 0.641087 0.128252 0.124238
O1    O     O_R   0.296680 0.802170 0.437540 -0.524703
O2    O     O_R   0.637200 0.461990 0.052510 -0.508863
O3    O     O_R   0.664790 0.681920 0.057970 -0.494479
O4    O     O_R   0.525380 0.838530 0.443500 -0.503564
O5    O     O_R   0.815840 0.852920 0.961840 -0.503982
O6    O     O_R   0.012100 0.822630 0.963670 -0.511549
O7    O     O_R   0.037010 0.668460 0.953040 -0.508130
O8    O     O_R   0.813390 0.478970 0.949660 -0.503676
O9    O     O_R   0.632250 0.456930 0.945520 -0.527828
O10   O     O_R   0.660200 0.677230 0.958780 -0.491824
O11   O     O_3   0.830870 0.661990 0.006950 -0.264641
O12   O     O_R   0.662610 0.183990 0.557860 -0.502070
O13   O     O_R   0.702130 0.995190 0.446810 -0.519666
O14   O     O_R   0.661770 0.181390 0.458760 -0.494438
O15   O     O_R   0.499820 0.198480 0.455280 -0.510346
O16   O     O_R   0.311660 0.976250 0.449080 -0.500137
O17   O     O_R   0.297580 0.804960 0.544440 -0.507017
O18   O     O_R   0.526220 0.841130 0.542590 -0.494207
O19   O     O_R   0.703030 0.997990 0.553710 -0.510602
O20   O     O_R   0.500730 0.201280 0.562180 -0.520042
O21   O     O_R   0.312500 0.978850 0.548170 -0.494727
O22   O     O_3   0.499990 0.999990 0.500010 -0.242235
O23   O     O_R   0.820790 0.857990 0.068830 -0.519770
O24   O     O_R   0.016700 0.827330 0.062850 -0.501943
O25   O     O_R   0.041970 0.673520 0.060040 -0.516992
O26   O     O_R   0.817980 0.483660 0.048840 -0.491325

loop_
_geom_bond_atom_site_label_1
_geom_bond_atom_site_label_2
_ccdc_geom_bond_type
C15   C18   A    
C66   C68   S    
C63   C65   A    
C28   O18   A    
Cr5   O26   S    
C1    O13   A    
C35   C36   A    
C75   H21   S    
C20   H33   S    
C23   H22   S    
C7    C8    A    
C39   C41   A    
C44   H9    S    
Cr5   O11   S    
C62   H17   S    
C46   H6    S    
C12   C23   A    
C84   O2    A    
Cr5   O8    S    
C29   C30   A    
Cr4   O11   S    
Cr3   O22   S    
C35   C37   A    
C3    C7    A    
C31   C36   A    
C42   C46   A    
C30   C31   A    
C2    C11   A    
C73   H30   S    
C8    C83   S    
C56   C78   T    
C40   O20   A    
Cr3   O16   S    
C15   C17   A    
C33   H2    S    
C85   O23   A    
C27   C85   S    
C43   H8    S    
C21   C25   A    
Cr6   O9    S    
C46   C47   A    
C63   H18   S    
C61   C66   A    
C9    C19   A    
Cr1   O4    S    
C45   C56   S    
Cr4   O23   S    
C49   C51   A    
Cr1   O1    S    
C29   C38   A    
Cr3   O15   S    
C1    O4    A    
C9    C10   A    
C87   O8    A    
C72   C73   A    
C62   C63   A    
C14   H12   S    
C57   H10   S    
C74   H20   S    
C51   H13   S    
C13   C14   A    
C2    C6    A    
C6    H27   S    
C16   O1    A    
C13   H23   S    
Cr6   O3    S    
C40   C58   S    
C74   C75   A    
C62   C66   A    
Cr2   O14   S    
C64   C67   T    
C45   C88   A    
C24   C25   A    
Cr1   O22   S    
C80   C82   T    
Cr1   O17   S    
C84   O26   A    
C52   O17   A    
Cr6   O2    S    
C83   O24   A    
C76   H1    S    
C53   C54   A    
C4    O15   A    
C5    H26   S    
C8    C18   A    
C60   C61   A    
C51   C53   A    
C47   C87   S    
C2    C89   A    
C43   C44   A    
C72   C77   A    
C19   C89   A    
C52   C59   S    
C24   H34   S    
C42   C55   A    
C47   C57   A    
C20   C38   A    
C53   H11   S    
C72   H19   S    
C77   C81   S    
C23   C34   A    
C4    O14   A    
C21   C31   A    
Cr2   O19   S    
C73   C79   A    
C29   H5    S    
C26   H32   S    
C87   O9    A    
C39   H7    S    
C75   C77   A    
C88   H4    S    
C1    C38   S    
C59   C69   T    
C86   O7    A    
C68   C70   T    
C48   C49   A    
C85   O3    A    
C60   C65   A    
C74   C79   A    
C40   O12   A    
C26   C27   A    
Cr4   O6    S    
C41   C44   A    
C22   C24   A    
C28   C71   S    
C42   C43   A    
C70   C86   S    
C41   C50   A    
C90   O5    A    
C9    H31   S    
C76   C88   A    
C54   C55   A    
C11   C17   A    
Cr2   O13   S    
Cr5   O25   S    
C7    H24   S    
C12   C45   A    
C3    C5    A    
C10   C13   A    
C34   C67   S    
Cr1   O18   S    
C83   O25   A    
C37   H36   S    
C48   C58   A    
C12   H29   S    
C90   O10   A    
C22   C36   A    
C4    C64   S    
Cr5   O7    S    
C50   C55   A    
C82   C90   S    
C32   H3    S    
C16   O16   A    
C32   C33   A    
Cr3   O21   S    
C52   O21   A    
C60   H15   S    
Cr6   O11   S    
C30   C32   A    
C39   C58   A    
C5    C6    A    
C89   H25   S    
C27   C37   A    
C16   C19   S    
C65   C69   S    
C33   C35   A    
C3    C17   A    
Cr2   O12   S    
C10   C11   A    
C86   O6    A    
Cr6   O10   S    
C79   C80   S    
C78   C84   S    
C20   C21   A    
C28   O19   A    
Cr4   O24   S    
C49   C50   A    
C22   C26   A    
C34   C76   A    
Cr4   O5    S    
C14   C15   A    
Cr3   O20   S    
Cr2   O22   S    
C48   H14   S    
C61   H16   S    
C18   H28   S    
C71   C81   T    
C54   C57   A    
C25   H35   S    
