data_mof_unit_49988.cif
_audit_creation_date              2012-12-10T17:04:24-0500
_audit_creation_method            fapswitch 2.2
_symmetry_space_group_name_H-M    P1
_symmetry_Int_Tables_number       1
_space_group_crystal_system       triclinic
_cell_length_a                    15.156564
_cell_length_b                    15.167265
_cell_length_c                    15.99406
_cell_angle_alpha                 89.827738
_cell_angle_beta                  90.585564
_cell_angle_gamma                 90.464441
_cell_volume                      3676.44393364

loop_
_atom_site_label
_atom_site_type_symbol
_atom_type_description
_atom_site_fract_x
_atom_site_fract_y
_atom_site_fract_z
_atom_type_partial_charge
C1    C     C_R   0.259760 0.484458 0.488235 0.526996
C2    C     C_R   0.977906 0.458295 0.478845 0.009187
C3    C     C_R   0.019201 0.532031 0.517142 0.001448
C4    C     C_R   0.739418 0.515220 0.512763 0.482523
C5    C     C_R   0.110965 0.539662 0.519057 -0.183023
C6    C     C_R   0.123271 0.401290 0.444482 0.249388
C7    C     C_R   0.031521 0.393501 0.442672 -0.125313
C8    C     C_R   0.526370 0.163219 0.509423 -0.028335
C9    C     C_R   0.481695 0.834181 0.483195 -0.009215
C10   C     C_R   0.423134 0.962416 0.412207 0.265194
C11   C     C_R   0.416248 0.872164 0.433212 0.187599
C12   C     C_1   0.472768 0.512746 0.886420 -0.019815
C13   C     C_R   0.540424 0.886153 0.530514 0.229637
C14   C     C_R   0.539511 0.978587 0.520596 -0.035483
C15   C     C_R   0.481344 0.017092 0.460071 -0.078824
C16   C     C_R   0.515096 0.259600 0.510855 0.520196
C17   C     C_R   0.481808 0.110044 0.450155 0.283212
C18   C     C_R   0.585575 0.124792 0.565677 -0.193094
C19   C     C_R   0.594800 0.033330 0.570738 0.276016
C20   C     C_R   0.486995 0.739184 0.486960 0.577553
C21   C     C_R   0.512779 0.488289 0.277342 0.499554
C22   C     C_R   0.487338 0.511191 0.722586 0.496210
C23   C     C_1   0.524623 0.481912 0.113466 -0.020965
C24   C     C_1   0.518352 0.483667 0.188342 -0.017291
C25   C     C_2   0.532809 0.482013 0.022914 0.289274
C26   C     C_2   0.464162 0.511980 0.976970 0.286915
C27   C     C_3   0.319690 0.569653 0.965042 0.007229
C28   C     C_3   0.332497 0.666141 0.938470 -0.265718
C29   C     C_3   0.258977 0.695559 0.879043 -0.487481
C30   C     C_3   0.363530 0.954102 0.274372 0.026614
C31   C     C_3   0.452630 0.921585 0.240147 -0.276315
C32   C     C_3   0.442115 0.887763 0.150779 -0.479957
C33   C     C_3   0.663016 0.025198 0.702295 0.008712
C34   C     C_1   0.479873 0.512631 0.811581 -0.013820
C35   C     C_3   0.749387 0.073886 0.722486 -0.263653
C36   C     C_3   0.752947 0.103221 0.813634 -0.485260
C37   C     C_3   0.267384 0.839919 0.433991 0.002003
C38   C     C_3   0.249350 0.785519 0.512888 -0.254909
C39   C     C_3   0.156184 0.800533 0.544939 -0.504573
C40   C     C_3   0.559595 0.809133 0.657412 0.019316
C41   C     C_3   0.481700 0.860719 0.694529 -0.278063
C42   C     C_3   0.451435 0.819201 0.776456 -0.488473
C43   C     C_3   0.682351 0.439000 0.034023 0.006763
C44   C     C_3   0.728456 0.526975 0.054218 -0.266833
C45   C     C_R   0.163430 0.474797 0.483677 0.028192
C46   C     C_3   0.808854 0.513217 0.110777 -0.485455
C47   C     C_3   0.179153 0.336141 0.328367 0.013131
C48   C     C_3   0.248932 0.270728 0.299968 -0.219225
C49   C     C_3   0.263761 0.276168 0.205892 -0.496030
C50   C     C_3   0.821475 0.664952 0.594277 -0.245515
C51   C     C_3   0.873346 0.739711 0.637941 -0.319813
C52   C     C_3   0.811661 0.806273 0.677564 -0.436932
C53   C     C_3   0.837630 0.373781 0.435577 -0.254400
C54   C     C_3   0.831577 0.388631 0.340771 -0.306719
C55   C     C_3   0.787746 0.310227 0.297107 -0.464992
C56   C     C_R   0.835368 0.519401 0.515977 0.051862
C57   C     C_3   0.491381 0.145276 0.310657 0.025745
C58   C     C_3   0.521841 0.237115 0.284065 -0.258248
C59   C     C_3   0.575162 0.233866 0.203779 -0.504965
C60   C     C_R   0.969293 0.597939 0.553925 -0.112411
C61   C     C_R   0.877079 0.593141 0.554036 -0.017947
C62   C     C_R   0.884695 0.451271 0.478424 -0.010677
H1    H     H_    0.626675 0.166512 0.604873 0.145049
H2    H     H_    0.268468 0.766170 0.862783 0.142095
H3    H     H_    0.193658 0.687430 0.909105 0.142599
H4    H     H_    0.335561 0.000939 0.227811 0.128911
H5    H     H_    0.314744 0.899459 0.276907 0.171328
H6    H     H_    0.502203 0.975586 0.240621 0.135610
H7    H     H_    0.478640 0.866795 0.279063 0.182728
H8    H     H_    0.393621 0.832475 0.148478 0.157042
H9    H     H_    0.506562 0.863590 0.128166 0.150108
H10   H     H_    0.419476 0.941561 0.108654 0.135788
H11   H     H_    0.659626 0.965370 0.742404 0.145648
H12   H     H_    0.141754 0.596363 0.548826 0.127595
H13   H     H_    0.605330 0.066455 0.719445 0.105917
H14   H     H_    0.805877 0.029581 0.710368 0.167937
H15   H     H_    0.756149 0.132717 0.681491 0.164399
H16   H     H_    0.698083 0.149144 0.826710 0.156090
H17   H     H_    0.816489 0.137821 0.826375 0.148679
H18   H     H_    0.748027 0.045191 0.855925 0.139543
H19   H     H_    0.216122 0.823205 0.386354 0.141826
H20   H     H_    0.259780 0.911501 0.447613 0.157455
H21   H     H_    0.257285 0.714422 0.498681 0.206578
H22   H     H_    0.297419 0.804340 0.562689 0.165986
H23   H     H_    0.003764 0.653013 0.582367 0.102097
H24   H     H_    0.146465 0.871352 0.559414 0.151871
H25   H     H_    0.145968 0.761497 0.602933 0.139687
H26   H     H_    0.106510 0.779145 0.497471 0.145383
H27   H     H_    0.611504 0.804890 0.706642 0.133183
H28   H     H_    0.540240 0.739880 0.644819 0.147022
H29   H     H_    0.501577 0.930140 0.706248 0.159292
H30   H     H_    0.424709 0.860395 0.650367 0.144727
H31   H     H_    0.429053 0.750189 0.765688 0.165208
H32   H     H_    0.395596 0.857417 0.801753 0.142661
H33   H     H_    0.506059 0.819672 0.823290 0.136587
H34   H     H_    0.004234 0.335315 0.413267 0.118353
H35   H     H_    0.729511 0.397495 0.999246 0.154792
H36   H     H_    0.666481 0.400984 0.091500 0.115692
H37   H     H_    0.749737 0.558967 0.995067 0.167899
H38   H     H_    0.682262 0.572024 0.086032 0.164097
H39   H     H_    0.788346 0.483965 0.171309 0.149382
H40   H     H_    0.841633 0.577650 0.123219 0.148455
H41   H     H_    0.856843 0.468940 0.080354 0.141320
H42   H     H_    0.199130 0.403527 0.307132 0.136470
H43   H     H_    0.114560 0.318129 0.299059 0.110555
H44   H     H_    0.312252 0.285138 0.332985 0.231653
H45   H     H_    0.257621 0.564963 0.001196 0.150284
H46   H     H_    0.227784 0.202625 0.316682 0.188499
H47   H     H_    0.201337 0.261888 0.171368 0.141331
H48   H     H_    0.313802 0.226922 0.187619 0.145043
H49   H     H_    0.288291 0.342869 0.188387 0.162872
H50   H     H_    0.769688 0.837581 0.628807 0.232870
H51   H     H_    0.769337 0.773354 0.724751 0.139256
H52   H     H_    0.851148 0.858596 0.709215 0.135563
H53   H     H_    0.916253 0.711786 0.688044 0.160079
H54   H     H_    0.914942 0.775209 0.591682 0.162276
H55   H     H_    0.778673 0.694754 0.545093 0.176835
H56   H     H_    0.309589 0.525214 0.910432 0.126441
H57   H     H_    0.777957 0.633154 0.641344 0.143936
H58   H     H_    0.827572 0.249838 0.306821 0.153918
H59   H     H_    0.720567 0.299064 0.322126 0.148464
H60   H     H_    0.782282 0.323538 0.228953 0.135029
H61   H     H_    0.792036 0.448664 0.327853 0.175285
H62   H     H_    0.898343 0.398942 0.314265 0.156155
H63   H     H_    0.870756 0.310720 0.450829 0.133024
H64   H     H_    0.770005 0.363294 0.459404 0.160716
H65   H     H_    0.449541 0.118868 0.259123 0.162413
H66   H     H_    0.550161 0.101576 0.316971 0.101944
H67   H     H_    0.332687 0.708744 0.994909 0.166566
H68   H     H_    0.462974 0.278564 0.272939 0.198716
H69   H     H_    0.563247 0.267028 0.334227 0.163530
H70   H     H_    0.634145 0.191701 0.212506 0.143210
H71   H     H_    0.597512 0.301408 0.187284 0.144236
H72   H     H_    0.533981 0.207526 0.151562 0.148170
H73   H     H_    0.396860 0.674966 0.906920 0.160250
H74   H     H_    0.260209 0.656198 0.820597 0.158082
O1    O     O_3   0.500000 0.500000 0.500000 -0.437787
O2    O     O_R   0.461330 0.435620 0.316920 -0.570219
O3    O     O_R   0.434750 0.558200 0.677930 -0.557226
O4    O     O_R   0.559650 0.545720 0.316320 -0.534204
O5    O     O_R   0.544270 0.460460 0.688830 -0.524809
O6    O     O_3   0.389260 0.542265 0.018618 -0.599383
O7    O     O_3   0.368214 0.000377 0.351836 -0.539685
O8    O     O_3   0.663283 0.997123 0.617822 -0.519919
O9    O     O_3   0.350481 0.818223 0.399893 -0.583117
O10   O     O_3   0.600139 0.847536 0.585832 -0.538427
O11   O     O_3   0.607807 0.451843 0.981391 -0.594007
O12   O     O_R   0.559890 0.307360 0.561630 -0.559667
O13   O     O_3   0.173394 0.331778 0.416358 -0.542613
O14   O     O_3   0.438484 0.149804 0.383371 -0.502903
O15   O     O_R   0.434610 0.697530 0.534530 -0.565848
O16   O     O_R   0.307380 0.433810 0.444990 -0.503021
O17   O     O_R   0.698130 0.561300 0.458860 -0.549439
O18   O     O_R   0.296270 0.542620 0.535390 -0.565588
O19   O     O_R   0.698230 0.462280 0.560770 -0.552265
O20   O     O_R   0.461480 0.296280 0.460320 -0.502152
O21   O     O_R   0.544020 0.698820 0.443520 -0.526606
Zn1   Zn    Zn3+2 0.574310 0.433680 0.576480 0.922174
Zn2   Zn    Zn3+2 0.433700 0.417860 0.431740 0.939739
Zn3   Zn    Zn3+2 0.574160 0.575160 0.430870 0.935354
Zn4   Zn    Zn3+2 0.417840 0.573310 0.560900 0.910600

loop_
_geom_bond_atom_site_label_1
_geom_bond_atom_site_label_2
_ccdc_geom_bond_type
C54   H61   S    
C55   H59   S    
C19   O8    S    
C6    C45   A    
C38   H21   S    
C28   H73   S    
C41   C42   S    
O18   Zn4   S    
C2    C7    A    
C43   H36   S    
C39   H25   S    
C57   H66   S    
C32   H10   S    
C31   C32   S    
C53   C54   S    
C7    H34   S    
C46   H40   S    
O1    Zn1   S    
C21   O2    A    
C28   C29   S    
C18   C19   A    
C10   C15   A    
C30   C31   S    
C44   H37   S    
C18   H1    S    
C52   H50   S    
C50   H55   S    
C27   O6    S    
C1    O16   A    
C28   H67   S    
C5    H12   S    
C9    C13   A    
C6    O13   S    
O2    Zn2   S    
C33   H13   S    
C48   H44   S    
C47   O13   S    
O15   Zn4   S    
C16   O20   A    
C23   C24   T    
C40   H27   S    
C30   H5    S    
C49   H49   S    
C3    C60   A    
C4    O17   A    
C29   H2    S    
C8    C16   S    
C13   C14   A    
C4    C56   S    
O19   Zn1   S    
C37   H19   S    
C39   H26   S    
C44   C46   S    
C32   H9    S    
C55   H58   S    
C33   O8    S    
C31   H6    S    
C22   C34   S    
C46   H39   S    
C35   H14   S    
O1    Zn2   S    
C51   C52   S    
O3    Zn4   S    
C36   H18   S    
C11   O9    S    
C32   H8    S    
C47   H43   S    
C25   C26   D    
C52   H51   S    
C5    C45   A    
C22   O3    A    
C35   H15   S    
C51   H53   S    
C30   O7    S    
C42   H33   S    
C12   C26   S    
C60   C61   A    
C35   C36   S    
C43   C44   S    
C37   C38   S    
C53   C62   S    
C9    C20   S    
C47   C48   S    
C14   C15   A    
C27   H45   S    
C58   H69   S    
C57   O14   S    
C29   H74   S    
C50   C51   S    
C53   H64   S    
C25   O11   S    
O12   Zn1   S    
C9    C11   A    
C30   H4    S    
C53   H63   S    
C29   H3    S    
C42   H31   S    
C33   H11   S    
C40   C41   S    
C41   H29   S    
O21   Zn3   S    
C20   O21   A    
C48   H46   S    
C56   C62   A    
C37   H20   S    
C12   C34   T    
C49   H47   S    
C27   H56   S    
C15   C17   A    
C54   H62   S    
C54   C55   S    
C48   C49   S    
C47   H42   S    
O1    Zn3   S    
C38   H22   S    
C42   H32   S    
C14   C19   A    
O20   Zn2   S    
C43   H35   S    
C3    C5    A    
C36   H17   S    
C57   H65   S    
C60   H23   S    
C6    C7    A    
C52   H52   S    
C46   H41   S    
C59   H72   S    
C51   H54   S    
C39   H24   S    
C20   O15   A    
C40   O10   S    
C16   O12   A    
C37   O9    S    
O17   Zn3   S    
C2    C3    A    
C58   C59   S    
C36   H16   S    
O4    Zn3   S    
C8    C17   A    
O1    Zn4   S    
C44   H38   S    
C59   H70   S    
C1    C45   S    
C57   C58   S    
C38   C39   S    
C58   H68   S    
C22   O5    A    
C33   C35   S    
C59   H71   S    
C10   O7    S    
C23   C25   S    
C1    O18   A    
C8    C18   A    
O16   Zn2   S    
C43   O11   S    
C10   C11   A    
C13   O10   S    
C50   H57   S    
O5    Zn1   S    
C31   H7    S    
C4    O19   A    
C41   H30   S    
C21   C24   S    
C27   C28   S    
C50   C61   S    
C56   C61   A    
C21   O4    A    
C40   H28   S    
C26   O6    S    
C55   H60   S    
C2    C62   A    
C49   H48   S    
C17   O14   S    
