data_mof_unit_64680.cif
_audit_creation_date              2012-12-10T17:00:09-0500
_audit_creation_method            fapswitch 2.2
_symmetry_space_group_name_H-M    P1
_symmetry_Int_Tables_number       1
_space_group_crystal_system       triclinic
_cell_length_a                    13.163739
_cell_length_b                    13.167858
_cell_length_c                    16.058321
_cell_angle_alpha                 80.259499
_cell_angle_beta                  100.413569
_cell_angle_gamma                 91.166231
_cell_volume                      2698.05680931

loop_
_atom_site_label
_atom_site_type_symbol
_atom_type_description
_atom_site_fract_x
_atom_site_fract_y
_atom_site_fract_z
_atom_type_partial_charge
C1    C     C_R   0.464398 0.777444 0.467780 0.516945
C2    C     C_2   0.055080 0.517864 0.493729 -0.146298
C3    C     C_2   0.888149 0.552050 0.530152 -0.101822
C4    C     C_R   0.536837 0.223272 0.532135 0.468155
C5    C     C_2   0.944537 0.498956 0.490515 -0.149400
C6    C     C_R   0.777073 0.533863 0.524119 0.514030
C7    C     C_R   0.223296 0.466169 0.475278 0.511409
C8    C     C_R   0.515694 0.487677 0.727021 0.507169
C9    C     C_R   0.484089 0.512408 0.273068 0.504960
C10   C     C_1   0.521777 0.482761 0.817708 0.026082
C11   C     C_2   0.532927 0.473802 0.984985 -0.116200
C12   C     C_1   0.472148 0.521805 0.106056 -0.038539
C13   C     C_2   0.465961 0.526707 0.014966 -0.115430
C14   C     C_2   0.602636 0.065807 0.637483 0.231175
C15   C     C_1   0.526843 0.478682 0.893910 -0.034123
C16   C     C_1   0.477477 0.517600 0.182299 0.020210
C17   C     C_2   0.552761 0.112032 0.548762 0.031945
C18   C     C_2   0.512965 0.058418 0.486245 -0.125867
C19   C     C_2   0.453870 0.889993 0.452916 -0.109062
C20   C     C_2   0.524501 0.946274 0.495288 -0.106683
C21   C     C_2   0.112438 0.452281 0.466678 -0.079366
H1    H     H_    0.405917 0.574183 0.971172 0.142847
H2    H     H_    0.648771 0.114386 0.677760 0.104278
H3    H     H_    0.078962 0.383432 0.444354 0.096322
H4    H     H_    0.592969 0.426338 0.028796 0.139861
H5    H     H_    0.591530 0.908761 0.538039 0.207929
H6    H     H_    0.468922 0.099109 0.426355 0.114173
H7    H     H_    0.387764 0.926784 0.408193 0.110201
H8    H     H_    0.908996 0.439561 0.455608 0.163316
H9    H     H_    0.090520 0.583439 0.520461 0.136062
H10   H     H_    0.923776 0.610266 0.566275 0.114415
O1    O     O_3   0.500000 0.500000 0.500000 -0.443236
O2    O     O_R   0.564890 0.556920 0.685230 -0.525996
O3    O     O_R   0.419250 0.562810 0.301190 -0.535278
O4    O     O_R   0.461010 0.422870 0.688230 -0.535944
O5    O     O_R   0.554850 0.457400 0.325340 -0.536333
O6    O     O_2   0.589384 0.976244 0.668122 -0.498401
O7    O     O_R   0.732880 0.470090 0.478000 -0.540054
O8    O     O_R   0.260330 0.535210 0.424090 -0.530585
O9    O     O_R   0.533020 0.732860 0.528350 -0.528353
O10   O     O_R   0.473780 0.261850 0.569570 -0.533545
O11   O     O_R   0.406490 0.723840 0.419860 -0.535626
O12   O     O_R   0.586720 0.281460 0.482230 -0.541280
O13   O     O_R   0.723810 0.584530 0.562340 -0.535046
O14   O     O_R   0.282980 0.410180 0.535580 -0.530380
Zn1   Zn    Zn3+2 0.592010 0.428480 0.447310 0.939946
Zn2   Zn    Zn3+2 0.579060 0.591980 0.567800 0.964644
Zn3   Zn    Zn3+2 0.430650 0.400450 0.572090 0.954366
Zn4   Zn    Zn3+2 0.398290 0.579090 0.412800 0.952405

loop_
_geom_bond_atom_site_label_1
_geom_bond_atom_site_label_2
_ccdc_geom_bond_type
C14   H2    S    
O9    Zn2   S    
C6    O7    A    
O5    Zn1   S    
C4    O12   A    
C9    O5    A    
O1    Zn3   S    
C5    H8    S    
C19   C20   D    
O13   Zn2   S    
C2    H9    S    
C3    C6    S    
O1    Zn1   S    
C2    C21   D    
C17   C18   D    
C6    O13   A    
C14   O6    D    
C3    H10   S    
C19   H7    S    
C11   C13   D    
C14   C17   S    
O12   Zn1   S    
C20   H5    S    
C4    C17   S    
C7    O14   A    
O8    Zn4   S    
C9    C16   S    
C13   H1    S    
C18   C20   S    
C8    O2    A    
C9    O3    A    
O2    Zn2   S    
O1    Zn2   S    
O1    Zn4   S    
O7    Zn1   S    
C2    C5    S    
C1    C19   S    
C4    O10   A    
O4    Zn3   S    
O11   Zn4   S    
C1    O11   A    
C12   C13   S    
C8    C10   S    
C21   H3    S    
C11   H4    S    
O3    Zn4   S    
C7    O8    A    
O14   Zn3   S    
C1    O9    A    
C10   C15   T    
C7    C21   S    
C11   C15   S    
O10   Zn3   S    
C18   H6    S    
C12   C16   T    
C3    C5    D    
C8    O4    A    
