data_mof_unit_31520.cif
_audit_creation_date              2012-12-11T15:47:12-0500
_audit_creation_method            fapswitch 2.2
_symmetry_space_group_name_H-M    P1
_symmetry_Int_Tables_number       1
_space_group_crystal_system       triclinic
_cell_length_a                    20.091187
_cell_length_b                    7.26491
_cell_length_c                    13.772291
_cell_angle_alpha                 89.998645
_cell_angle_beta                  103.153467
_cell_angle_gamma                 90.000776
_cell_volume                      1957.4728913

loop_
_atom_site_label
_atom_site_type_symbol
_atom_type_description
_atom_site_fract_x
_atom_site_fract_y
_atom_site_fract_z
_atom_type_partial_charge
O1    O     O_R   0.449560 0.506810 0.599700 -0.534768
O2    O     O_R   0.550440 0.006810 0.400300 -0.534765
O3    O     O_R   0.587960 0.180060 0.595760 -0.545943
O4    O     O_R   0.412040 0.680060 0.404240 -0.545951
C1    C     C_R   0.615495 0.344040 0.615661 0.679249
C2    C     C_R   0.384505 0.844040 0.384339 0.679239
O5    O     O_R   0.452380 0.177430 0.611700 -0.542165
O6    O     O_R   0.547620 0.677430 0.388300 -0.542159
O7    O     O_R   0.413900 0.001890 0.416350 -0.541628
O8    O     O_R   0.586100 0.501890 0.583650 -0.541633
C3    C     C_R   0.436422 0.346262 0.636801 0.689483
C4    C     C_R   0.563579 0.846266 0.363202 0.689503
O9    O     O_3   0.487530 0.337490 0.435890 -0.380700
O10   O     O_3   0.512470 0.837490 0.564110 -0.380702
V1    V     V_3+5 0.502310 0.064660 0.511890 1.410628
V2    V     V_3+5 0.497690 0.564660 0.488110 1.410621
C5    C     C_R   0.609270 0.994491 0.128418 -0.148592
C6    C     C_R   0.390731 0.494513 0.871577 -0.148592
H1    H     H_    0.516306 0.977599 0.178832 0.105446
H2    H     H_    0.483693 0.477651 0.821158 0.105449
H3    H     H_    0.690728 0.061150 0.009417 0.128417
H4    H     H_    0.309271 0.561176 0.990574 0.128418
H5    H     H_    0.583869 0.054823 0.057677 0.113134
H6    H     H_    0.416130 0.554870 0.942311 0.113135
C7    C     C_R   0.601664 0.862672 0.285737 -0.041062
C8    C     C_R   0.398341 0.362659 0.714270 -0.041083
C9    C     C_R   0.928162 0.802852 0.307853 -0.260806
C10   C     C_R   0.071829 0.302955 0.692133 -0.260822
C11   C     C_R   0.895241 0.803039 0.386010 -0.128112
C12   C     C_R   0.104756 0.303129 0.613978 -0.128131
C13   C     C_R   0.825707 0.850030 0.370622 0.317969
C14   C     C_R   0.174302 0.349978 0.629377 0.318001
C15   C     C_R   0.786991 0.879996 0.270956 -0.052624
C16   C     C_R   0.213014 0.379971 0.729046 -0.052549
C17   C     C_R   0.822929 0.901699 0.192805 -0.002182
C18   C     C_R   0.177073 0.401698 0.807194 -0.002231
C19   C     C_R   0.713776 0.893304 0.246130 0.069607
C20   C     C_R   0.286229 0.393272 0.753877 0.069667
C21   C     C_R   0.680189 0.966942 0.152423 0.105978
C22   C     C_R   0.319813 0.466940 0.847577 0.105949
C23   C     C_R   0.716927 0.008035 0.081696 -0.257741
C24   C     C_R   0.283074 0.508045 0.918300 -0.257741
C25   C     C_R   0.786085 0.966448 0.098167 0.253320
C26   C     C_R   0.213916 0.466456 0.901830 0.253323
C27   C     C_R   0.672073 0.829144 0.309045 -0.212637
C28   C     C_R   0.327935 0.329090 0.690973 -0.212642
C29   C     C_R   0.570539 0.947218 0.196031 -0.161096
C30   C     C_R   0.429463 0.447242 0.803966 -0.161085
C31   C     C_R   0.894249 0.859074 0.212693 -0.070122
C32   C     C_R   0.105749 0.359097 0.787303 -0.070097
H7    H     H_    0.692764 0.753559 0.376603 0.155403
H8    H     H_    0.307250 0.253459 0.623432 0.155427
H9    H     H_    0.982032 0.768047 0.323123 0.118998
H10   H     H_    0.017953 0.268220 0.676855 0.118958
H11   H     H_    0.925840 0.773217 0.459595 0.128602
H12   H     H_    0.074158 0.273405 0.540381 0.128646
C33   C     C_R   0.213005 0.020867 0.236496 -0.163369
C34   C     C_R   0.787000 0.520871 0.763491 -0.163271
H13   H     H_    0.187368 0.151845 0.223470 0.111276
H14   H     H_    0.812639 0.651847 0.776505 0.111256
C35   C     C_R   0.279115 0.017186 0.297238 -0.154652
C36   C     C_R   0.720889 0.517188 0.702750 -0.154484
H15   H     H_    0.302657 0.145965 0.326290 0.118910
H16   H     H_    0.697350 0.645966 0.673687 0.118964
C37   C     C_R   0.313996 0.849564 0.320314 -0.034929
C38   C     C_R   0.686003 0.349568 0.679688 -0.034961
C39   C     C_R   0.279431 0.685559 0.285137 -0.155434
C40   C     C_R   0.720564 0.185565 0.714877 -0.155489
H17   H     H_    0.303219 0.552723 0.304492 0.118890
H18   H     H_    0.696774 0.052730 0.695534 0.118918
C41   C     C_R   0.213379 0.690174 0.224418 -0.175492
C42   C     C_R   0.786616 0.190181 0.775594 -0.175616
H19   H     H_    0.188095 0.561660 0.201287 0.124747
H20   H     H_    0.811899 0.061667 0.798734 0.124752
C43   C     C_R   0.180539 0.858189 0.194499 -0.037682
C44   C     C_R   0.819461 0.358194 0.805500 -0.037692
O11   O     O_R   0.913920 0.203370 0.916260 -0.531556
O12   O     O_R   0.086080 0.703370 0.083740 -0.531561
O13   O     O_R   0.047620 0.535540 0.888290 -0.527289
O14   O     O_R   0.952380 0.035540 0.111710 -0.527292
C45   C     C_R   0.064467 0.368195 0.863123 0.775144
C46   C     C_R   0.935533 0.868190 0.136876 0.775153
O15   O     O_R   0.912040 0.532780 0.904220 -0.553579
O16   O     O_R   0.087960 0.032780 0.095780 -0.553576
O17   O     O_R   0.949550 0.708160 0.099720 -0.542480
O18   O     O_R   0.050450 0.208160 0.900280 -0.542480
C47   C     C_R   0.886634 0.364555 0.879717 0.655980
C48   C     C_R   0.113366 0.864553 0.120282 0.655982
O19   O     O_3   0.012480 0.375300 0.064060 -0.381444
O20   O     O_3   0.987520 0.875300 0.935940 -0.381433
V3    V     V_3+5 0.997690 0.648180 0.988110 1.405815
V4    V     V_3+5 0.002310 0.148180 0.011890 1.405808
N1    N     N_2   0.796681 0.891069 0.454075 -0.540378
H21   H     H_    0.770851 0.014683 0.449181 0.261081
C49   C     C_3   0.831179 0.838033 0.554260 -0.573784
H22   H     H_    0.796507 0.861143 0.605417 0.195024
H23   H     H_    0.877759 0.923068 0.580433 0.195009
H24   H     H_    0.844491 0.689421 0.556791 0.208354
N2    N     N_2   0.203338 0.390867 0.545922 -0.540542
H25   H     H_    0.229165 0.514437 0.550664 0.261095
C50   C     C_3   0.169051 0.336733 0.445811 -0.573517
H26   H     H_    0.203805 0.359510 0.394739 0.194898
H27   H     H_    0.122398 0.421321 0.419198 0.194954
H28   H     H_    0.155889 0.188025 0.443675 0.208375
N3    N     N_2   0.817147 0.986968 0.016600 -0.513569
H29   H     H_    0.803990 0.107747 0.977754 0.256113
C51   C     C_3   0.808969 0.827943 0.952302 -0.520160
H30   H     H_    0.848671 0.833689 0.908542 0.213386
H31   H     H_    0.757343 0.827956 0.901447 0.169542
H32   H     H_    0.816142 0.697958 0.996124 0.200380
N4    N     N_2   0.182852 0.486995 0.983394 -0.513565
H33   H     H_    0.196012 0.607775 0.022236 0.256108
C52   C     C_3   0.191025 0.327977 0.047700 -0.520153
H34   H     H_    0.151319 0.333729 0.091453 0.213390
H35   H     H_    0.242648 0.327992 0.098560 0.169540
H36   H     H_    0.183853 0.197988 0.003884 0.200377

loop_
_geom_bond_atom_site_label_1
_geom_bond_atom_site_label_2
_ccdc_geom_bond_type
C34   C36   A    
O15   C47   A    
O11   V4    S    
O4    V2    S    
N1    H21   S    
C9    C11   A    
C23   C25   A    
C38   C40   A    
C49   H22   S    
O1    C3    A    
C42   C44   A    
O2    C4    A    
C2    O7    A    
O17   V3    S    
C49   H24   S    
C34   C44   A    
C21   C23   A    
O5    C3    A    
N3    C51   S    
C50   H26   S    
C6    H6    S    
C20   C22   A    
C5    C21   A    
H1    C29   S    
C33   H13   S    
C27   H7    S    
C34   H14   S    
C28   H8    S    
C25   N3    S    
C35   H15   S    
C6    C22   A    
C36   H16   S    
C10   C32   A    
C2    C37   S    
N4    H33   S    
C37   C39   A    
C17   C31   A    
C51   H30   S    
C13   C15   A    
C12   C14   A    
C17   C25   A    
C7    C29   A    
O13   V3    S    
C45   O18   A    
C8    C30   A    
C52   H36   S    
C22   C24   A    
O6    V2    S    
C11   C13   A    
C51   H31   S    
C24   C26   A    
C36   C38   A    
C5    C29   A    
C42   H20   S    
O13   C45   A    
C10   H10   S    
C11   H11   S    
C3    C8    S    
C13   N1    S    
C12   H12   S    
C15   C19   A    
C40   C42   A    
C39   H17   S    
C14   C16   A    
C31   C46   S    
O14   V4    S    
N2    H25   S    
O6    C4    A    
C49   H23   S    
N4    C52   S    
O1    V2    S    
C5    H5    S    
O19   V4    S    
O2    V1    S    
C44   C47   S    
O11   C47   A    
H2    C30   S    
H3    C23   S    
O4    C2    A    
N2    C50   S    
C50   H28   S    
C51   H32   S    
C18   C26   A    
C19   C27   A    
C7    C27   A    
C18   C32   A    
C41   H19   S    
C52   H34   S    
C50   H27   S    
O12   C48   A    
C16   C20   A    
O16   C48   A    
C1    C38   S    
O3    C1    A    
C6    C30   A    
C9    H9    S    
C33   C35   A    
O12   V3    S    
C46   O17   A    
O15   V3    S    
N3    H29   S    
C14   N2    S    
C4    C7    S    
C33   C43   A    
C10   C12   A    
O7    V1    S    
C1    O8    A    
C19   C21   A    
O8    V2    S    
C41   C43   A    
O20   V3    S    
H4    C24   S    
O5    V1    S    
C15   C17   A    
O14   C46   A    
C39   C41   A    
C20   C28   A    
C8    C28   A    
C26   N4    S    
C35   C37   A    
C43   C48   S    
C16   C18   A    
N1    C49   S    
O9    V2    S    
C40   H18   S    
O10   V1    S    
O3    V1    S    
O18   V4    S    
O16   V4    S    
C9    C31   A    
C32   C45   S    
C52   H35   S    
