data_mof_unit_42486.cif
_audit_creation_date              2012-12-11T14:23:18-0500
_audit_creation_method            fapswitch 2.2
_symmetry_space_group_name_H-M    P1
_symmetry_Int_Tables_number       1
_space_group_crystal_system       triclinic
_cell_length_a                    10.988588
_cell_length_b                    11.149353
_cell_length_c                    18.56551
_cell_angle_alpha                 90.257345
_cell_angle_beta                  90.051073
_cell_angle_gamma                 59.27414
_cell_volume                      1955.24362457

loop_
_atom_site_label
_atom_site_type_symbol
_atom_type_description
_atom_site_fract_x
_atom_site_fract_y
_atom_site_fract_z
_atom_type_partial_charge
C1    C     C_R   0.236089 0.645150 0.609676 0.538350
C2    C     C_3   0.726712 0.502970 0.807441 -0.235353
C3    C     C_3   0.685839 0.657415 0.818207 0.053331
C4    C     C_3   0.645698 0.614786 0.684574 0.040811
C5    C     C_3   0.743182 0.677338 0.688242 -0.221626
C6    C     C_3   0.713688 0.476027 0.727222 -0.239785
C7    C     C_R   0.725943 0.077983 0.811079 0.008039
C8    C     C_R   0.823049 0.106725 0.774443 0.014614
C9    C     C_R   0.814065 0.118138 0.698248 -0.002040
C10   C     C_R   0.611498 0.087962 0.697834 -0.152528
C11   C     C_R   0.627472 0.061738 0.770416 -0.162730
C12   C     C_R   0.626808 0.586813 0.608996 0.567711
C13   C     C_R   0.926346 0.127470 0.808863 -0.151793
C14   C     C_R   0.026622 0.140746 0.768682 -0.117328
C15   C     C_R   0.027913 0.131522 0.693813 0.084156
C16   C     C_R   0.922888 0.119249 0.659058 -0.087990
C17   C     C_R   0.694515 0.130690 0.662944 -0.000507
C18   C     C_R   0.187984 0.667929 0.836177 0.016913
C19   C     C_R   0.222849 0.541258 0.802608 0.018823
C20   C     C_R   0.211049 0.537850 0.726479 -0.031677
C21   C     C_R   0.166874 0.775330 0.721301 -0.173914
C22   C     C_R   0.171983 0.779201 0.794834 -0.180806
C23   C     C_R   0.634012 0.219326 0.599257 0.537809
C24   C     C_R   0.270075 0.418107 0.843178 0.405159
C25   C     C_R   0.290562 0.297424 0.810186 -0.084365
C26   C     C_R   0.266011 0.296839 0.737059 -0.197952
C27   C     C_R   0.223349 0.415776 0.695594 -0.103973
C28   C     C_R   0.189842 0.655887 0.685224 -0.009550
C29   C     C_R   0.691506 0.684458 0.179847 -0.014179
C30   C     C_R   0.767154 0.548004 0.209580 0.070204
C31   C     C_R   0.704228 0.513219 0.263652 0.003290
C32   C     C_R   0.539220 0.757065 0.283971 -0.121215
C33   C     C_R   0.574421 0.787642 0.217183 -0.161173
C34   C     C_R   0.235088 0.644462 0.396265 0.539856
C35   C     C_R   0.901715 0.441229 0.186365 0.148904
C36   C     C_R   0.936875 0.304503 0.189938 -0.081223
C37   C     C_R   0.857555 0.271021 0.232749 -0.135963
C38   C     C_R   0.743791 0.373455 0.272117 -0.100301
C39   C     C_R   0.610893 0.618959 0.309468 -0.005302
C40   C     C_R   0.687814 0.056756 0.192929 -0.019239
C41   C     C_R   0.559346 0.101112 0.232144 -0.005762
C42   C     C_R   0.568224 0.087273 0.307946 0.097495
C43   C     C_R   0.802481 0.044646 0.308084 -0.180536
C44   C     C_R   0.812209 0.007455 0.234395 -0.176935
C45   C     C_R   0.611709 0.588379 0.386109 0.567347
C46   C     C_R   0.422320 0.162458 0.202045 -0.143746
C47   C     C_R   0.306611 0.191940 0.245361 -0.190239
C48   C     C_R   0.324951 0.149555 0.316758 -0.118050
C49   C     C_R   0.458719 0.085420 0.346749 0.137743
C50   C     C_R   0.672606 0.104238 0.342631 0.023043
C51   C     C_R   0.210826 0.644141 0.167503 -0.006178
C52   C     C_R   0.239550 0.737552 0.203125 0.037520
C53   C     C_R   0.206063 0.761579 0.276671 0.025642
C54   C     C_R   0.229612 0.532832 0.281170 -0.142997
C55   C     C_R   0.230599 0.529071 0.205895 -0.155467
C56   C     C_R   0.626733 0.209737 0.402846 0.538053
C57   C     C_R   0.272422 0.825393 0.164358 -0.059598
C58   C     C_R   0.236140 0.954353 0.192594 -0.120330
C59   C     C_R   0.175272 0.991425 0.260752 -0.161507
C60   C     C_R   0.166854 0.894788 0.303943 -0.114633
C61   C     C_R   0.208329 0.653091 0.317968 -0.008707
C62   C     C_R   0.728074 0.046236 0.888337 0.563862
C63   C     C_R   0.716921 0.682930 0.891754 0.547113
C64   C     C_R   0.121214 0.704937 0.907069 0.592680
C65   C     C_R   0.700886 0.042193 0.112343 0.555983
C66   C     C_R   0.726598 0.710966 0.107378 0.530412
C67   C     C_3   0.527336 0.751532 0.798556 -0.240448
C68   C     C_R   0.111108 0.700525 0.105729 0.536601
C69   C     C_3   0.502377 0.717877 0.721302 -0.239048
C70   C     C_3   0.778472 0.687686 0.766853 -0.231456
Cr1   Cr    Cr6+3 0.392940 0.397950 0.502230 0.991610
Cr2   Cr    Cr6+3 0.398400 0.708500 0.501260 0.979993
Cr3   Cr    Cr6+3 0.708640 0.393530 0.496460 0.987943
Cr4   Cr    Cr6+3 0.937880 0.938320 0.007620 0.998912
Cr5   Cr    Cr6+3 0.625560 0.937220 0.994510 1.010827
Cr6   Cr    Cr6+3 0.938080 0.625010 0.001190 1.024765
H1    H     H_    0.494920 0.863420 0.802085 0.121316
H2    H     H_    0.820742 0.403584 0.705210 0.162704
H3    H     H_    0.892699 0.610970 0.776372 0.138669
H4    H     H_    0.843755 0.611636 0.658208 0.144489
H5    H     H_    0.526987 0.084003 0.670005 0.138706
H6    H     H_    0.933093 0.135514 0.866158 0.159045
H7    H     H_    0.558511 0.031267 0.795259 0.124021
H8    H     H_    0.106122 0.153727 0.796160 0.124232
H9    H     H_    0.929849 0.106740 0.601104 0.134805
H10   H     H_    0.157116 0.863087 0.692373 0.165178
H11   H     H_    0.460181 0.734197 0.836969 0.127542
H12   H     H_    0.157055 0.873545 0.819597 0.156169
H13   H     H_    0.326381 0.203523 0.841428 0.133511
H14   H     H_    0.285492 0.201463 0.712206 0.161924
H15   H     H_    0.197430 0.409907 0.640190 0.161412
H16   H     H_    0.456948 0.840638 0.315323 0.156466
H17   H     H_    0.513676 0.891339 0.195646 0.147875
H18   H     H_    0.031532 0.223962 0.164207 0.102932
H19   H     H_    0.897493 0.164338 0.239580 0.134349
H20   H     H_    0.438024 0.667457 0.723277 0.136006
H21   H     H_    0.682351 0.346435 0.305235 0.141413
H22   H     H_    0.890946 0.038726 0.336084 0.113757
H23   H     H_    0.397829 0.197110 0.147303 0.170216
H24   H     H_    0.914409 0.959128 0.208107 0.158024
H25   H     H_    0.202588 0.244204 0.222863 0.150673
H26   H     H_    0.235467 0.170267 0.350003 0.104043
H27   H     H_    0.244074 0.442839 0.310394 0.169556
H28   H     H_    0.310258 0.801014 0.109274 0.134244
H29   H     H_    0.241894 0.440064 0.177330 0.156382
H30   H     H_    0.442617 0.816890 0.690636 0.145761
H31   H     H_    0.249249 0.026780 0.159845 0.106412
H32   H     H_    0.130650 0.096089 0.280298 0.113711
H33   H     H_    0.119842 0.930923 0.356329 0.138798
H34   H     H_    0.763714 0.791995 0.777417 0.115154
H35   H     H_    0.689214 0.782825 0.663405 0.135332
H36   H     H_    0.837334 0.430012 0.825030 0.148474
H37   H     H_    0.656121 0.480295 0.840240 0.139285
H38   H     H_    0.649283 0.425351 0.721518 0.123132
O1    O     O_R   0.507340 0.255690 0.581430 -0.517664
O2    O     O_R   0.524510 0.695820 0.424050 -0.510444
O3    O     O_R   0.736370 0.504260 0.414810 -0.491799
O4    O     O_R   0.691220 0.277270 0.422180 -0.537358
O5    O     O_3   0.499990 0.499990 0.499980 -0.283317
O6    O     O_R   0.089570 0.825450 0.930590 -0.552397
O7    O     O_R   0.818700 0.054260 0.929860 -0.503780
O8    O     O_R   0.606310 0.077010 0.915520 -0.478281
O9    O     O_R   0.646730 0.806540 0.917560 -0.524277
O10   O     O_R   0.837290 0.593240 0.915240 -0.518483
O11   O     O_R   0.065320 0.635310 0.931580 -0.446428
O12   O     O_R   0.280360 0.527380 0.578910 -0.506235
O13   O     O_R   0.068470 0.828620 0.091850 -0.535910
O14   O     O_R   0.799150 0.057200 0.079350 -0.473870
O15   O     O_R   0.585220 0.080180 0.076770 -0.513927
O16   O     O_R   0.627170 0.809480 0.067050 -0.514379
O17   O     O_R   0.816200 0.596410 0.076500 -0.508859
O18   O     O_R   0.045770 0.638240 0.081070 -0.526371
O19   O     O_3   0.833840 0.833520 0.001110 -0.308565
O20   O     O_R   0.260600 0.739610 0.584580 -0.539222
O21   O     O_R   0.532370 0.695050 0.573830 -0.499602
O22   O     O_R   0.744850 0.503430 0.576380 -0.521706
O23   O     O_R   0.699080 0.276500 0.571950 -0.532371
O24   O     O_R   0.498860 0.256520 0.419860 -0.504376
O25   O     O_R   0.272490 0.528150 0.429140 -0.498409
O26   O     O_R   0.252110 0.740440 0.423010 -0.539334
N1    N     N_3   0.137121 0.132469 0.652728 -0.682211
H39   H     H_    0.089567 0.216065 0.616806 0.228927
H40   H     H_    0.188895 0.040296 0.622463 0.231355
F1    F     F_    0.306207 0.411108 0.913681 -0.625205
N2    N     N_3   0.012553 0.467421 0.173628 -0.664265
H41   H     H_    0.976574 0.572397 0.184043 0.257688
H42   H     H_    0.049745 0.435962 0.121101 0.268393
N3    N     N_3   0.481241 0.030619 0.418639 -0.601755
H43   H     H_    0.461436 0.948684 0.418723 0.236015
H44   H     H_    0.405384 0.106894 0.452892 0.235332

loop_
_geom_bond_atom_site_label_1
_geom_bond_atom_site_label_2
_ccdc_geom_bond_type
C46   H23   S    
C8    C13   A    
C47   H25   S    
Cr5   O8    S    
C44   H24   S    
C41   C42   A    
C54   C55   A    
C35   C36   A    
C67   H1    S    
C43   H22   S    
C14   H8    S    
C69   H20   S    
C63   O10   A    
C7    C8    A    
C7    C11   A    
C2    H36   S    
C26   C27   A    
C17   C23   S    
C30   C35   A    
C55   H29   S    
Cr5   O9    S    
C36   C37   A    
C9    C16   A    
N3    H44   S    
C18   C19   A    
N1    H40   S    
C30   C31   A    
Cr6   O17   S    
C6    H2    S    
C10   C17   A    
C15   C16   A    
Cr4   O19   S    
C29   C33   A    
C34   O25   A    
C37   H19   S    
C58   H31   S    
C35   N2    S    
C32   C39   A    
C68   O18   A    
C6    H38   S    
C60   H33   S    
C70   H34   S    
C15   N1    S    
C53   C61   A    
Cr4   O14   S    
C19   C20   A    
C8    C9    A    
C12   O21   A    
C1    C28   S    
C41   C46   A    
Cr1   O12   S    
C27   H15   S    
C22   H12   S    
C4    C12   S    
Cr5   O16   S    
C39   C45   S    
C59   C60   A    
C21   C22   A    
Cr6   O11   S    
C2    C6    S    
C38   H21   S    
C4    C69   S    
N2    H42   S    
C53   C60   A    
N2    H41   S    
Cr1   O24   S    
Cr3   O3    S    
C51   C52   A    
Cr6   O10   S    
C65   O14   A    
C54   H27   S    
C3    C70   S    
N3    H43   S    
C4    C6    S    
C10   C11   A    
Cr2   O21   S    
Cr1   O25   S    
C25   H13   S    
C20   C28   A    
C11   H7    S    
C58   C59   A    
C13   H6    S    
C34   C61   S    
C50   C56   S    
C29   C66   S    
C49   N3    S    
C67   C69   S    
C37   C38   A    
C43   C44   A    
C7    C62   S    
C29   C30   A    
C65   O15   A    
C56   O24   A    
Cr2   O20   S    
Cr4   O13   S    
Cr3   O22   S    
Cr2   O26   S    
Cr6   O19   S    
C48   H26   S    
Cr1   O1    S    
C24   C25   A    
C5    H4    S    
C68   O13   A    
C42   C50   A    
C9    C17   A    
C48   C49   A    
C54   C61   A    
C21   C28   A    
C40   C65   S    
C1    O12   A    
C16   H9    S    
C1    O20   A    
C62   O8    A    
Cr4   O6    S    
C52   C53   A    
C66   O17   A    
C45   O3    A    
C57   H28   S    
C46   C47   A    
C40   C41   A    
Cr3   O4    S    
C70   H3    S    
C18   C22   A    
C56   O4    A    
C23   O23   A    
C3    C67   S    
C4    C5    S    
C47   C48   A    
C5    C70   S    
C33   H17   S    
C21   H10   S    
C63   O9    A    
C69   H30   S    
Cr5   O19   S    
C43   C50   A    
C20   C27   A    
C3    C63   S    
C26   H14   S    
C5    H35   S    
Cr2   O2    S    
C10   H5    S    
C67   H11   S    
C59   H32   S    
C64   O6    A    
C31   C38   A    
Cr1   O5    S    
C32   C33   A    
C19   C24   A    
C25   C26   A    
N1    H39   S    
Cr6   O18   S    
C45   O2    A    
C18   C64   S    
C57   C58   A    
C32   H16   S    
Cr3   O23   S    
C24   F1    S    
Cr2   O5    S    
C34   O26   A    
C2    H37   S    
C31   C39   A    
C2    C3    S    
C51   C55   A    
C51   C68   S    
C52   C57   A    
C42   C49   A    
C23   O1    A    
Cr3   O5    S    
C36   H18   S    
C40   C44   A    
Cr4   O7    S    
C64   O11   A    
C12   O22   A    
C14   C15   A    
C13   C14   A    
C62   O7    A    
Cr5   O15   S    
C66   O16   A    
