data_mof_unit_24937.cif
_audit_creation_date              2012-12-10T17:30:19-0500
_audit_creation_method            fapswitch 2.2
_symmetry_space_group_name_H-M    P1
_symmetry_Int_Tables_number       1
_space_group_crystal_system       triclinic
_cell_length_a                    12.13564
_cell_length_b                    12.95173
_cell_length_c                    14.950967
_cell_angle_alpha                 93.290681
_cell_angle_beta                  85.809485
_cell_angle_gamma                 93.628127
_cell_volume                      2335.68592954

loop_
_atom_site_label
_atom_site_type_symbol
_atom_type_description
_atom_site_fract_x
_atom_site_fract_y
_atom_site_fract_z
_atom_type_partial_charge
C1    C     C_R   0.521644 0.700073 0.499478 0.978375
C2    C     C_R   0.357663 0.137221 0.518620 0.371658
C3    C     C_R   0.444472 0.869451 0.532164 0.378126
C4    C     C_R   0.558586 0.129067 0.498912 0.369273
C5    C     C_R   0.443617 0.973163 0.513323 -0.187544
C6    C     C_R   0.544824 0.023108 0.483014 -0.187759
C7    C     C_R   0.957365 0.436328 0.392631 0.417280
C8    C     C_R   0.043789 0.572081 0.604740 0.404342
C9    C     C_R   0.841104 0.437053 0.406328 0.475316
C10   C     C_R   0.159503 0.558719 0.595688 0.473283
C11   C     C_R   0.855904 0.523664 0.550083 0.564613
C12   C     C_R   0.478083 0.299748 0.504560 0.947420
C13   C     C_R   0.143927 0.488951 0.446558 0.544805
C14   C     C_R   0.974495 0.525456 0.539256 -0.311385
C15   C     C_R   0.025637 0.482445 0.458944 -0.358897
C16   C     C_R   0.499045 0.495431 0.672393 0.985405
C17   C     C_R   0.499964 0.498554 0.327447 0.993973
C18   C     C_R   0.452748 0.410352 0.186755 0.438635
C19   C     C_R   0.544155 0.577905 0.815155 0.493422
C20   C     C_R   0.499254 0.497385 0.232072 -0.308000
C21   C     C_R   0.498240 0.492035 0.767935 -0.301049
C22   C     C_R   0.543622 0.583750 0.187849 0.485663
C23   C     C_R   0.621860 0.651081 0.952112 0.441874
C24   C     C_R   0.453671 0.403917 0.810657 0.439908
C25   C     C_R   0.553127 0.579311 0.093819 -0.137549
C26   C     C_R   0.450483 0.404237 0.905237 -0.122221
C27   C     C_R   0.498364 0.494436 0.046877 -0.149223
C28   C     C_R   0.499491 0.491796 0.953245 -0.158661
C29   C     C_R   0.443783 0.411589 0.093795 -0.138347
C30   C     C_R   0.554822 0.574566 0.907023 -0.116597
C31   C     C_R   0.619240 0.655000 0.046331 0.429412
C32   C     C_R   0.399141 0.320173 0.952404 0.445996
C33   C     C_3   0.500099 0.252754 0.226778 -0.242919
C34   C     C_R   0.386483 0.329537 0.046793 0.412199
C35   C     C_3   0.484430 0.730463 0.778367 -0.337773
C36   C     C_3   0.027253 0.292703 0.316825 -0.266597
C37   C     C_3   0.034462 0.735786 0.669546 -0.224445
C38   C     C_3   0.483574 0.731285 0.259043 -0.328401
C39   C     C_3   0.310508 0.314624 0.741818 -0.182549
C40   C     C_3   0.665780 0.818359 0.108468 -0.139458
C41   C     C_3   0.269297 0.185132 0.918934 -0.192776
C42   C     C_3   0.692077 0.807767 0.896907 -0.179256
C43   C     C_3   0.219324 0.294785 0.120828 -0.259547
C44   C     C_3   0.217803 0.203409 0.451372 -0.187473
C45   C     C_R   0.464283 0.187670 0.508841 -0.317997
C46   C     C_3   0.804413 0.809319 0.429438 -0.107623
C47   C     C_3   0.197439 0.556223 0.313136 -0.181931
C48   C     C_3   0.783836 0.660176 0.635318 -0.013950
C49   C     C_3   0.191256 0.552611 0.745954 -0.241510
C50   C     C_3   0.761125 0.291735 0.337145 -0.127625
C51   C     C_R   0.532951 0.811287 0.495575 -0.355121
C52   C     C_R   0.631037 0.965716 0.441760 0.368335
C53   C     C_R   0.347649 0.030249 0.526545 0.406307
C54   C     C_R   0.624280 0.858217 0.446662 0.367011
Cl1   Cl    Cl    0.688327 0.177634 0.537191 -0.551647
Cl2   Cl    Cl    0.348738 0.818930 0.616511 -0.587692
Cl3   Cl    Cl    0.733869 0.024771 0.368038 -0.671087
Cl4   Cl    Cl    0.211832 0.971392 0.538907 -0.576890
H1    H     H_    0.489589 0.203486 0.285483 0.157043
H2    H     H_    0.980599 0.783608 0.716050 0.171042
H3    H     H_    0.027798 0.761865 0.600466 0.163682
H4    H     H_    0.120136 0.752094 0.689755 0.250094
H5    H     H_    0.437598 0.743320 0.198995 0.128331
H6    H     H_    0.511778 0.808909 0.286656 0.203240
H7    H     H_    0.427032 0.695125 0.311532 0.159428
H8    H     H_    0.257720 0.348303 0.798766 0.093919
H9    H     H_    0.279602 0.233186 0.728821 0.218614
H10   H     H_    0.299621 0.354314 0.679949 0.201570
H11   H     H_    0.579428 0.830824 0.092387 0.078304
H12   H     H_    0.585305 0.290139 0.224879 0.141755
H13   H     H_    0.723854 0.873667 0.072575 0.143987
H14   H     H_    0.673600 0.839409 0.180735 0.241085
H15   H     H_    0.208909 0.246677 0.925224 0.107752
H16   H     H_    0.258481 0.134481 0.976623 0.206731
H17   H     H_    0.249731 0.134518 0.859158 0.179413
H18   H     H_    0.612744 0.833931 0.930220 0.100299
H19   H     H_    0.694314 0.824811 0.824954 0.192616
H20   H     H_    0.762528 0.854787 0.924350 0.164428
H21   H     H_    0.179662 0.328269 0.065170 0.120243
H22   H     H_    0.227437 0.354616 0.176540 0.224708
H23   H     H_    0.491887 0.201355 0.165364 0.211882
H24   H     H_    0.162896 0.230372 0.145695 0.179455
H25   H     H_    0.175027 0.129632 0.427749 0.185659
H26   H     H_    0.280031 0.230854 0.398073 0.173807
H27   H     H_    0.155466 0.262365 0.462815 0.180375
H28   H     H_    0.805710 0.845363 0.498987 0.115987
H29   H     H_    0.861017 0.855914 0.383702 0.211308
H30   H     H_    0.838141 0.731676 0.429405 0.142332
H31   H     H_    0.238386 0.624633 0.348496 0.137075
H32   H     H_    0.112770 0.574632 0.297920 0.174196
H33   H     H_    0.245590 0.541740 0.248155 0.155651
H34   H     H_    0.458975 0.751854 0.849705 0.147479
H35   H     H_    0.696123 0.670645 0.627195 0.192233
H36   H     H_    0.836201 0.705883 0.586020 0.044583
H37   H     H_    0.799081 0.693875 0.703445 0.212937
H38   H     H_    0.146000 0.475282 0.738798 0.132354
H39   H     H_    0.139372 0.606951 0.787673 0.209246
H40   H     H_    0.264806 0.543110 0.783797 0.145462
H41   H     H_    0.809299 0.253750 0.385134 0.188083
H42   H     H_    0.783636 0.259018 0.268538 0.166592
H43   H     H_    0.672730 0.269922 0.353320 0.185290
H44   H     H_    0.412680 0.692057 0.745101 0.243025
H45   H     H_    0.509638 0.803202 0.744763 0.227153
H46   H     H_    0.997835 0.257317 0.381182 0.133669
H47   H     H_    0.117962 0.286901 0.307058 0.198465
H48   H     H_    0.989837 0.245317 0.261450 0.175037
N1    N     N_R   0.207800 0.519350 0.516680 -0.203033
N2    N     N_R   0.792200 0.480650 0.483320 -0.211455
O1    O     O_R   0.421700 0.658830 0.504450 -0.571745
O2    O     O_3   0.575111 0.666870 0.770806 -0.626380
O3    O     O_3   0.001884 0.397045 0.310675 -0.559350
O4    O     O_3   0.999498 0.630050 0.677781 -0.588770
O5    O     O_3   0.576956 0.672239 0.237451 -0.531685
O6    O     O_3   0.423505 0.315384 0.759111 -0.553304
O7    O     O_3   0.699503 0.716204 0.089596 -0.534664
O8    O     O_3   0.380320 0.224508 0.906700 -0.543949
O9    O     O_3   0.709366 0.701665 0.903764 -0.542765
O10   O     O_3   0.322661 0.254757 0.092623 -0.590477
O11   O     O_3   0.264217 0.193144 0.533855 -0.575960
O12   O     O_R   0.578300 0.341170 0.495550 -0.583865
O13   O     O_3   0.698229 0.797370 0.395730 -0.543422
O14   O     O_3   0.195697 0.466679 0.363217 -0.556225
O15   O     O_3   0.804228 0.553744 0.632159 -0.533938
O16   O     O_3   0.226980 0.595285 0.662848 -0.552420
O17   O     O_3   0.776540 0.400788 0.337689 -0.572221
O18   O     O_R   0.609310 0.646410 0.493750 -0.620460
O19   O     O_R   0.390690 0.353590 0.506250 -0.594002
O20   O     O_R   0.406180 0.506230 0.637500 -0.607230
O21   O     O_R   0.593820 0.493770 0.362500 -0.550297
O22   O     O_R   0.593800 0.493820 0.626800 -0.559010
O23   O     O_R   0.406200 0.506180 0.373200 -0.600090
O24   O     O_3   0.416839 0.324858 0.235113 -0.579800
Zn1   Zn    Zn3+2 0.374730 0.508290 0.507150 1.030533
Zn2   Zn    Zn3+2 0.625270 0.491710 0.492850 1.057232

loop_
_geom_bond_atom_site_label_1
_geom_bond_atom_site_label_2
_ccdc_geom_bond_type
C25   C31   A    
C34   O10   S    
C16   C21   S    
C48   H37   S    
C17   O23   A    
C39   H10   S    
C18   O24   S    
C13   N1    A    
C35   H44   S    
C42   H18   S    
C48   O15   S    
C37   H4    S    
C10   O16   S    
C12   O19   A    
C9    N2    A    
C26   C32   A    
C50   H41   S    
C48   H36   S    
C5    C53   A    
C40   H13   S    
C24   C26   A    
C46   H29   S    
C35   H45   S    
C8    O4    S    
C5    C6    A    
C11   C14   A    
C40   O7    S    
C27   C29   A    
C43   H21   S    
C17   C20   S    
C37   O4    S    
C1    O1    A    
C41   H16   S    
C12   O12   A    
C22   O5    S    
C22   C25   A    
C46   O13   S    
C16   O22   A    
C46   H30   S    
C35   H34   S    
C44   H25   S    
C7    C15   A    
C49   H40   S    
C33   H1    S    
C47   H31   S    
C10   N1    A    
O22   Zn2   S    
C47   H33   S    
C31   O7    S    
C52   C54   A    
C38   H6    S    
C4    C45   A    
C2    C45   A    
C40   H11   S    
C41   H15   S    
O1    Zn1   S    
C23   C30   A    
C1    O18   A    
C4    C6    A    
C48   H35   S    
C18   C29   A    
C38   O5    S    
C3    C51   A    
C47   O14   S    
C44   O11   S    
C3    C5    A    
C43   H22   S    
C49   O16   S    
C36   H48   S    
C29   C34   A    
C9    O17   S    
C32   C34   A    
N2    Zn2   S    
C41   H17   S    
C16   O20   A    
C3    Cl2   S    
C38   H7    S    
C2    O11   S    
C39   O6    S    
C36   O3    S    
C50   O17   S    
C32   O8    S    
C1    C51   S    
C35   O2    S    
C33   H12   S    
C50   H43   S    
C33   O24   S    
O12   Zn2   S    
C54   O13   S    
C20   C22   A    
C42   H20   S    
C13   C15   A    
C4    Cl1   S    
C47   H32   S    
C41   O8    S    
C44   H27   S    
C11   N2    A    
C38   H5    S    
C19   O2    S    
C7    C9    A    
C8    C14   A    
C40   H14   S    
C19   C21   A    
C36   H47   S    
C14   C15   A    
C39   H9    S    
C11   O15   S    
O19   Zn1   S    
C12   C45   S    
O23   Zn1   S    
C2    C53   A    
C23   O9    S    
C37   H3    S    
C53   Cl4   S    
C42   O9    S    
C25   C27   A    
C26   C28   A    
C44   H26   S    
C36   H46   S    
C51   C54   A    
C28   C30   A    
N1    Zn1   S    
O20   Zn1   S    
C13   O14   S    
C39   H8    S    
C7    O3    S    
C18   C20   A    
C49   H38   S    
C50   H42   S    
C37   H2    S    
C52   Cl3   S    
C43   O10   S    
C49   H39   S    
O21   Zn2   S    
O18   Zn2   S    
C42   H19   S    
C8    C10   A    
C21   C24   A    
C27   C28   A    
C43   H24   S    
C24   O6    S    
C6    C52   A    
C19   C30   A    
C33   H23   S    
C17   O21   A    
C23   C31   A    
C46   H28   S    
