data_mof_unit_17915.cif
_audit_creation_date              2012-12-11T17:01:18-0500
_audit_creation_method            fapswitch 2.2
_symmetry_space_group_name_H-M    P1
_symmetry_Int_Tables_number       1
_space_group_crystal_system       triclinic
_cell_length_a                    19.39019
_cell_length_b                    7.102778
_cell_length_c                    17.618999
_cell_angle_alpha                 90.097803
_cell_angle_beta                  108.596778
_cell_angle_gamma                 89.913164
_cell_volume                      2299.85853423

loop_
_atom_site_label
_atom_site_type_symbol
_atom_type_description
_atom_site_fract_x
_atom_site_fract_y
_atom_site_fract_z
_atom_type_partial_charge
O1    O     O_R   0.413720 0.494330 0.415730 -0.536427
O2    O     O_R   0.586280 0.994330 0.584270 -0.535340
O3    O     O_R   0.560210 0.819300 0.430070 -0.544719
O4    O     O_R   0.439790 0.319300 0.569930 -0.536579
C1    C     C_R   0.579095 0.654501 0.411824 0.719567
C2    C     C_R   0.421359 0.155286 0.588719 0.724116
O5    O     O_R   0.412670 0.823730 0.406310 -0.542640
O6    O     O_R   0.587330 0.323730 0.593690 -0.544072
O7    O     O_R   0.437690 0.998790 0.560340 -0.540221
O8    O     O_R   0.562310 0.498790 0.439660 -0.534161
C3    C     C_R   0.385393 0.655146 0.383413 0.686943
C4    C     C_R   0.614538 0.155203 0.616698 0.687064
O9    O     O_3   0.508380 0.662350 0.550560 -0.372860
O10   O     O_3   0.491620 0.162350 0.449440 -0.373944
V1    V     V_3+5 0.498450 0.935370 0.490620 1.387011
V2    V     V_3+5 0.501550 0.435370 0.509380 1.386938
C5    C     C_R   0.698816 0.989785 0.737469 0.110280
C6    C     C_R   0.269041 0.490654 0.306433 0.110627
C7    C     C_R   0.681669 0.147128 0.687022 -0.110546
C8    C     C_R   0.315245 0.646930 0.317130 -0.111264
C9    C     C_R   0.730158 0.300526 0.707032 -0.182938
C10   C     C_R   0.290643 0.799882 0.264587 -0.184597
H1    H     H_    0.719284 0.425422 0.670230 0.139088
H2    H     H_    0.323888 0.924400 0.270658 0.141727
C11   C     C_R   0.795875 0.288973 0.771188 -0.181744
C12   C     C_R   0.225112 0.788805 0.200242 -0.179779
H3    H     H_    0.833174 0.406491 0.782357 0.136471
H4    H     H_    0.209928 0.905933 0.159108 0.134749
C13   C     C_R   0.815388 0.123073 0.817013 -0.108721
C14   C     C_R   0.182231 0.624018 0.186184 -0.109969
C15   C     C_R   0.763850 0.978043 0.800705 0.108363
C16   C     C_R   0.204400 0.479287 0.242653 0.110224
C17   C     C_3   0.772279 0.773948 0.786142 -0.423096
C18   C     C_3   0.214985 0.274919 0.230601 -0.419527
C19   C     C_3   0.701228 0.786728 0.717313 -0.402512
C20   C     C_3   0.285359 0.287231 0.300318 -0.403991
H5    H     H_    0.768270 0.685270 0.836491 0.174950
H6    H     H_    0.223718 0.245745 0.172311 0.167545
H7    H     H_    0.820214 0.745262 0.766202 0.172267
H8    H     H_    0.172865 0.186760 0.243757 0.178554
H9    H     H_    0.656218 0.705638 0.728023 0.176863
H10   H     H_    0.334865 0.264794 0.282498 0.171006
H11   H     H_    0.708003 0.765020 0.657562 0.168919
H12   H     H_    0.283778 0.206462 0.353732 0.172514
C21   C     C_R   0.328490 0.995818 0.636499 -0.266810
C22   C     C_R   0.674102 0.793188 0.362106 -0.268585
C23   C     C_R   0.376304 0.148228 0.643301 -0.093933
C24   C     C_R   0.625093 0.644976 0.358391 -0.089695
C25   C     C_R   0.378800 0.293230 0.700340 0.106514
C26   C     C_R   0.621624 0.491819 0.304832 0.104842
C27   C     C_R   0.326315 0.294485 0.741292 0.081985
C28   C     C_R   0.673077 0.481791 0.262530 0.082237
C29   C     C_R   0.278613 0.139521 0.733049 0.015391
C30   C     C_R   0.721821 0.633319 0.267487 0.015733
C31   C     C_R   0.281013 0.988475 0.681898 0.090059
C32   C     C_R   0.721319 0.790093 0.316422 0.089774
C33   C     C_R   0.320197 0.446464 0.790660 -0.181714
C34   C     C_R   0.676930 0.324763 0.214666 -0.184566
C35   C     C_R   0.270011 0.442362 0.832469 -0.198836
C36   C     C_R   0.726190 0.320011 0.171682 -0.195982
C37   C     C_R   0.224542 0.286659 0.826560 0.092442
C38   C     C_R   0.773083 0.471426 0.174980 0.091833
C39   C     C_R   0.228702 0.134339 0.776768 0.065430
C40   C     C_R   0.770955 0.629196 0.222763 0.065369
C41   C     C_R   0.183180 0.976345 0.770959 0.091026
C42   C     C_R   0.817822 0.783184 0.225648 0.091922
C43   C     C_R   0.186652 0.826694 0.720277 -0.188798
C44   C     C_R   0.816382 0.938184 0.274485 -0.191385
C45   C     C_R   0.234764 0.833271 0.675755 -0.175230
C46   C     C_R   0.768911 0.941075 0.319827 -0.173999
C47   C     C_R   0.175201 0.280800 0.869945 -0.220633
C48   C     C_R   0.822061 0.467289 0.131184 -0.219233
C49   C     C_R   0.130755 0.122327 0.865867 -0.081852
C50   C     C_R   0.868145 0.621043 0.132712 -0.081039
C51   C     C_R   0.135160 0.970431 0.816106 -0.223719
C52   C     C_R   0.865365 0.779300 0.179791 -0.223632
H13   H     H_    0.327535 0.882738 0.594735 0.135520
H14   H     H_    0.676029 0.911723 0.401627 0.133310
H15   H     H_    0.352960 0.572005 0.796423 0.146717
H16   H     H_    0.642965 0.202213 0.210836 0.146542
H17   H     H_    0.266866 0.561691 0.869664 0.132877
H18   H     H_    0.727600 0.196949 0.135737 0.134578
H19   H     H_    0.172654 0.398228 0.908376 0.126882
H20   H     H_    0.823339 0.345184 0.094615 0.126215
H21   H     H_    0.100838 0.847979 0.812001 0.129724
H22   H     H_    0.900974 0.898023 0.181738 0.129152
H23   H     H_    0.152075 0.704398 0.714984 0.133348
H24   H     H_    0.852021 0.057382 0.277665 0.133352
H25   H     H_    0.236162 0.715974 0.636848 0.130074
H26   H     H_    0.769024 0.062522 0.357191 0.131423
O11   O     O_R   0.937800 0.775460 0.060470 -0.537170
O12   O     O_R   0.062200 0.275460 0.939530 -0.538479
O13   O     O_R   0.087350 0.441340 0.093710 -0.538754
O14   O     O_R   0.912650 0.941340 0.906290 -0.538598
C53   C     C_R   0.114878 0.610346 0.116268 0.690397
C54   C     C_R   0.885242 0.110318 0.883592 0.691229
O15   O     O_R   0.939820 0.446010 0.069950 -0.542516
O16   O     O_R   0.060180 0.946010 0.930050 -0.544172
O17   O     O_R   0.913690 0.271230 0.915700 -0.539609
O18   O     O_R   0.086310 0.771230 0.084300 -0.539301
C55   C     C_R   0.918516 0.614395 0.084685 0.707997
C56   C     C_R   0.081179 0.114242 0.914890 0.702630
O19   O     O_3   0.991670 0.603050 0.949510 -0.374925
O20   O     O_3   0.008330 0.103050 0.050490 -0.373229
V3    V     V_3+5 0.001550 0.329940 0.009370 1.392878
V4    V     V_3+5 0.998450 0.829940 0.990630 1.391957
C57   C     C_3   0.439802 0.437250 0.722249 -0.753169
H27   H     H_    0.459096 0.463346 0.787786 0.190815
H28   H     H_    0.489038 0.386294 0.709500 0.206169
H29   H     H_    0.420668 0.571350 0.690055 0.211787
C58   C     C_3   0.560895 0.347499 0.287970 -0.756670
H30   H     H_    0.538355 0.319621 0.222690 0.190073
H31   H     H_    0.581840 0.214329 0.320031 0.211387
H32   H     H_    0.513407 0.397575 0.304353 0.208500

loop_
_geom_bond_atom_site_label_1
_geom_bond_atom_site_label_2
_ccdc_geom_bond_type
C42   C44   A    
C39   C41   A    
C49   C51   A    
C33   H15   S    
C20   H10   S    
C58   H30   S    
O1    C3    A    
O2    C4    A    
C2    O7    A    
O20   V4    S    
C25   C57   S    
O5    C3    A    
C17   H7    S    
C50   C52   A    
C18   H8    S    
C57   H29   S    
C7    C9    A    
C17   C19   S    
C33   C35   A    
C34   C36   A    
C54   O17   A    
C36   C38   A    
C21   C23   A    
C37   C39   A    
C38   C40   A    
O13   V3    S    
C36   H18   S    
C51   H21   S    
C41   C43   A    
C26   C28   A    
C57   H27   S    
C15   C17   S    
C27   C33   A    
C58   H32   S    
C19   H11   S    
C18   C20   S    
O12   C56   A    
O15   V3    S    
C37   C47   A    
C24   C26   A    
O6    V2    S    
C57   H28   S    
O11   V4    S    
C46   H26   S    
O11   C55   A    
C45   H25   S    
C23   C25   A    
O20   V3    S    
C28   C30   A    
C47   H19   S    
C29   C31   A    
C11   C13   A    
O17   V3    S    
C1    C24   S    
C22   C24   A    
C3    C8    S    
C35   C37   A    
C2    C23   S    
C48   C50   A    
C22   H14   S    
C53   O18   A    
C25   C27   A    
O16   C56   A    
C17   H5    S    
C43   H23   S    
C43   C45   A    
C40   C42   A    
O4    V2    S    
C14   C53   S    
O6    C4    A    
C42   C52   A    
C38   C48   A    
C58   H31   S    
O1    V2    S    
C48   H20   S    
O14   C54   A    
O2    V1    S    
C31   C45   A    
C28   C34   A    
C50   C55   S    
O4    C2    A    
C49   C56   S    
C8    C10   A    
C12   C14   A    
C32   C46   A    
C9    H1    S    
C44   H24   S    
O19   V3    S    
C10   H2    S    
C20   H12   S    
C6    C16   A    
C52   H22   S    
O3    V1    S    
C47   C49   A    
C9    C11   A    
O14   V4    S    
C18   H6    S    
O18   V4    S    
C35   H17   S    
O3    C1    A    
C41   C51   A    
C13   C54   S    
C30   C32   A    
C34   H16   S    
C11   H3    S    
C12   H4    S    
O16   V4    S    
O7    V1    S    
C1    O8    A    
C13   C15   A    
O8    V2    S    
C14   C16   A    
C29   C39   A    
C30   C40   A    
C5    C15   A    
C4    C7    S    
O5    V1    S    
C26   C58   S    
C5    C7    A    
O19   V4    S    
C6    C8    A    
C19   H9    S    
O12   V3    S    
C21   C31   A    
O13   C53   A    
C10   C12   A    
O9    V2    S    
C22   C32   A    
C44   C46   A    
O10   V1    S    
C21   H13   S    
C5    C19   S    
C27   C29   A    
C6    C20   S    
O15   C55   A    
C16   C18   S    
