data_mof_unit_43451.cif
_audit_creation_date              2013-03-05T15:50:45-0500
_audit_creation_method            fapswitch 2.2
_symmetry_space_group_name_H-M    P1
_symmetry_Int_Tables_number       1
_space_group_crystal_system       triclinic
_cell_length_a                    22.835204
_cell_length_b                    7.243731
_cell_length_c                    20.786921
_cell_angle_alpha                 89.996894
_cell_angle_beta                  93.322401
_cell_angle_gamma                 90.004348
_cell_volume                      3432.6285662

loop_
_atom_site_label
_atom_site_type_symbol
_atom_site_description
_atom_site_fract_x
_atom_site_fract_y
_atom_site_fract_z
_atom_type_partial_charge
O1    O     O_R   0.438030 0.494310 0.439340 -0.594985
O2    O     O_R   0.561970 0.994310 0.560660 -0.594981
O3    O     O_R   0.556900 0.822900 0.435960 -0.578867
O4    O     O_R   0.443100 0.322900 0.564040 -0.578865
C1    C     C_R   0.575783 0.655605 0.421123 0.958869
C2    C     C_R   0.424213 0.155590 0.578871 0.958907
O5    O     O_R   0.438170 0.823950 0.431660 -0.592231
O6    O     O_R   0.561830 0.323950 0.568340 -0.592229
O7    O     O_R   0.442390 0.995390 0.556340 -0.584917
O8    O     O_R   0.557610 0.495390 0.443660 -0.584916
C3    C     C_R   0.418480 0.655322 0.415603 0.935733
C4    C     C_R   0.581520 0.155325 0.584397 0.935734
O9    O     O_3   0.501520 0.661170 0.540910 -0.283426
O10   O     O_3   0.498480 0.161170 0.459090 -0.283436
V1    V     V_3+5 0.499720 0.935580 0.492410 1.177630
V2    V     V_3+5 0.500280 0.435580 0.507590 1.177620
C5    C     C_R   0.829770 0.935290 0.856424 -0.220185
C6    C     C_R   0.170233 0.435314 0.143568 -0.220131
C7    C     C_R   0.869159 0.083855 0.865754 -0.136824
C8    C     C_R   0.130841 0.583860 0.134245 -0.136843
C9    C     C_R   0.860521 0.244311 0.828038 -0.226314
C10   C     C_R   0.139476 0.744295 0.171970 -0.226057
C11   C     C_R   0.813548 0.256765 0.781517 0.146204
C12   C     C_R   0.186449 0.756748 0.218491 0.146142
C13   C     C_R   0.773879 0.108207 0.773139 0.036583
C14   C     C_R   0.226120 0.608207 0.226861 0.036569
C15   C     C_R   0.781920 0.947220 0.810906 0.139537
C16   C     C_R   0.218083 0.447241 0.189087 0.139564
C17   C     C_R   0.805489 0.415352 0.743200 -0.204974
C18   C     C_R   0.194505 0.915315 0.256815 -0.204759
C19   C     C_R   0.758212 0.427601 0.697415 -0.209587
C20   C     C_R   0.241782 0.927563 0.302601 -0.209539
C21   C     C_R   0.717994 0.281771 0.689212 0.150848
C22   C     C_R   0.282002 0.781749 0.310797 0.150816
C23   C     C_R   0.726034 0.120781 0.726976 0.037881
C24   C     C_R   0.273965 0.620779 0.273025 0.037892
C25   C     C_R   0.686373 0.972206 0.718586 0.138461
C26   C     C_R   0.313629 0.472223 0.281407 0.138488
C27   C     C_R   0.694424 0.813639 0.756915 -0.192731
C28   C     C_R   0.305580 0.313675 0.243071 -0.192732
C29   C     C_R   0.741695 0.801405 0.802711 -0.189115
C30   C     C_R   0.258309 0.301442 0.197275 -0.189103
C31   C     C_R   0.670158 0.293679 0.643677 -0.238756
C32   C     C_R   0.329838 0.793654 0.356333 -0.238697
C33   C     C_R   0.630793 0.145067 0.634308 -0.134035
C34   C     C_R   0.369206 0.645062 0.365693 -0.134041
C35   C     C_R   0.639422 0.984619 0.672032 -0.221220
C36   C     C_R   0.360580 0.484635 0.327962 -0.221246
H1    H     H_    0.835656 0.811636 0.885469 0.141160
H2    H     H_    0.164349 0.311678 0.114515 0.141151
H3    H     H_    0.890707 0.359254 0.834458 0.149731
H4    H     H_    0.109286 0.859221 0.165556 0.149743
H5    H     H_    0.835639 0.530527 0.748834 0.147179
H6    H     H_    0.164353 0.030474 0.251188 0.147233
H7    H     H_    0.752992 0.551691 0.668541 0.143874
H8    H     H_    0.247000 0.051636 0.331481 0.143891
H9    H     H_    0.664272 0.417344 0.614638 0.136681
H10   H     H_    0.335722 0.917302 0.385379 0.136685
H11   H     H_    0.609249 0.869650 0.665587 0.149931
H12   H     H_    0.390756 0.369683 0.334400 0.149922
H13   H     H_    0.664276 0.698460 0.751279 0.153157
H14   H     H_    0.335731 0.198511 0.248701 0.153145
H15   H     H_    0.746912 0.677323 0.831590 0.151259
H16   H     H_    0.253094 0.177375 0.168390 0.151238
C37   C     C_3   0.257043 0.242288 0.817336 0.096566
C38   C     C_3   0.743019 0.742521 0.182690 0.097443
C39   C     C_3   0.236235 0.919638 0.782528 -0.460317
C40   C     C_3   0.763548 0.419557 0.217258 -0.460439
C41   C     C_3   0.287359 0.932452 0.736411 -0.335611
C42   C     C_3   0.712451 0.432519 0.263416 -0.335657
H17   H     H_    0.279431 0.175065 0.860170 0.163804
H18   H     H_    0.720569 0.675606 0.139833 0.163661
H19   H     H_    0.203028 0.818919 0.763071 0.256518
H20   H     H_    0.796665 0.318451 0.236626 0.256680
H21   H     H_    0.253606 0.866729 0.830100 0.237643
H22   H     H_    0.746121 0.367077 0.169647 0.237596
H23   H     H_    0.329067 0.889410 0.762132 0.235106
H24   H     H_    0.670703 0.389868 0.237690 0.235218
H25   H     H_    0.279288 0.832275 0.696260 0.187287
H26   H     H_    0.720465 0.332107 0.303508 0.187118
C43   C     C_1   0.378591 0.147255 0.624598 -0.240822
C44   C     C_1   0.621390 0.647308 0.375377 -0.240926
C45   C     C_3   0.206962 0.110739 0.791090 -0.001257
C46   C     C_3   0.792993 0.610475 0.208862 -0.001455
C47   C     C_3   0.302313 0.274415 0.764812 0.139207
C48   C     C_3   0.697771 0.774756 0.235227 0.139081
C49   C     C_3   0.292511 0.130972 0.708750 0.115622
C50   C     C_3   0.707451 0.630961 0.291204 0.115867
C51   C     C_3   0.232340 0.176763 0.673799 -0.580318
C52   C     C_3   0.767650 0.676197 0.326192 -0.580751
C53   C     C_3   0.182209 0.173932 0.722528 0.287166
C54   C     C_3   0.817776 0.672825 0.277491 0.286959
C55   C     C_1   0.340045 0.140241 0.662492 0.056661
C56   C     C_1   0.659925 0.640300 0.337469 0.056775
C57   C     C_1   0.159592 0.093908 0.837394 0.139400
C58   C     C_1   0.840394 0.593736 0.162594 0.138609
C59   C     C_1   0.121186 0.083490 0.875367 -0.174549
C60   C     C_1   0.878814 0.583413 0.124636 -0.174823
H27   H     H_    0.149737 0.068565 0.704379 0.088479
H28   H     H_    0.850045 0.566761 0.295572 0.089325
H29   H     H_    0.235153 0.310605 0.648135 0.218036
H30   H     H_    0.765003 0.810192 0.351798 0.217744
H31   H     H_    0.294128 0.414018 0.743588 0.136277
H32   H     H_    0.706070 0.914208 0.256524 0.136466
H33   H     H_    0.222285 0.072374 0.635408 0.183278
H34   H     H_    0.777580 0.571780 0.364607 0.183231
O11   O     O_R   0.942420 0.735670 0.056390 -0.566954
O12   O     O_R   0.057580 0.235670 0.943610 -0.566775
O13   O     O_R   0.061840 0.404850 0.068350 -0.596647
O14   O     O_R   0.938160 0.904850 0.931650 -0.596656
C61   C     C_R   0.081538 0.573583 0.084375 0.943226
C62   C     C_R   0.918462 0.073580 0.915625 0.943146
O15   O     O_R   0.943100 0.406010 0.064050 -0.577708
O16   O     O_R   0.056900 0.906010 0.935950 -0.577721
O17   O     O_R   0.938020 0.234710 0.939330 -0.592784
O18   O     O_R   0.061980 0.734710 0.060670 -0.592811
C63   C     C_R   0.924330 0.574401 0.078829 0.937797
C64   C     C_R   0.075673 0.074416 0.921176 0.937640
O19   O     O_3   0.998500 0.567790 0.959120 -0.280201
O20   O     O_3   0.001500 0.067790 0.040880 -0.280286
V3    V     V_3+5 0.000280 0.293330 0.007580 1.206611
V4    V     V_3+5 0.999720 0.793330 0.992420 1.206549
N1    N     N_R   0.150685 0.350772 0.725050 0.265401
O21   O     O_R   0.097809 0.353881 0.745227 -0.381197
O22   O     O_R   0.173132 0.503753 0.704729 -0.409783
N2    N     N_R   0.849601 0.849125 0.275177 0.265334
O23   O     O_R   0.903081 0.850794 0.256621 -0.381498
O24   O     O_R   0.826817 0.002978 0.294297 -0.409081
Br1   Br    Br    0.229137 0.474979 0.851417 -0.511911
Br2   Br    Br    0.771088 0.975052 0.148631 -0.512263
N3    N     N_R   0.362698 0.272068 0.793250 0.248936
O25   O     O_R   0.395779 0.417091 0.788441 -0.350303
O26   O     O_R   0.383382 0.129138 0.824949 -0.368986
N4    N     N_R   0.637386 0.772987 0.206783 0.248879
O27   O     O_R   0.604428 0.918248 0.211661 -0.350531
O28   O     O_R   0.616580 0.630334 0.175017 -0.369036

loop_
_geom_bond_atom_site_label_1
_geom_bond_atom_site_label_2
_geom_bond_distance
_ccdc_geom_bond_type
C18   C20   1.400029 A    
C39   C45   1.552008 S    
N2    O23   1.301894 A    
C44   C56   1.215812 T    
C42   H24   1.109576 S    
C41   H23   1.109571 S    
O1    C3    1.333256 A    
O12   V3    1.963802 S    
C42   C50   1.555872 S    
C2    O7    1.327009 A    
C41   C49   1.555670 S    
C39   H21   1.112054 S    
N1    O21   1.301159 A    
C27   C29   1.400061 A    
C7    C62   1.487435 S    
O5    C3    1.337234 A    
C18   H6    1.083685 S    
C54   H28   1.114659 S    
O18   V4    1.995133 S    
O17   V3    1.995123 S    
C11   C17   1.403865 A    
C23   C25   1.410852 A    
C12   C14   1.410866 A    
O13   C61   1.337833 A    
C48   C50   1.567749 S    
C37   C45   1.562414 S    
C40   H20   1.111368 S    
C28   H14   1.083681 S    
C46   C58   1.493982 S    
C33   C35   1.409454 A    
C59   C64   1.451172 S    
C52   H30   1.110349 S    
O14   C62   1.337846 A    
C5    C7    1.408686 A    
C49   C51   1.552456 S    
C48   N4    1.468559 S    
C38   H18   1.112875 S    
C32   H10   1.084192 S    
C58   C60   1.215768 T    
C19   C21   1.403606 A    
C61   O18   1.333809 A    
C39   H19   1.111412 S    
C51   C53   1.572040 S    
C26   C36   1.404911 A    
C47   H31   1.114727 S    
C51   H29   1.110219 S    
C28   C30   1.400062 A    
C48   H32   1.114714 S    
O6    V2    2.004576 S    
C2    C43   1.451619 S    
C53   N1    1.471867 S    
C32   C34   1.408686 A    
C36   H12   1.084191 S    
C50   C56   1.492729 S    
C47   C49   1.567691 S    
C27   H13   1.083672 S    
C34   C36   1.409460 A    
C42   H26   1.113256 S    
C5    C15   1.406005 A    
O12   C64   1.332304 A    
C6    C16   1.405999 A    
C52   H34   1.113626 S    
O4    C2    1.328596 A    
C5    H1    1.084190 S    
N4    O28   1.301214 A    
O5    V1    2.004547 S    
O3    C1    1.328588 A    
C37   H17   1.112868 S    
C35   H11   1.084187 S    
C39   C41   1.555687 S    
C40   C46   1.551965 S    
O4    V2    1.981250 S    
C8    C61   1.487428 S    
C43   C55   1.215803 T    
C15   C29   1.403614 A    
C52   C54   1.571610 S    
O6    C4    1.337247 A    
C45   C57   1.494010 S    
C22   C32   1.405974 A    
O1    V2    1.995152 S    
O2    V1    1.995139 S    
C31   C33   1.408676 A    
O16   C64   1.334677 A    
C13   C23   1.414665 A    
O15   C63   1.334663 A    
C14   C24   1.414663 A    
C8    C10   1.409441 A    
C9    C11   1.404852 A    
C13   C15   1.411782 A    
C10   C12   1.404855 A    
C41   H25   1.113255 S    
C25   C35   1.404910 A    
C29   H15   1.083556 S    
N3    O25   1.301089 A    
C30   H16   1.083569 S    
C9    H3    1.084192 S    
O3    V1    1.981386 S    
O20   V3    1.773898 S    
C6    H2    1.084196 S    
C60   C63   1.451196 S    
C10   H4    1.084198 S    
O2    C4    1.333260 A    
O19   V4    1.773963 S    
N2    O24   1.301852 A    
C7    C9    1.409435 A    
C50   C52   1.552446 S    
C4    C33   1.487483 S    
N3    O26   1.301205 A    
C54   N2    1.471486 S    
C38   C48   1.563843 S    
C37   Br1   1.949789 S    
C57   C59   1.215767 T    
C37   C47   1.563834 S    
N4    O27   1.301098 A    
C40   H22   1.112091 S    
C45   C53   1.570587 S    
C14   C16   1.411794 A    
C19   H7    1.083556 S    
C24   C26   1.410868 A    
O7    V1    1.967067 S    
C1    O8    1.327019 A    
C17   C19   1.400030 A    
O8    V2    1.966990 S    
C47   N3    1.468555 S    
C26   C28   1.403897 A    
C1    C44   1.451644 S    
O13   V3    2.004622 S    
C17   H5    1.083675 S    
C49   C55   1.492726 S    
C16   C30   1.403629 A    
C21   C23   1.411774 A    
C22   C24   1.411786 A    
C20   H8    1.083568 S    
C6    C8    1.408694 A    
C11   C13   1.410851 A    
C12   C18   1.403880 A    
N1    O22   1.301589 A    
C31   H9    1.084186 S    
C38   C46   1.562466 S    
O16   V4    1.981513 S    
O15   V3    1.981650 S    
C25   C27   1.403882 A    
O9    V2    1.774457 S    
C51   H33   1.113623 S    
C40   C42   1.555830 S    
O10   V1    1.774392 S    
C3    C34   1.487476 S    
C46   C54   1.570304 S    
O11   V4    1.963731 S    
C53   H27   1.114562 S    
C21   C31   1.405979 A    
O11   C63   1.332320 A    
C62   O17   1.333812 A    
O14   V4    2.004652 S    
C20   C22   1.403622 A    
C38   Br2   1.949764 S    
