data_mof_unit_12022.cif
_audit_creation_date              2012-12-11T15:09:47-0500
_audit_creation_method            fapswitch 2.2
_symmetry_space_group_name_H-M    P1
_symmetry_Int_Tables_number       1
_space_group_crystal_system       triclinic
_cell_length_a                    20.894264
_cell_length_b                    7.126696
_cell_length_c                    14.140827
_cell_angle_alpha                 89.999599
_cell_angle_beta                  98.188021
_cell_angle_gamma                 89.999354
_cell_volume                      2084.20395352

loop_
_atom_site_label
_atom_site_type_symbol
_atom_type_description
_atom_site_fract_x
_atom_site_fract_y
_atom_site_fract_z
_atom_type_partial_charge
O1    O     O_R   0.447130 0.507140 0.597350 -0.539357
O2    O     O_R   0.552870 0.007140 0.402650 -0.539363
O3    O     O_R   0.578910 0.181280 0.586990 -0.531416
O4    O     O_R   0.421090 0.681280 0.413010 -0.531415
C1    C     C_R   0.604816 0.344442 0.606597 0.777355
C2    C     C_R   0.395184 0.844444 0.393402 0.777366
O5    O     O_R   0.449230 0.177860 0.608640 -0.531317
O6    O     O_R   0.550770 0.677860 0.391360 -0.531321
O7    O     O_R   0.422260 0.000770 0.424450 -0.544583
O8    O     O_R   0.577740 0.500770 0.575550 -0.544578
C3    C     C_R   0.434316 0.345340 0.636114 0.789250
C4    C     C_R   0.565682 0.845341 0.363885 0.789252
O9    O     O_3   0.491310 0.336980 0.439550 -0.365302
O10   O     O_3   0.508690 0.836980 0.560450 -0.365296
V1    V     V_3+5 0.501610 0.064760 0.511210 1.596330
V2    V     V_3+5 0.498390 0.564760 0.488790 1.596343
C5    C     C_R   0.618704 0.699823 0.131125 0.329288
C6    C     C_R   0.381299 0.199772 0.868869 0.329430
H1    H     H_    0.693331 0.749644 0.997528 0.185601
H2    H     H_    0.306660 0.249499 0.002464 0.185389
C7    C     C_R   0.601628 0.842761 0.282191 -0.186690
C8    C     C_R   0.398372 0.342755 0.717810 -0.186704
C9    C     C_R   0.912718 0.893864 0.295872 -0.151006
C10   C     C_R   0.087282 0.393914 0.704129 -0.151001
C11   C     C_R   0.874869 0.907944 0.368193 -0.129596
C12   C     C_R   0.125131 0.408004 0.631808 -0.129587
C13   C     C_R   0.808100 0.897589 0.347379 -0.146058
C14   C     C_R   0.191899 0.397611 0.652622 -0.146053
C15   C     C_R   0.777030 0.873639 0.252461 0.114333
C16   C     C_R   0.222969 0.373618 0.747538 0.114336
C17   C     C_R   0.815521 0.860391 0.176372 0.009308
C18   C     C_R   0.184478 0.360360 0.823627 0.009298
C19   C     C_R   0.708734 0.851525 0.232443 0.043844
C20   C     C_R   0.291265 0.351486 0.767555 0.043871
C21   C     C_R   0.681808 0.776065 0.143700 -0.088807
C22   C     C_R   0.318190 0.275991 0.856295 -0.088686
C23   C     C_R   0.717771 0.782100 0.067981 -0.042104
C24   C     C_R   0.282225 0.281991 0.932012 -0.042173
C25   C     C_R   0.782669 0.838675 0.080502 0.056705
C26   C     C_R   0.217329 0.338606 0.919495 0.056775
C27   C     C_R   0.666833 0.892731 0.299270 -0.281851
C28   C     C_R   0.333166 0.392718 0.700733 -0.281842
C29   C     C_R   0.576539 0.744563 0.197797 0.376460
C30   C     C_R   0.423464 0.244550 0.802201 0.376520
C31   C     C_R   0.884574 0.869265 0.200867 -0.069687
C32   C     C_R   0.115425 0.369267 0.799133 -0.069703
H3    H     H_    0.683881 0.961161 0.366261 0.125997
H4    H     H_    0.316118 0.461164 0.633745 0.126002
H5    H     H_    0.964814 0.903179 0.314180 0.102773
H6    H     H_    0.035186 0.403260 0.685822 0.102769
H7    H     H_    0.782067 0.900253 0.407940 0.103940
H8    H     H_    0.217932 0.400286 0.592060 0.103944
H9    H     H_    0.897559 0.925046 0.441438 0.119199
H10   H     H_    0.102442 0.425145 0.558564 0.119201
C33   C     C_1   0.166724 0.857627 0.167996 -0.184096
C34   C     C_1   0.833276 0.357631 0.832003 -0.184080
C35   C     C_1   0.219107 0.855635 0.219121 -0.005789
C36   C     C_1   0.780894 0.355636 0.780878 -0.005628
C37   C     C_1   0.280741 0.853937 0.279421 0.004285
C38   C     C_1   0.719260 0.353934 0.720577 0.004516
C39   C     C_1   0.332929 0.851296 0.331043 -0.125477
C40   C     C_1   0.667072 0.351291 0.668956 -0.125415
O11   O     O_R   0.922300 0.202240 0.924350 -0.537213
O12   O     O_R   0.077700 0.702240 0.075650 -0.537207
O13   O     O_R   0.050780 0.535130 0.891350 -0.542083
O14   O     O_R   0.949220 0.035130 0.108650 -0.542084
C41   C     C_R   0.070275 0.369400 0.869224 0.670605
C42   C     C_R   0.929726 0.869400 0.130776 0.670608
O15   O     O_R   0.921100 0.531560 0.912990 -0.542824
O16   O     O_R   0.078900 0.031560 0.087010 -0.542827
O17   O     O_R   0.947120 0.708470 0.097370 -0.540228
O18   O     O_R   0.052880 0.208470 0.902630 -0.540234
C43   C     C_R   0.895802 0.363632 0.893608 0.720841
C44   C     C_R   0.104198 0.863630 0.106391 0.720837
O19   O     O_3   0.008710 0.375800 0.060400 -0.373685
O20   O     O_3   0.991290 0.875800 0.939600 -0.373690
V3    V     V_3+5 0.998380 0.648080 0.988790 1.408366
V4    V     V_3+5 0.001620 0.148080 0.011210 1.408353
S1    S     S_3+6 0.492708 0.681123 0.178405 0.111032
O21   O     O_2   0.483209 0.507653 0.235269 -0.315290
O22   O     O_2   0.453558 0.838394 0.211565 -0.347176
O23   O     O_3   0.464750 0.638144 0.063280 -0.380902
H11   H     H_    0.423680 0.568996 0.063964 0.374039
S2    S     S_3+6 0.507297 0.181144 0.821593 0.110976
O24   O     O_2   0.516798 0.007676 0.764730 -0.315467
O25   O     O_2   0.546441 0.338418 0.788426 -0.346913
O26   O     O_3   0.535264 0.138175 0.936721 -0.381171
H12   H     H_    0.576142 0.068072 0.936001 0.373903
S3    S     S_3+6 0.600008 0.515170 0.046837 0.106113
O27   O     O_2   0.559496 0.369548 0.087169 -0.228025
O28   O     O_2   0.563856 0.594755 0.956189 -0.243763
O29   O     O_3   0.667964 0.409589 0.022628 -0.528117
H13   H     H_    0.656073 0.350251 0.959223 0.366308
S4    S     S_3+6 0.400015 0.015138 0.953169 0.105946
O30   O     O_2   0.440555 0.869557 0.912865 -0.227975
O31   O     O_2   0.436153 0.094785 0.043813 -0.243970
O32   O     O_3   0.332073 0.909464 0.977368 -0.528110
H14   H     H_    0.343780 0.851812 0.041220 0.366028
C45   C     C_3   0.814714 0.877343 0.991946 -0.351589
C46   C     C_3   0.770019 0.898003 0.896636 -0.742488
H15   H     H_    0.748181 0.760892 0.872693 0.234474
H16   H     H_    0.731655 0.003574 0.902615 0.239717
H17   H     H_    0.798785 0.946003 0.840964 0.223111
H18   H     H_    0.840571 0.012807 0.003088 0.200463
H19   H     H_    0.848837 0.762918 0.982649 0.206980
C47   C     C_3   0.185289 0.377293 0.008052 -0.351608
C48   C     C_3   0.229990 0.397963 0.103356 -0.742464
H20   H     H_    0.251823 0.260850 0.127308 0.234329
H21   H     H_    0.268357 0.503515 0.097364 0.239835
H22   H     H_    0.201229 0.445992 0.159029 0.223122
H23   H     H_    0.159433 0.512759 0.996910 0.200467
H24   H     H_    0.151166 0.262876 0.017358 0.206954

loop_
_geom_bond_atom_site_label_1
_geom_bond_atom_site_label_2
_ccdc_geom_bond_type
O14   C42   A    
O26   H12   S    
C9    C31   A    
C13   C15   A    
O12   V3    S    
O15   V3    S    
O1    C3    A    
S2    O26   S    
O2    C4    A    
C2    O7    A    
O32   H14   S    
C47   H24   S    
O5    C3    A    
C2    C39   S    
C21   C23   A    
C11   H9    S    
C9    H5    S    
O16   V4    S    
C47   C48   S    
C29   S1    S    
C15   C19   A    
C38   C40   T    
C41   O18   A    
O29   H13   S    
O18   V4    S    
H1    C23   S    
C7    C29   A    
C33   C44   S    
C8    C30   A    
C17   C25   A    
O13   C41   A    
C20   C28   A    
O16   C44   A    
C48   H20   S    
O15   C43   A    
S3    O28   D    
O5    V1    S    
C45   H18   S    
O6    V2    S    
C48   H21   S    
C45   H19   S    
C12   H10   S    
C13   H7    S    
C47   H23   S    
C10   H6    S    
O14   V4    S    
C37   C39   T    
O13   V3    S    
C16   C20   A    
C16   C18   A    
C5    S3    S    
O20   V3    S    
O4    C2    A    
S1    O22   D    
O11   C43   A    
S4    O32   S    
O3    C1    A    
C4    C7    S    
C46   H17   S    
O4    V2    S    
C5    C29   A    
C6    C30   A    
H2    C24   S    
C25   C45   S    
C45   C46   S    
O6    C4    A    
C31   C42   S    
C46   H16   S    
C27   H3    S    
O1    V2    S    
C28   H4    S    
S2    O24   D    
S3    O29   S    
S4    O31   D    
O2    V1    S    
O19   V3    S    
C7    C27   A    
C33   C35   T    
C6    S4    S    
C48   H22   S    
O17   V3    S    
O3    V1    S    
C26   C47   S    
C34   C43   S    
C18   C32   A    
C10   C12   A    
O20   V4    S    
C30   S2    S    
S1    O23   S    
C11   C13   A    
C3    C8    S    
C12   C14   A    
C19   C27   A    
C22   C24   A    
O7    V1    S    
C10   C32   A    
C32   C41   S    
C23   C25   A    
O8    V2    S    
C24   C26   A    
C14   H8    S    
C8    C28   A    
C6    C22   A    
C42   O17   A    
C14   C16   A    
C46   H15   S    
C19   C21   A    
C34   C36   T    
C1    C40   S    
C20   C22   A    
C18   C26   A    
S4    O30   D    
O19   V4    S    
C35   C37   S    
S1    O21   D    
C1    O8    A    
C9    C11   A    
C15   C17   A    
O23   H11   S    
C17   C31   A    
O9    V2    S    
O12   C44   A    
O10   V1    S    
S2    O25   D    
C5    C21   A    
S3    O27   D    
C36   C38   S    
O11   V4    S    
