data_mof_unit_18697.cif
_audit_creation_date              2013-03-05T15:56:35-0500
_audit_creation_method            fapswitch 2.2
_symmetry_space_group_name_H-M    P1
_symmetry_Int_Tables_number       1
_space_group_crystal_system       triclinic
_cell_length_a                    6.929764
_cell_length_b                    14.549449
_cell_length_c                    15.977585
_cell_angle_alpha                 90.435597
_cell_angle_beta                  89.996389
_cell_angle_gamma                 89.971693
_cell_volume                      1610.88123546

loop_
_atom_site_label
_atom_site_type_symbol
_atom_site_description
_atom_site_fract_x
_atom_site_fract_y
_atom_site_fract_z
_atom_type_partial_charge
O1    O     O_R   0.361600 0.167310 0.164620 -0.602318
O2    O     O_R   0.638400 0.832690 0.835380 -0.602319
O3    O     O_R   0.691080 0.157570 0.338750 -0.604258
O4    O     O_R   0.308920 0.842430 0.661250 -0.604258
O5    O     O_R   0.861410 0.336420 0.339360 -0.594885
O6    O     O_R   0.138590 0.663580 0.660640 -0.594885
C1    C     C_R   0.522046 0.135220 0.367504 0.973039
C2    C     C_R   0.477954 0.864780 0.632496 0.973039
O7    O     O_R   0.691320 0.156280 0.165240 -0.602641
O8    O     O_R   0.308680 0.843720 0.834760 -0.602640
O9    O     O_R   0.861640 0.335130 0.164600 -0.599369
O10   O     O_R   0.138360 0.664870 0.835400 -0.599369
C3    C     C_R   0.522289 0.133790 0.136065 0.911151
C4    C     C_R   0.477711 0.866210 0.863935 0.911151
O11   O     O_R   0.361370 0.168600 0.339370 -0.580934
O12   O     O_R   0.638630 0.831400 0.660630 -0.580934
O13   O     O_3   0.527990 0.310540 0.251980 -0.269017
O14   O     O_3   0.472010 0.689460 0.748020 -0.269017
V1    V     V_3+5 0.802830 0.240980 0.251990 1.176350
V2    V     V_3+5 0.197170 0.759020 0.748010 1.176350
O15   O     O_R   0.191360 0.346160 0.165220 -0.604773
O16   O     O_R   0.808640 0.653840 0.834780 -0.604773
C5    C     C_R   0.022285 0.368244 0.136058 0.913818
C6    C     C_R   0.977715 0.631756 0.863942 0.913819
O17   O     O_R   0.191130 0.347440 0.338740 -0.575474
O18   O     O_R   0.808870 0.652560 0.661260 -0.575473
C7    C     C_R   0.022153 0.369010 0.367867 1.044687
C8    C     C_R   0.977847 0.630990 0.632132 1.044686
V3    V     V_3+5 0.302840 0.262750 0.251990 1.193140
V4    V     V_3+5 0.697160 0.737250 0.748010 1.193140
O19   O     O_3   0.027820 0.193180 0.251990 -0.283652
O20   O     O_3   0.972180 0.806820 0.748010 -0.283652
C9    C     C_3   0.820288 0.471918 0.478901 -0.209910
C10   C     C_3   0.179712 0.528082 0.521099 -0.209910
C11   C     C_3   0.913381 0.462056 0.567352 -0.258837
C12   C     C_3   0.086619 0.537944 0.432647 -0.258837
C13   C     C_3   0.989134 0.561911 0.562009 -0.277672
C14   C     C_3   0.010866 0.438089 0.437991 -0.277672
C15   C     C_3   0.898696 0.570763 0.474868 0.441229
C16   C     C_3   0.101304 0.429237 0.525131 0.441229
C17   C     C_R   0.820558 0.525107 0.967286 -0.130923
C18   C     C_R   0.179442 0.474893 0.032714 -0.130923
C19   C     C_R   0.831561 0.462084 0.033000 -0.119533
C20   C     C_R   0.168439 0.537916 0.967000 -0.119533
H1    H     H_    0.698703 0.433650 0.057303 0.124208
H2    H     H_    0.301297 0.566350 0.942696 0.124208
C21   C     C_R   0.011163 0.436072 0.066691 -0.121814
C22   C     C_R   0.988837 0.563928 0.933308 -0.121814
C23   C     C_R   0.679418 0.025591 0.467627 -0.131426
C24   C     C_R   0.320582 0.974409 0.532373 -0.131426
C25   C     C_R   0.668494 0.960397 0.531369 -0.056186
C26   C     C_R   0.331506 0.039603 0.468630 -0.056185
C27   C     C_R   0.488935 0.933955 0.564632 -0.133760
C28   C     C_R   0.511065 0.066045 0.435368 -0.133760
C29   C     C_R   0.679490 0.025550 0.032696 -0.132101
C30   C     C_R   0.320510 0.974450 0.967304 -0.132101
H3    H     H_    0.820289 0.044187 0.056779 0.121066
H4    H     H_    0.179711 0.955812 0.943221 0.121066
C31   C     C_R   0.668454 0.961513 0.966967 -0.127343
C32   C     C_R   0.331546 0.038487 0.033033 -0.127343
C33   C     C_R   0.488807 0.935066 0.933308 -0.121067
C34   C     C_R   0.511193 0.064934 0.066692 -0.121067
H5    H     H_    0.844958 0.430015 0.622764 0.173029
H6    H     H_    0.155042 0.569985 0.377236 0.173029
H7    H     H_    0.671812 0.450609 0.461256 0.172572
H8    H     H_    0.328188 0.549391 0.538744 0.172572
N1    N     N_R   0.785447 0.648009 0.444358 0.226357
O21   O     O_R   0.711514 0.644635 0.369598 -0.404977
O22   O     O_R   0.760910 0.721172 0.490354 -0.433353
N2    N     N_R   0.214553 0.351991 0.555643 0.226358
O23   O     O_R   0.288486 0.355365 0.630401 -0.404980
O24   O     O_R   0.239090 0.278827 0.509645 -0.433351
H9    H     H_    0.679764 0.543410 0.943200 0.122454
H10   H     H_    0.320236 0.456590 0.056800 0.122454
H11   H     H_    0.820119 0.044161 0.443633 0.126556
H12   H     H_    0.179881 0.955839 0.556367 0.126556
H13   H     H_    0.801292 0.930692 0.554512 0.132995
H14   H     H_    0.198708 0.069308 0.445488 0.132995
H15   H     H_    0.801309 0.932643 0.942627 0.123570
H16   H     H_    0.198691 0.067357 0.057373 0.123570

loop_
_geom_bond_atom_site_label_1
_geom_bond_atom_site_label_2
_geom_bond_distance
_ccdc_geom_bond_type
V4    O20   2.158385 S    
C29   C31   1.400720 A    
C10   C13   1.551775 S    
O13   V3    1.708472 S    
O4    C2    1.300573 A    
V1    O19   1.706891 S    
C10   H8    1.110522 S    
C9    H7    1.110522 S    
O9    V1    2.005413 S    
C9    C15   1.539424 S    
C16   N2    1.457451 S    
C10   C16   1.539424 S    
C11   C13   1.547978 S    
O3    C1    1.300573 A    
C7    C14   1.501456 S    
O12   V4    2.004669 S    
C23   C28   1.406119 A    
C29   C34   1.406437 A    
C32   C34   1.408719 A    
O7    C3    1.301745 A    
O13   V1    2.156333 S    
O5    C7    1.292438 A    
O7    V1    2.003007 S    
O6    C8    1.292438 A    
C3    C34   1.490413 S    
C20   H2    1.082755 S    
C23   C25   1.399087 A    
C24   C26   1.399087 A    
C23   H11   1.082785 S    
O3    V1    2.005098 S    
N2    O23   1.300314 A    
O14   V4    1.708473 S    
C10   C12   1.561122 S    
C1    O11   1.296353 A    
C2    O12   1.296353 A    
C17   C19   1.401271 A    
C18   C20   1.401271 A    
C26   H14   1.082801 S    
C26   C28   1.407920 A    
O11   V3    2.004671 S    
O15   C5    1.301947 A    
O17   V3    2.002916 S    
C31   C33   1.408719 A    
C24   C27   1.406118 A    
C18   H10   1.082725 S    
N1    O21   1.300349 A    
C6    C22   1.491567 S    
C5    C21   1.491567 S    
O8    C4    1.301745 A    
C31   H15   1.082760 S    
C4    C33   1.490412 S    
O15   V3    2.004089 S    
C30   C32   1.400720 A    
N1    O22   1.300006 A    
C25   H13   1.082801 S    
C24   H12   1.082785 S    
O10   V2    2.005416 S    
O1    V3    2.003151 S    
C19   H1    1.082755 S    
O18   V4    2.002914 S    
C29   H3    1.082736 S    
O16   C6    1.301946 A    
O1    C3    1.296916 A    
V2    O20   1.706891 S    
C32   H16   1.082760 S    
O16   V4    2.004092 S    
C15   N1    1.457450 S    
C12   C15   1.540566 S    
C2    C27   1.486985 S    
C11   H5    1.110138 S    
O5    V1    2.003213 S    
O17   C7    1.297532 A    
O6    V2    2.003213 S    
O10   C6    1.297373 A    
O18   C8    1.297532 A    
C9    C14   1.551773 S    
O2    V4    2.003153 S    
C12   C14   1.547977 S    
C11   C16   1.540567 S    
V3    O19   2.158387 S    
C14   C16   1.533165 S    
O8    V2    2.003007 S    
C8    C13   1.501454 S    
O9    C5    1.297373 A    
C9    C11   1.561122 S    
C17   C22   1.406712 A    
C30   H4    1.082736 S    
O14   V2    2.156334 S    
C18   C21   1.406712 A    
O2    C4    1.296915 A    
C17   H9    1.082725 S    
O4    V2    2.005096 S    
C13   C15   1.533170 S    
C30   C33   1.406437 A    
N2    O24   1.300039 A    
C1    C28   1.486985 S    
C25   C27   1.407921 A    
C12   H6    1.110139 S    
C19   C21   1.408812 A    
C20   C22   1.408812 A    
