data_mof_unit_67256.cif
_audit_creation_date              2013-03-05T16:01:28-0500
_audit_creation_method            fapswitch 2.2
_symmetry_space_group_name_H-M    P1
_symmetry_Int_Tables_number       1
_space_group_crystal_system       triclinic
_cell_length_a                    19.922598
_cell_length_b                    20.446993
_cell_length_c                    8.874393
_cell_angle_alpha                 90.308785
_cell_angle_beta                  92.255874
_cell_angle_gamma                 89.470749
_cell_volume                      3612.04663922

loop_
_atom_site_label
_atom_site_type_symbol
_atom_site_description
_atom_site_fract_x
_atom_site_fract_y
_atom_site_fract_z
_atom_type_partial_charge
P1    P     P_3+3 0.136530 0.426510 0.931350 0.456956
P2    P     P_3+3 0.136530 0.573490 0.431350 0.459434
P3    P     P_3+3 0.636530 0.926510 0.931350 0.459718
P4    P     P_3+3 0.636530 0.073490 0.431350 0.458578
O1    O     O_2   0.130070 0.404060 0.104920 -0.388797
O2    O     O_2   0.130070 0.595940 0.604920 -0.393140
O3    O     O_2   0.630070 0.904060 0.104920 -0.391023
O4    O     O_2   0.630070 0.095940 0.604920 -0.391537
O5    O     O_3   0.075780 0.466370 0.861070 -0.381014
O6    O     O_3   0.075780 0.533630 0.361070 -0.374155
O7    O     O_3   0.575780 0.966370 0.861070 -0.375562
O8    O     O_3   0.575780 0.033630 0.361070 -0.375470
O9    O     O_3   0.022320 0.344950 0.359800 -0.378619
O10   O     O_3   0.022320 0.655050 0.859800 -0.374367
O11   O     O_3   0.522320 0.844950 0.359800 -0.365395
O12   O     O_3   0.522320 0.155050 0.859800 -0.378496
O13   O     O_2   0.140363 0.302796 0.267896 -0.355406
O14   O     O_2   0.141549 0.694683 0.778875 -0.366195
O15   O     O_2   0.640673 0.802765 0.271701 -0.350778
O16   O     O_2   0.641628 0.193976 0.776412 -0.363578
O17   O     O_3   0.213038 0.470274 0.932684 -0.575427
O18   O     O_3   0.214333 0.530151 0.435282 -0.577988
O19   O     O_3   0.714084 0.968016 0.931780 -0.575494
O20   O     O_3   0.714236 0.030010 0.434859 -0.579279
O21   O     O_3   0.064111 0.208860 0.343038 -0.506631
O22   O     O_3   0.061753 0.790201 0.842444 -0.495928
O23   O     O_3   0.561079 0.709310 0.335152 -0.498005
O24   O     O_3   0.563731 0.289899 0.844353 -0.488768
H1    H     H_    0.970876 0.241401 0.258439 0.148030
H2    H     H_    0.965256 0.760196 0.777579 0.135065
H3    H     H_    0.461056 0.738180 0.300467 0.122254
H4    H     H_    0.467671 0.260098 0.775031 0.131773
C1    C     C_3   0.975588 0.135987 0.263588 -0.504695
C2    C     C_3   0.971132 0.865409 0.782351 -0.489177
C3    C     C_3   0.469871 0.632570 0.299088 -0.526199
C4    C     C_3   0.474093 0.365274 0.777183 -0.489245
H5    H     H_    0.999334 0.131273 0.154498 0.240869
H6    H     H_    0.988196 0.868713 0.666423 0.229911
H7    H     H_    0.461435 0.634562 0.175987 0.239552
H8    H     H_    0.493511 0.368334 0.663231 0.233596
P5    P     P_3+3 0.863410 0.426100 0.379280 0.611992
P6    P     P_3+3 0.863410 0.573900 0.879280 0.590834
P7    P     P_3+3 0.363410 0.926100 0.379280 0.652747
P8    P     P_3+3 0.363410 0.073900 0.879280 0.650014
P9    P     P_3+3 0.915794 0.285404 0.919513 0.468733
P10   P     P_3+3 0.914014 0.714675 0.421133 0.494861
P11   P     P_3+3 0.415725 0.785524 0.917101 0.514831
P12   P     P_3+3 0.414526 0.214840 0.419278 0.496848
O25   O     O_2   0.869860 0.403670 0.205810 -0.387293
O26   O     O_2   0.869860 0.596330 0.705810 -0.378263
O27   O     O_2   0.369860 0.903670 0.205810 -0.356210
O28   O     O_2   0.369860 0.096330 0.705810 -0.363541
O29   O     O_3   0.977590 0.344880 0.951200 -0.262263
O30   O     O_3   0.977590 0.655120 0.451200 -0.251488
O31   O     O_3   0.477590 0.844880 0.951200 -0.246064
O32   O     O_3   0.477590 0.155120 0.451200 -0.252197
O33   O     O_2   0.864268 0.295434 0.043611 -0.423467
O34   O     O_2   0.863094 0.704850 0.546012 -0.414937
O35   O     O_2   0.362212 0.797937 0.035625 -0.410325
O36   O     O_2   0.362766 0.205178 0.542365 -0.417576
O37   O     O_3   0.781209 0.459536 0.387166 -0.536055
O38   O     O_3   0.781885 0.539375 0.858596 -0.541607
O39   O     O_3   0.279915 0.957176 0.384587 -0.554329
O40   O     O_3   0.280283 0.042861 0.882521 -0.550572
O41   O     O_3   0.951897 0.209052 0.961764 -0.615936
O42   O     O_3   0.947789 0.791832 0.464416 -0.619355
O43   O     O_3   0.449144 0.708846 0.969131 -0.607693
O44   O     O_3   0.448960 0.291701 0.462771 -0.621772
C5    C     C_3   0.009393 0.198414 0.876473 0.691164
C6    C     C_3   0.007467 0.801327 0.386899 0.695712
C7    C     C_3   0.509698 0.695919 0.896338 0.706808
C8    C     C_3   0.508819 0.300308 0.385145 0.688884
H9    H     H_    0.009242 0.227752 0.771492 0.022570
H10   H     H_    0.008233 0.773571 0.279527 0.022066
H11   H     H_    0.512094 0.720561 0.787079 -0.009134
H12   H     H_    0.509761 0.271595 0.279055 0.023181
C9    C     C_3   0.014585 0.125381 0.833441 0.088132
C10   C     C_3   0.016590 0.874768 0.353064 0.086805
C11   C     C_3   0.518779 0.621335 0.873329 0.079089
C12   C     C_3   0.518516 0.373286 0.347438 0.091261
H13   H     H_    0.028510 0.095497 0.933914 0.164517
H14   H     H_    0.034193 0.901238 0.456584 0.161217
H15   H     H_    0.521287 0.596940 0.984595 0.169071
H16   H     H_    0.537102 0.400511 0.449103 0.172343
C13   C     C_3   0.770219 0.471345 0.852472 0.885819
C14   C     C_3   0.771162 0.525668 0.353387 0.926744
C15   C     C_3   0.270088 0.976063 0.855276 0.898338
C16   C     C_3   0.268677 0.023888 0.358413 0.893185
C17   C     C_3   0.721048 0.454687 0.975947 -0.812967
C18   C     C_3   0.695118 0.538754 0.334921 -0.965720
C19   C     C_3   0.195855 0.966291 0.807256 -0.948764
C20   C     C_3   0.193342 0.034191 0.321304 -0.944742
H17   H     H_    0.693655 0.499512 0.010129 0.298037
H18   H     H_    0.671056 0.502006 0.258821 0.304325
H19   H     H_    0.182527 0.993803 0.702869 0.287750
H20   H     H_    0.177214 0.004939 0.220827 0.291857
H21   H     H_    0.681209 0.421424 0.934339 0.245093
H22   H     H_    0.685128 0.588350 0.288086 0.236212
H23   H     H_    0.185404 0.913704 0.785710 0.238005
H24   H     H_    0.182128 0.086466 0.296994 0.241171
H25   H     H_    0.746811 0.432160 0.075843 0.232286
H26   H     H_    0.670484 0.535368 0.444569 0.280441
H27   H     H_    0.162823 0.984172 0.897021 0.259682
H28   H     H_    0.163161 0.018529 0.417141 0.257810
Ba1   Ba    Ba6+2 0.999980 0.452130 0.155200 1.636287
Ba2   Ba    Ba6+2 0.999980 0.547870 0.655200 1.645544
Ba3   Ba    Ba6+2 0.499980 0.952130 0.155200 1.670581
Ba4   Ba    Ba6+2 0.499980 0.047870 0.655200 1.669410
C21   C     C_3   0.214055 0.532903 0.000021 0.280033
C22   C     C_3   0.217760 0.467686 0.501786 0.277686
C23   C     C_3   0.717993 0.029627 0.002453 0.294370
C24   C     C_3   0.717879 0.967807 0.502497 0.279736
C25   C     C_3   0.275347 0.571016 0.948331 0.135040
C26   C     C_3   0.292339 0.447037 0.520652 0.147139
C27   C     C_3   0.783018 0.063256 0.957896 0.112889
C28   C     C_3   0.792247 0.946025 0.516027 0.139198
H29   H     H_    0.279290 0.618097 0.011275 0.065699
H30   H     H_    0.297836 0.403690 0.595422 0.079245
H31   H     H_    0.790717 0.108671 0.025680 0.066437
H32   H     H_    0.797908 0.902117 0.588999 0.083388
H33   H     H_    0.270401 0.583300 0.827012 0.116809
H34   H     H_    0.312135 0.433465 0.409562 0.069911
H35   H     H_    0.780520 0.077742 0.837699 0.116749
H36   H     H_    0.810436 0.932844 0.403308 0.071493
O45   O     O_3   0.924190 0.533610 0.949240 -0.295150
O46   O     O_3   0.924190 0.466390 0.449240 -0.275718
O47   O     O_3   0.424190 0.033610 0.949240 -0.252233
O48   O     O_3   0.424190 0.966390 0.449240 -0.250846
P13   P     P_3+3 0.088013 0.710783 0.895255 0.470942
P14   P     P_3+3 0.089252 0.289024 0.389929 0.471448
P15   P     P_3+3 0.589070 0.209836 0.894965 0.475695
P16   P     P_3+3 0.588236 0.788067 0.390238 0.480474
C29   C     C_3   0.993709 0.203090 0.333571 0.479606
C30   C     C_3   0.991417 0.798068 0.848270 0.463479
C31   C     C_3   0.492254 0.700232 0.360587 0.450621
C32   C     C_3   0.493370 0.298184 0.845935 0.470950
H37   H     H_    0.920311 0.132888 0.242275 0.200454
H38   H     H_    0.915462 0.870554 0.776468 0.202115
H39   H     H_    0.420561 0.619169 0.344000 0.211026
H40   H     H_    0.418470 0.370108 0.765804 0.194816
C33   C     C_R   0.242176 0.304702 0.001412 -0.050153
C34   C     C_R   0.243276 0.695962 0.503046 -0.041591
C35   C     C_R   0.740458 0.803578 0.003226 -0.041410
C36   C     C_R   0.743124 0.196250 0.505653 -0.044662
C37   C     C_R   0.152022 0.348332 0.822981 0.327028
C38   C     C_R   0.151436 0.653199 0.328209 0.326467
C39   C     C_R   0.651415 0.847844 0.823320 0.322896
C40   C     C_R   0.652305 0.152714 0.328593 0.326073
C41   C     C_R   0.117886 0.341366 0.681991 -0.468022
C42   C     C_R   0.114239 0.663079 0.192820 -0.475098
C43   C     C_R   0.619287 0.841877 0.680026 -0.449555
C44   C     C_R   0.616246 0.161745 0.191771 -0.472796
C45   C     C_R   0.133599 0.291868 0.579686 0.194176
C46   C     C_R   0.130704 0.710343 0.087349 0.191231
C47   C     C_R   0.631464 0.789740 0.581893 0.170590
C48   C     C_R   0.633455 0.208199 0.085623 0.191534
C49   C     C_R   0.183995 0.245857 0.620160 -0.050093
C50   C     C_R   0.182455 0.754606 0.124452 -0.043415
C51   C     C_R   0.678714 0.741346 0.626583 -0.061677
C52   C     C_R   0.686679 0.251020 0.121674 -0.054651
C53   C     C_R   0.217551 0.249016 0.763624 0.083820
C54   C     C_R   0.217096 0.751271 0.266504 0.087753
C55   C     C_R   0.713918 0.746097 0.768167 0.086264
C56   C     C_R   0.718895 0.249871 0.266484 0.085216
C57   C     C_R   0.203934 0.301634 0.863839 -0.028868
C58   C     C_R   0.204162 0.698974 0.366946 -0.027952
C59   C     C_R   0.701797 0.799988 0.866240 -0.033416
C60   C     C_R   0.704810 0.198582 0.368372 -0.027169
H41   H     H_    0.082678 0.378383 0.644772 0.204593
H42   H     H_    0.076130 0.629105 0.161912 0.205534
H43   H     H_    0.588668 0.881500 0.637853 0.197093
H44   H     H_    0.579197 0.127043 0.159737 0.204938
C61   C     C_R   0.801607 0.701892 0.945499 -0.115795
C62   C     C_R   0.804087 0.297250 0.444943 -0.088046
C63   C     C_R   0.304211 0.203500 0.942021 -0.110170
C64   C     C_R   0.305249 0.796101 0.441100 -0.112962
C65   C     C_R   0.788368 0.754765 0.045013 0.084739
C66   C     C_R   0.791140 0.244995 0.545223 0.094796
C67   C     C_R   0.290473 0.256020 0.042282 0.090454
C68   C     C_R   0.291971 0.744120 0.541770 0.085996
C69   C     C_R   0.853322 0.654815 0.984775 0.200151
C70   C     C_R   0.854609 0.345434 0.485033 0.172124
C71   C     C_R   0.355825 0.156072 0.981515 0.185729
C72   C     C_R   0.357237 0.842994 0.478931 0.185377
C73   C     C_R   0.889112 0.662912 0.124902 0.165230
C74   C     C_R   0.889995 0.338089 0.625378 0.099799
C75   C     C_R   0.391935 0.164657 0.120827 0.165213
C76   C     C_R   0.394974 0.833146 0.615891 0.170976
C77   C     C_R   0.871368 0.711434 0.229343 0.127536
C78   C     C_R   0.874104 0.288551 0.727558 0.125933
C79   C     C_R   0.373245 0.212385 0.226348 0.146536
C80   C     C_R   0.375743 0.786966 0.723066 0.139868
C81   C     C_R   0.822009 0.757741 0.187603 -0.376908
C82   C     C_R   0.825501 0.242279 0.686356 -0.368163
C83   C     C_R   0.323640 0.258489 0.185252 -0.386506
C84   C     C_R   0.325415 0.742122 0.684055 -0.375173
C85   C     C_R   0.762261 0.697807 0.810679 -0.003800
C86   C     C_R   0.766238 0.298857 0.307834 -0.017343
C87   C     C_R   0.265469 0.200261 0.806157 -0.022787
C88   C     C_R   0.265657 0.799285 0.306663 -0.030567
H45   H     H_    0.810108 0.796404 0.266520 0.157906
H46   H     H_    0.814756 0.203714 0.764953 0.154755
H47   H     H_    0.311165 0.296609 0.265070 0.156302
H48   H     H_    0.312689 0.705210 0.765087 0.163144
H49   H     H_    0.234953 0.344723 0.078846 0.154780
H50   H     H_    0.235786 0.656735 0.581457 0.168450
H51   H     H_    0.734193 0.844323 0.079124 0.155612
H52   H     H_    0.735746 0.156940 0.583934 0.166947
H53   H     H_    0.769016 0.656925 0.736466 0.177581
H54   H     H_    0.772816 0.338671 0.231596 0.176006
H55   H     H_    0.271929 0.159477 0.731529 0.171126
H56   H     H_    0.272116 0.839497 0.231424 0.173140
N1    N     N_3   0.221914 0.525331 0.159857 -0.186154
H57   H     H_    0.261323 0.492450 0.184276 0.185385
H58   H     H_    0.178463 0.502564 0.191757 0.151476
N2    N     N_3   0.189926 0.470384 0.647207 -0.189875
H59   H     H_    0.207832 0.513413 0.695585 0.194284
H60   H     H_    0.137955 0.475281 0.633192 0.142124
N3    N     N_3   0.722570 0.020633 0.162004 -0.182934
H61   H     H_    0.758813 0.984678 0.187415 0.180517
H62   H     H_    0.676709 0.001896 0.191193 0.151433
N4    N     N_3   0.692832 0.971915 0.650170 -0.186151
H63   H     H_    0.713000 0.014606 0.695927 0.191646
H64   H     H_    0.640965 0.978350 0.640358 0.143624
N5    N     N_3   0.153695 0.571460 0.963882 -0.238216
H65   H     H_    0.113006 0.553140 0.020085 0.145869
H66   H     H_    0.141665 0.567428 0.850225 0.189671
N6    N     N_3   0.183246 0.417811 0.410846 -0.240031
H67   H     H_    0.134122 0.432152 0.382765 0.193996
H68   H     H_    0.209169 0.408600 0.313114 0.102584
N7    N     N_3   0.660933 0.072024 0.962703 -0.243882
H69   H     H_    0.617829 0.054842 0.011368 0.140819
H70   H     H_    0.651303 0.069651 0.848109 0.177494
N8    N     N_3   0.681115 0.917895 0.416151 -0.240630
H71   H     H_    0.632159 0.932861 0.388834 0.192399
H72   H     H_    0.705941 0.906541 0.318168 0.105434
Cl1   Cl    Cl    0.351772 0.525824 0.982627 -0.624893
Cl2   Cl    Cl    0.344105 0.511174 0.594793 -0.636786
Cl3   Cl    Cl    0.854230 0.010246 0.991102 -0.639968
Cl4   Cl    Cl    0.845746 0.008805 0.590005 -0.644313
N9    N     N_3   0.966147 0.207722 0.482620 -0.217694
H73   H     H_    0.975367 0.254156 0.526320 0.096838
H74   H     H_    0.914121 0.203599 0.469067 0.054669
N10   N     N_3   0.969948 0.794660 0.003153 -0.209964
H75   H     H_    0.918255 0.803610 0.001839 0.054587
H76   H     H_    0.976450 0.746820 0.040348 0.079278
N11   N     N_3   0.480525 0.702676 0.521134 -0.229045
H77   H     H_    0.487531 0.750543 0.557514 0.086611
H78   H     H_    0.429929 0.692959 0.536351 0.048720
N12   N     N_3   0.470385 0.295801 0.999535 -0.208694
H79   H     H_    0.418477 0.303447 0.994888 0.050024
H80   H     H_    0.478129 0.248617 0.039752 0.081436
Cl5   Cl    Cl    0.079424 0.111863 0.703971 -0.709380
Cl6   Cl    Cl    0.080262 0.885902 0.220474 -0.710975
Cl7   Cl    Cl    0.596520 0.602477 0.787113 -0.639272
Cl8   Cl    Cl    0.581518 0.382033 0.211849 -0.691726
N13   N     N_3   0.203388 0.196751 0.514310 -0.213954
H81   H     H_    0.162462 0.166847 0.488288 0.201116
H82   H     H_    0.218808 0.219287 0.416286 0.153994
N14   N     N_3   0.201789 0.802311 0.017007 -0.212837
H83   H     H_    0.160848 0.832685 0.989537 0.196269
H84   H     H_    0.217471 0.778508 0.919908 0.153125
N15   N     N_3   0.692859 0.687843 0.527339 -0.210997
H85   H     H_    0.649132 0.660789 0.508735 0.188355
H86   H     H_    0.708361 0.706260 0.424855 0.151578
N16   N     N_3   0.710866 0.293826 0.009408 -0.197156
H87   H     H_    0.670078 0.320132 0.964659 0.202517
H88   H     H_    0.730365 0.265314 0.923251 0.150369
Cl9   Cl    Cl    0.953718 0.608620 0.177865 -0.559531
Cl10  Cl    Cl    0.955664 0.390805 0.676108 -0.594804
Cl11  Cl    Cl    0.457440 0.111346 0.172147 -0.564968
Cl12  Cl    Cl    0.463548 0.882793 0.662014 -0.571173
N17   N     N_3   0.998525 0.080774 0.356800 -0.147387
H89   H     H_    0.049794 0.085474 0.383650 0.222509
H90   H     H_    0.972558 0.080805 0.456639 0.215763
N18   N     N_3   0.999990 0.920047 0.869185 -0.129467
H91   H     H_    0.052047 0.913742 0.881129 0.209298
H92   H     H_    0.980308 0.920699 0.976526 0.226337
N19   N     N_3   0.518594 0.580523 0.335769 -0.149597
H93   H     H_    0.560592 0.586916 0.270664 0.201697
H94   H     H_    0.534410 0.584097 0.449152 0.192409
N20   N     N_3   0.500957 0.420364 0.865677 -0.123564
H95   H     H_    0.552866 0.414412 0.882684 0.230396
H96   H     H_    0.479065 0.421461 0.970722 0.217561
Cl13  Cl    Cl    0.081661 0.219747 0.989588 -0.575343
Cl14  Cl    Cl    0.077014 0.774563 0.502984 -0.569786
Cl15  Cl    Cl    0.577973 0.725380 0.010654 -0.541487
Cl16  Cl    Cl    0.578080 0.274169 0.502822 -0.552999
N21   N     N_3   0.951253 0.100912 0.768101 -0.135767
H97   H     H_    0.934719 0.131197 0.680213 0.132120
H98   H     H_    0.914983 0.105079 0.849039 0.190310
N22   N     N_3   0.954431 0.905853 0.295759 -0.162019
H99   H     H_    0.929794 0.874975 0.218022 0.123001
H100  H     H_    0.923034 0.912240 0.386169 0.150021
N23   N     N_3   0.463276 0.592546 0.783397 -0.138137
H101  H     H_    0.471472 0.598118 0.668968 0.172753
H102  H     H_    0.418021 0.616438 0.804785 0.174270
N24   N     N_3   0.456356 0.404624 0.290693 -0.168297
H103  H     H_    0.430615 0.373218 0.215987 0.117616
H104  H     H_    0.425733 0.412687 0.381916 0.146878
Cl17  Cl    Cl    0.726680 0.452626 0.679037 -0.640285
Cl18  Cl    Cl    0.806261 0.544239 0.185921 -0.703432
Cl19  Cl    Cl    0.317995 0.948116 0.710148 -0.668049
Cl20  Cl    Cl    0.311350 0.050495 0.205029 -0.671100
N25   N     N_3   0.830892 0.431578 0.862110 -0.175462
H105  H     H_    0.815018 0.383258 0.865861 0.088482
H106  H     H_    0.855817 0.440359 0.964477 0.203921
N26   N     N_3   0.800187 0.567183 0.470688 -0.141343
H107  H     H_    0.796735 0.615434 0.433274 0.111939
H108  H     H_    0.770096 0.565159 0.564022 0.162483
N27   N     N_3   0.286519 0.938118 0.989668 -0.132938
H109  H     H_    0.286340 0.888781 0.959732 0.121174
H110  H     H_    0.248721 0.944106 0.067000 0.127518
N28   N     N_3   0.289220 0.062233 0.489808 -0.134268
H111  H     H_    0.290179 0.111320 0.459030 0.123693
H112  H     H_    0.253409 0.058549 0.572013 0.124821

loop_
_geom_bond_atom_site_label_1
_geom_bond_atom_site_label_2
_geom_bond_distance
_ccdc_geom_bond_type
H1    C29   1.113678 S    
C15   C19   1.537423 S    
C13   Cl17  1.778333 S    
P5    O37   1.772577 S    
P7    O39   1.777432 S    
O1    Ba1   2.814514 S    
P8    O40   1.780351 S    
P9    O33   1.546411 D    
N20   H95   1.045306 S    
P5    Ba1   3.479184 S    
C46   C50   1.406344 A    
P13   C46   1.874940 S    
C83   H47   1.084152 S    
N12   H80   1.038556 S    
P4    C40   1.897972 S    
C54   C88   1.418955 A    
P16   C47   1.876231 S    
C81   H45   1.084107 S    
N10   H75   1.043945 S    
C64   C72   1.446484 A    
C41   C45   1.397580 A    
C3    H39   1.111753 S    
C38   C42   1.401193 A    
O11   P16   1.759984 S    
C44   C48   1.395781 A    
C1    H37   1.112350 S    
C6    H10   1.106999 S    
O9    P14   1.761899 S    
C43   C47   1.398430 A    
P4    O8    1.572062 S    
O21   C29   1.407796 S    
C68   C84   1.404928 A    
C14   N26   1.445927 S    
O24   C32   1.411033 S    
C32   N12   1.456159 S    
N8    H72   1.041240 S    
P5    O25   1.613569 D    
N6    H67   1.040273 S    
C78   C82   1.397058 A    
N1    H58   1.036517 S    
P6    C69   1.909475 S    
C15   N27   1.451226 S    
C27   H35   1.107674 S    
C56   C60   1.425395 A    
C14   C18   1.538547 S    
C67   C83   1.408145 A    
N28   H111  1.042151 S    
C61   C85   1.406841 A    
C74   C78   1.409566 A    
C22   N2    1.425128 S    
C66   C82   1.404609 A    
C10   H14   1.110260 S    
O44   C8    1.413348 S    
O2    Ba2   2.832854 S    
P6    Ba2   3.468198 S    
C65   C81   1.409714 A    
C36   C66   1.420994 A    
P5    C70   1.914917 S    
N24   H103  1.043846 S    
C80   C84   1.397205 A    
C63   C71   1.441358 A    
C35   C59   1.415223 A    
N15   H86   1.045124 S    
C69   C73   1.418582 A    
C12   Cl8   1.783420 S    
C17   H25   1.107137 S    
C19   H27   1.111310 S    
Ba1   O45   2.857505 S    
P3    Ba3   3.465456 S    
N22   H100  1.043517 S    
Ba3   O47   2.857505 S    
C22   N6    1.457561 S    
C27   Cl3   1.793489 S    
C42   H42   1.060902 S    
P2    Ba2   3.476270 S    
N19   H94   1.044873 S    
P3    O7    1.563938 S    
C20   H28   1.110944 S    
P11   O35   1.545245 D    
O27   Ba3   2.836828 S    
C17   H21   1.101396 S    
N9    H74   1.042871 S    
C53   C57   1.423142 A    
P1    Ba1   3.465456 S    
C50   C54   1.414815 A    
C52   N16   1.430326 S    
C23   N7    1.456613 S    
C5    C9    1.542927 S    
O20   C24   1.409353 S    
C62   C70   1.447989 A    
C7    C11   1.547443 S    
N23   H102  1.044939 S    
O42   C6    1.412309 S    
Ba2   O45   3.082295 S    
C41   H41   1.071741 S    
P15   C48   1.878320 S    
N2    H60   1.041922 S    
C44   H44   1.058354 S    
C2    C30   1.543125 S    
C20   H20   1.109646 S    
C43   H43   1.069922 S    
N13   H81   1.041555 S    
P11   C80   1.868847 S    
O12   P15   1.764021 S    
C18   H26   1.109702 S    
P12   C79   1.870644 S    
C34   C68   1.420075 A    
C14   Cl18  1.713065 S    
Ba3   Ba4   4.840171 S    
P6    O38   1.779430 S    
O40   C15   1.401011 S    
C26   Cl2   1.782870 S    
C11   N23   1.464115 S    
P8    O28   1.618950 D    
C34   H50   1.079915 S    
P9    O29   1.752242 S    
P10   O34   1.546717 D    
O23   P16   1.763999 S    
C23   N3    1.428031 S    
O21   P14   1.761283 S    
N26   H108  1.042631 S    
N17   H89   1.044846 S    
N5    H66   1.030542 S    
C47   C51   1.407192 A    
C31   N11   1.453359 S    
C48   C52   1.407396 A    
C9    Cl5   1.781007 S    
C3    C31   1.547530 S    
C2    H38   1.112309 S    
C28   H32   1.112080 S    
C39   C43   1.406182 A    
P2    O18   1.777584 S    
O22   C30   1.411937 S    
C34   C58   1.412676 A    
C30   N10   1.457707 S    
N21   H97   1.039945 S    
Ba4   O48   2.862281 S    
N4    H64   1.040774 S    
P8    C71   1.912751 S    
C63   C87   1.407364 A    
N16   H88   1.043922 S    
P6    O26   1.618950 D    
C25   H29   1.112232 S    
C27   H31   1.112210 S    
N27   H110  1.044549 S    
P9    O41   1.749148 S    
O3    Ba3   2.814514 S    
C84   H48   1.083877 S    
P10   C77   1.873260 S    
C24   C28   1.543487 S    
O15   P16   1.544009 D    
O13   P14   1.544155 D    
C40   C44   1.398492 A    
N14   H83   1.042623 S    
O17   C21   1.410188 S    
C73   C77   1.406328 A    
C73   Cl9   1.744001 S    
O19   C23   1.405668 S    
C33   C57   1.414842 A    
C76   C80   1.409975 A    
O23   C31   1.412446 S    
C8    C12   1.546510 S    
C1    N17   1.462308 S    
C24   N8    1.458197 S    
N17   H90   1.043419 S    
N10   H76   1.039400 S    
C35   C65   1.415365 A    
C17   H17   1.109355 S    
C86   H54   1.073554 S    
C33   H49   1.078000 S    
N25   H106  1.033666 S    
C75   Cl11  1.740976 S    
C77   C81   1.399494 A    
P9    C78   1.866731 S    
C64   C68   1.425412 A    
C25   H33   1.107267 S    
N18   H91   1.045204 S    
C55   C85   1.415172 A    
C51   N15   1.433645 S    
O7    Ba4   2.857348 S    
C19   H23   1.111247 S    
C5    Cl13  1.778746 S    
P8    O47   1.567893 S    
O39   C16   1.399447 S    
C12   H16   1.110436 S    
N6    H68   1.042187 S    
N15   H85   1.043437 S    
C37   C57   1.438332 A    
N1    H57   1.045863 S    
P3    C39   1.895041 S    
P4    Ba4   3.476270 S    
P1    O1    1.619939 D    
C52   C56   1.413894 A    
P11   O31   1.754401 S    
P10   O42   1.755559 S    
P3    O3    1.619939 D    
P4    O20   1.777375 S    
N28   H112  1.043763 S    
C82   H46   1.083956 S    
C15   Cl19  1.724813 S    
C70   C74   1.414818 A    
O11   Ba3   2.873817 S    
C54   C58   1.427528 A    
P1    C37   1.890239 S    
C35   H51   1.077944 S    
O18   C22   1.409825 S    
C16   Cl20  1.726032 S    
N19   H93   1.044930 S    
C5    H9    1.110665 S    
C62   C66   1.426011 A    
C8    H12   1.107549 S    
C61   C69   1.437572 A    
N24   H104  1.044207 S    
C64   C88   1.405550 A    
C4    C32   1.543498 S    
C56   C86   1.419060 A    
C18   H18   1.107337 S    
N11   H78   1.043296 S    
O30   Ba2   2.871686 S    
P1    O5    1.563938 S    
O9    Ba1   2.873817 S    
N3    H61   1.044914 S    
H4    C32   1.114101 S    
C13   C17   1.539825 S    
O25   Ba1   2.836828 S    
N12   H79   1.043690 S    
C2    N18   1.462934 S    
C1    H5    1.097516 S    
C3    H7    1.099657 S    
C71   C75   1.416615 A    
C9    H13   1.108419 S    
P10   O30   1.762578 S    
C16   N28   1.449274 S    
N7    H70   1.028412 S    
P7    Ba3   3.479184 S    
P12   O44   1.755566 S    
O22   P13   1.761668 S    
H3    C31   1.114662 S    
C40   C60   1.443563 A    
N8    H71   1.039404 S    
O16   P15   1.544421 D    
C49   C53   1.415956 A    
N23   H101  1.041871 S    
C28   H36   1.108333 S    
C33   C67   1.416660 A    
N20   H96   1.044677 S    
P5    O46   1.576109 S    
P7    O48   1.576109 S    
O8    Ba3   2.862132 S    
Ba1   Ba2   4.840171 S    
Ba2   O46   2.862281 S    
C4    N20   1.463056 S    
C11   H15   1.107814 S    
P7    O27   1.613569 D    
O41   C5    1.412160 S    
O43   C7    1.412860 S    
C45   C49   1.407108 A    
O37   C14   1.397521 S    
O10   Ba2   2.865150 S    
N25   H105  1.041269 S    
O26   Ba2   2.818353 S    
O14   P13   1.545699 D    
C37   C41   1.407538 A    
C36   H52   1.080040 S    
O10   P13   1.761192 S    
N27   H109  1.041810 S    
P1    O17   1.774224 S    
C6    C10   1.546709 S    
C7    Cl15  1.772618 S    
P3    O19   1.769525 S    
C8    Cl16  1.777404 S    
P4    O4    1.614552 D    
C88   H56   1.073795 S    
C3    N19   1.463056 S    
Ba1   O46   3.076991 S    
C36   C60   1.412757 A    
N22   H99   1.043939 S    
Ba3   O48   3.076991 S    
N9    H73   1.038858 S    
C21   N1    1.430004 S    
C9    N21   1.459263 S    
C50   N14   1.433470 S    
P7    C72   1.926996 S    
P6    O45   1.567893 S    
C29   N9    1.454282 S    
O32   Ba4   2.871686 S    
C16   C20   1.536686 S    
C6    Cl14  1.777688 S    
C75   C79   1.406713 A    
C21   C25   1.540890 S    
C25   Cl1   1.790349 S    
C38   C58   1.443561 A    
P2    O2    1.614552 D    
O4    Ba4   2.832854 S    
P11   O43   1.754675 S    
P12   O36   1.546064 D    
C79   C83   1.398719 A    
P8    Ba4   3.468198 S    
O38   C13   1.412804 S    
C49   N13   1.432152 S    
C62   C86   1.406391 A    
C53   C87   1.416230 A    
C10   Cl6   1.780787 S    
C4    H8    1.099158 S    
N2    H59   1.036985 S    
N14   H84   1.044451 S    
C21   N5    1.457844 S    
C63   C67   1.422408 A    
H2    C30   1.114151 S    
O5    Ba2   2.857348 S    
C19   H19   1.108428 S    
C72   C76   1.418082 A    
O31   Ba3   2.863065 S    
N13   H82   1.044702 S    
C55   C59   1.425241 A    
O29   Ba1   2.863065 S    
N3    H62   1.036735 S    
C74   Cl10  1.746603 S    
C61   C65   1.421624 A    
N5    H65   1.041968 S    
C4    H40   1.112333 S    
C26   H30   1.112047 S    
C39   C59   1.437308 A    
N18   H92   1.044290 S    
C51   C55   1.417956 A    
P2    O6    1.572062 S    
N26   H107  1.043465 S    
C20   H24   1.110505 S    
C13   N25   1.450536 S    
P12   O32   1.759894 S    
C22   C26   1.543855 S    
C2    H6    1.098746 S    
C24   N4    1.422325 S    
N11   H77   1.037873 S    
C10   N22   1.461337 S    
C12   N24   1.462021 S    
P2    C38   1.904906 S    
C28   Cl4   1.782105 S    
O24   P15   1.763882 S    
C7    H11   1.098018 S    
N21   H98   1.041342 S    
P14   C45   1.871495 S    
C87   H55   1.072078 S    
Ba4   O47   3.082295 S    
N4    H63   1.038320 S    
C85   H53   1.072188 S    
N16   H87   1.037379 S    
O12   Ba4   2.865150 S    
C26   H34   1.109105 S    
C1    C29   1.543025 S    
O28   Ba4   2.818353 S    
C42   C46   1.399074 A    
N7    H69   1.041044 S    
C11   Cl7   1.792206 S    
O6    Ba1   2.862132 S    
C23   C27   1.538554 S    
C18   H22   1.111309 S    
C76   Cl12  1.744006 S    
