data_mof_unit_44168.cif
_audit_creation_date              2012-12-10T16:55:27-0500
_audit_creation_method            fapswitch 2.2
_symmetry_space_group_name_H-M    P1
_symmetry_Int_Tables_number       1
_space_group_crystal_system       triclinic
_cell_length_a                    11.69047
_cell_length_b                    10.937816
_cell_length_c                    9.730905
_cell_angle_alpha                 88.896502
_cell_angle_beta                  91.448632
_cell_angle_gamma                 90.6567
_cell_volume                      1243.5700615

loop_
_atom_site_label
_atom_site_type_symbol
_atom_type_description
_atom_site_fract_x
_atom_site_fract_y
_atom_site_fract_z
_atom_type_partial_charge
C1    C     C_R   0.497368 0.264820 0.501997 0.727024
C2    C     C_2   0.518895 0.864827 0.496070 -0.249380
C3    C     C_2   0.496000 0.067629 0.393021 -0.258403
C4    C     C_2   0.484836 0.131339 0.508972 0.297735
C5    C     C_2   0.423608 0.442136 0.921479 0.505121
C6    C     C_2   0.409894 0.476856 0.072822 0.442478
C7    C     C_R   0.284098 0.499398 0.498739 0.834956
C8    C     C_R   0.503336 0.734164 0.498642 0.799773
C9    C     C_R   0.715902 0.499461 0.501246 0.803217
C10   C     C_1   0.162357 0.498169 0.497031 -0.193946
C11   C     C_1   0.059862 0.497534 0.498478 -0.011901
C12   C     C_1   0.940135 0.497545 0.501246 -0.008314
C13   C     C_1   0.837642 0.498193 0.502769 -0.196752
C14   C     C_2   0.482216 0.934504 0.390072 -0.117651
Cu1   Cu    Cu3+1 0.500020 0.500020 0.638630 0.978590
Cu2   Cu    Cu3+1 0.499980 0.499980 0.361370 0.960382
H1    H     H_    0.444455 0.893765 0.298358 0.149785
H2    H     H_    0.565231 0.903537 0.582322 0.157773
H3    H     H_    0.515031 0.113619 0.296187 0.136247
H4    H     H_    0.575074 0.472080 0.114554 0.165379
N1    N     N_2   0.498780 0.498660 0.846910 -0.052713
N2    N     N_2   0.498750 0.498630 0.153040 -0.307033
O1    O     O_R   0.500020 0.321960 0.617040 -0.561128
O2    O     O_R   0.499980 0.321920 0.382900 -0.597850
O3    O     O_R   0.337220 0.500030 0.617070 -0.565248
O4    O     O_R   0.337180 0.499990 0.382930 -0.513944
O5    O     O_R   0.500020 0.678080 0.617100 -0.574406
O6    O     O_R   0.499980 0.678040 0.382960 -0.578215
O7    O     O_R   0.662820 0.500010 0.617070 -0.599266
O8    O     O_R   0.662780 0.499970 0.382930 -0.575554
O9    O     O_3   0.438495 0.074616 0.625230 -0.554134
C15   C     C_3   0.513032 0.084638 0.741861 0.083422
H5    H     H_    0.501777 0.172974 0.792954 0.217937
H6    H     H_    0.604740 0.075117 0.715493 0.097679
C16   C     C_3   0.482642 0.985485 0.847400 -0.804863
H7    H     H_    0.493023 0.893157 0.804477 0.258520
H8    H     H_    0.539565 0.993804 0.939944 0.192609
H9    H     H_    0.392545 0.995723 0.878537 0.252246
O10   O     O_3   0.366971 0.341782 0.865051 -0.638056
C17   C     C_3   0.247163 0.346286 0.879420 0.096750
H10   H     H_    0.207034 0.319372 0.779619 0.166351
H11   H     H_    0.214300 0.439435 0.898134 0.149243
C18   C     C_3   0.209149 0.253021 0.989003 -0.329158
H12   H     H_    0.228709 0.159392 0.954554 0.210559
H13   H     H_    0.256916 0.268068 0.087371 0.245875
C19   C     C_3   0.081165 0.261584 0.013743 -0.900151
H14   H     H_    0.060659 0.352753 0.054296 0.268958
H15   H     H_    0.055703 0.190536 0.090416 0.255087
H16   H     H_    0.031387 0.246755 0.916614 0.246044
O11   O     O_3   0.535542 0.604687 0.904941 -0.597442
C20   C     C_3   0.651140 0.631553 0.874574 0.193556
H17   H     H_    0.675271 0.714242 0.933673 0.114772
H18   H     H_    0.661058 0.661460 0.766923 0.178443
C21   C     C_3   0.736771 0.531190 0.918934 -0.396560
H19   H     H_    0.738182 0.518894 0.032162 0.203245
H20   H     H_    0.713156 0.442672 0.871370 0.229919
C22   C     C_3   0.858276 0.566960 0.878897 -0.916349
H21   H     H_    0.861969 0.587676 0.767211 0.265037
H22   H     H_    0.917251 0.490529 0.904516 0.255685
H23   H     H_    0.887587 0.648935 0.936145 0.250177
O12   O     O_3   0.301519 0.497133 0.120045 -0.578337
C23   C     C_3   0.274532 0.620981 0.092610 0.092245
H24   H     H_    0.286343 0.646436 0.982237 0.129235
H25   H     H_    0.328924 0.682013 0.157982 0.174337
C24   C     C_3   0.149811 0.642157 0.124979 -0.813097
H26   H     H_    0.134751 0.620976 0.234964 0.262329
H27   H     H_    0.127909 0.739252 0.103249 0.200979
H28   H     H_    0.093506 0.582948 0.060441 0.240155

loop_
_geom_bond_atom_site_label_1
_geom_bond_atom_site_label_2
_ccdc_geom_bond_type
Cu2   O6    S    
C7    C10   S    
Cu2   N2    S    
C11   C12   S    
C21   H20   S    
C3    H3    S    
C23   H24   S    
Cu1   O7    S    
C2    H2    S    
Cu1   O5    S    
C16   H7    S    
C7    O3    A    
C9    O7    A    
C18   H12   S    
C1    C4    S    
C15   H5    S    
C20   C21   S    
Cu1   O1    S    
O11   C20   S    
Cu2   O2    S    
C18   H13   S    
C14   H1    S    
C22   H21   S    
C5    C6    S    
C3    C14   S    
C7    O4    A    
C9    O8    A    
C2    C14   D    
Cu1   Cu2   S    
C6    O12   S    
C17   H11   S    
N1    O11   S    
C16   H8    S    
H4    N2    S    
C1    O1    A    
C19   H15   S    
C5    O10   S    
Cu2   O4    S    
O12   C23   S    
C8    O6    A    
C18   C19   S    
C19   H16   S    
Cu1   O3    S    
C4    O9    S    
C22   H22   S    
C10   C11   T    
Cu2   O8    S    
C20   H17   S    
C6    N2    D    
C15   C16   S    
Cu1   N1    S    
C24   H28   S    
C5    N1    D    
C12   C13   T    
C1    O2    A    
C24   H26   S    
C19   H14   S    
O10   C17   S    
C8    O5    A    
C9    C13   S    
C16   H9    S    
C17   H10   S    
C22   H23   S    
C23   H25   S    
C23   C24   S    
C24   H27   S    
C21   H19   S    
C17   C18   S    
C2    C8    S    
C3    C4    D    
O9    C15   S    
C20   H18   S    
C21   C22   S    
C15   H6    S    
