data_mof_unit_53500.cif
_audit_creation_date              2012-12-11T16:37:19-0500
_audit_creation_method            fapswitch 2.2
_symmetry_space_group_name_H-M    P1
_symmetry_Int_Tables_number       1
_space_group_crystal_system       triclinic
_cell_length_a                    18.826873
_cell_length_b                    18.809739
_cell_length_c                    20.475923
_cell_angle_alpha                 107.41885
_cell_angle_beta                  106.5545
_cell_angle_gamma                 110.42109
_cell_volume                      5836.75493381

loop_
_atom_site_label
_atom_site_type_symbol
_atom_type_description
_atom_site_fract_x
_atom_site_fract_y
_atom_site_fract_z
_atom_type_partial_charge
C1    C     C_R   0.087028 0.086339 0.354743 -0.148312
C2    C     C_R   0.757719 0.997326 0.547085 0.040328
C3    C     C_R   0.754979 0.788830 0.274126 -0.124783
C4    C     C_R   0.960882 0.216362 0.463945 0.034369
C5    C     C_R   0.230021 0.227506 0.646624 -0.141384
C6    C     C_R   0.924760 0.758840 0.497618 -0.148938
C7    C     C_R   0.175439 0.927922 0.474043 -0.129640
C8    C     C_R   0.031018 0.052479 0.718791 -0.125664
C9    C     C_R   0.963084 0.911740 0.653132 -0.117440
C10   C     C_R   0.245542 0.068914 0.539949 -0.126408
C11   C     C_R   0.152609 0.220936 0.710648 -0.141679
C12   C     C_R   0.762095 0.927534 0.504421 -0.124733
C13   C     C_R   0.002765 0.765540 0.434260 -0.166572
C14   C     C_R   0.229108 0.271044 0.714124 0.047434
C15   C     C_R   0.954115 0.713046 0.456805 0.090711
C16   C     C_R   0.254161 0.995828 0.525572 0.036034
C17   C     C_R   0.015406 0.977617 0.725865 0.048022
C18   C     C_R   0.833128 0.324100 0.417788 -0.165241
C19   C     C_R   0.858076 0.271678 0.442418 -0.170066
C20   C     C_R   0.916316 0.251356 0.422870 0.158285
C21   C     C_R   0.933905 0.268798 0.365638 -0.203653
C22   C     C_R   0.908433 0.321212 0.341294 -0.173777
C23   C     C_R   0.836712 0.811020 0.281065 0.555367
C24   C     C_R   0.870854 0.361845 0.377979 0.158158
C25   C     C_R   0.922510 0.493885 0.351899 0.585360
C26   C     C_R   0.936314 0.576734 0.369505 -0.315941
C27   C     C_R   0.925746 0.622029 0.430481 0.077452
C28   C     C_R   0.892105 0.581034 0.469083 -0.166582
C29   C     C_R   0.870783 0.496584 0.448157 -0.226428
C30   C     C_R   0.884569 0.449572 0.388972 -0.058135
C31   C     C_R   0.580768 0.925459 0.603202 -0.179496
C32   C     C_R   0.645197 0.926291 0.582248 -0.163592
C33   C     C_R   0.696649 0.998153 0.578165 0.141797
C34   C     C_R   0.947416 0.193683 0.519633 -0.124603
C35   C     C_R   0.687967 0.071470 0.602061 -0.170472
C36   C     C_R   0.623672 0.070514 0.622627 -0.162947
C37   C     C_R   0.566512 0.995970 0.619160 0.115723
C38   C     C_R   0.475171 0.055343 0.653044 -0.180265
C39   C     C_R   0.399344 0.057413 0.626851 -0.163439
C40   C     C_R   0.330449 0.989793 0.559978 0.142198
C41   C     C_R   0.335877 0.916803 0.524205 -0.164638
C42   C     C_R   0.411430 0.914889 0.550095 -0.162000
C43   C     C_R   0.483117 0.986169 0.611975 0.114341
C44   C     C_R   0.288128 0.359756 0.770680 0.147391
C45   C     C_R   0.760976 0.809273 0.347075 -0.217738
C46   C     C_R   0.275068 0.396009 0.834042 -0.193284
C47   C     C_R   0.332276 0.477746 0.889795 -0.164951
C48   C     C_R   0.405367 0.525190 0.884377 0.226503
C49   C     C_R   0.416594 0.490618 0.819762 -0.185193
C50   C     C_R   0.358456 0.408695 0.763112 -0.181523
C51   C     C_R   0.609271 0.732791 0.075350 -0.187742
C52   C     C_R   0.682366 0.770097 0.142371 -0.190620
C53   C     C_R   0.530793 0.684014 0.071770 0.232380
C54   C     C_R   0.678099 0.757552 0.205761 0.163525
C55   C     C_R   0.599045 0.714878 0.203575 -0.169551
C56   C     C_R   0.024223 0.199096 0.454343 -0.123775
C57   C     C_R   0.525975 0.679596 0.137298 -0.190421
C58   C     C_R   0.104595 0.023357 0.234153 0.149801
C59   C     C_R   0.080006 0.948345 0.171478 -0.194867
C60   C     C_R   0.108450 0.950920 0.116487 -0.162825
C61   C     C_R   0.160690 0.029199 0.121358 0.227297
C62   C     C_R   0.188311 0.103703 0.185353 -0.188035
C63   C     C_R   0.161162 0.101019 0.241741 -0.173062
C64   C     C_R   0.169287 0.036734 0.922534 -0.163823
C65   C     C_R   0.132615 0.038514 0.853919 -0.200331
C66   C     C_R   0.130338 0.965183 0.932810 0.210004
C67   C     C_R   0.831573 0.067423 0.568181 -0.147084
C68   C     C_R   0.055435 0.970126 0.795364 0.074329
C69   C     C_R   0.018446 0.896868 0.805442 0.063494
C70   C     C_R   0.057989 0.894477 0.872900 -0.236317
C71   C     C_R   0.020177 0.946855 0.291972 -0.030264
C72   C     C_R   0.068046 0.019729 0.288870 0.002875
H1    H     H_    0.134559 0.151342 0.377799 0.091287
H2    H     H_    0.874161 0.733281 0.512645 0.094078
H3    H     H_    0.158570 0.861709 0.451495 0.096217
H4    H     H_    0.070718 0.116295 0.763702 0.095719
H5    H     H_    0.943020 0.845462 0.635879 0.112815
H6    H     H_    0.294165 0.133266 0.577716 0.094181
H7    H     H_    0.123749 0.239872 0.746459 0.087443
H8    H     H_    0.025840 0.747359 0.392802 0.085051
H9    H     H_    0.789604 0.339605 0.435674 0.111020
H10   H     H_    0.835536 0.252061 0.480319 0.107133
H11   H     H_    0.970431 0.245623 0.341935 0.115448
H12   H     H_    0.721290 0.862113 0.488527 0.084839
H13   H     H_    0.922097 0.330942 0.296397 0.169155
H14   H     H_    0.959985 0.606693 0.337346 0.137700
H15   H     H_    0.884607 0.614775 0.517535 0.123161
H16   H     H_    0.849238 0.471846 0.483929 0.137259
H17   H     H_    0.538251 0.867713 0.601395 0.115756
H18   H     H_    0.652496 0.869848 0.566618 0.110475
H19   H     H_    0.727056 0.128001 0.599853 0.108328
H20   H     H_    0.613972 0.125622 0.633743 0.114727
H21   H     H_    0.529285 0.110447 0.701813 0.115930
H22   H     H_    0.395921 0.113274 0.657125 0.112667
H23   H     H_    0.283873 0.863220 0.472871 0.109247
H24   H     H_    0.415495 0.860891 0.516677 0.115821
H25   H     H_    0.741926 0.806708 0.143522 0.168570
H26   H     H_    0.614248 0.738617 0.025579 0.129553
H27   H     H_    0.472842 0.525656 0.815134 0.120362
H28   H     H_    0.370583 0.383315 0.715023 0.110849
H29   H     H_    0.593384 0.704940 0.251630 0.116347
H30   H     H_    0.321530 0.501255 0.939355 0.123519
H31   H     H_    0.465845 0.642034 0.134956 0.119472
H32   H     H_    0.901759 0.197082 0.540637 0.093464
H33   H     H_    0.222486 0.360883 0.842894 0.112157
H34   H     H_    0.163782 0.094729 0.847736 0.127319
H35   H     H_    0.225768 0.092111 0.968484 0.126633
H36   H     H_    0.227229 0.164447 0.189547 0.120448
H37   H     H_    0.181949 0.160209 0.289317 0.110223
H38   H     H_    0.083750 0.891666 0.067193 0.124068
H39   H     H_    0.027674 0.840139 0.882090 0.127863
H40   H     H_    0.035466 0.887177 0.162056 0.118539
H41   H     H_    0.710699 0.802317 0.364056 0.132617
H42   H     H_    0.049961 0.207760 0.414862 0.095758
H43   H     H_    0.855721 0.130244 0.612296 0.091511
H44   H     H_    0.009742 0.884215 0.259506 0.122011
H45   H     H_    0.273183 0.252744 0.624302 0.086171
N1    N     N_R   0.051550 0.054780 0.395070 -0.043186
N2    N     N_R   0.954870 0.835940 0.500080 -0.037608
N3    N     N_R   0.121370 0.958420 0.460190 -0.042623
N4    N     N_R   0.991220 0.032000 0.644820 -0.039883
N5    N     N_R   0.948450 0.945220 0.604930 -0.041725
N6    N     N_R   0.164140 0.045200 0.500080 -0.039365
N7    N     N_R   0.110060 0.150840 0.644820 -0.037207
N8    N     N_R   0.002520 0.839580 0.460190 -0.038859
N9    N     N_2   0.475109 0.598698 0.948097 -0.103575
N10   N     N_2   0.458477 0.626503 0.002199 -0.108011
N11   N     N_2   0.169587 0.035760 0.056530 -0.099535
N12   N     N_R   0.835860 0.954800 0.499920 -0.033543
N13   N     N_2   0.149921 0.966516 0.005107 -0.103575
N14   N     N_R   0.889940 0.849160 0.355180 -0.091791
N15   N     N_R   0.997480 0.160420 0.539810 -0.039504
N16   N     N_R   0.842280 0.845520 0.395070 -0.063799
N17   N     N_R   0.045130 0.164060 0.499920 -0.039728
N18   N     N_R   0.878630 0.041580 0.539810 -0.036605
N19   N     N_R   0.008780 0.968000 0.355180 -0.045236
N20   N     N_R   0.157720 0.154480 0.604930 -0.036630
Ni1   Ni    Ni4+2 0.103690 0.103690 0.500000 0.208922
Ni2   Ni    Ni4+2 0.896310 0.896310 0.500000 0.207427
Ni3   Ni    Ni4+2 0.005600 0.904650 0.408510 0.211396
Ni4   Ni    Ni4+2 0.994400 0.095350 0.591490 0.212963
O1    O     O_3   0.949272 0.459974 0.299940 -0.683492
C73   C     C_3   0.035859 0.483082 0.338400 0.152911
H46   H     H_    0.046117 0.431602 0.305920 0.132287
H47   H     H_    0.053816 0.487649 0.397144 0.088397
C74   C     C_3   0.094925 0.565416 0.340659 -0.299259
H48   H     H_    0.074886 0.561651 0.282469 0.210403
H49   H     H_    0.092970 0.620054 0.378884 0.186762
C75   C     C_3   0.186126 0.581443 0.371208 -1.007669
H50   H     H_    0.206919 0.584524 0.429130 0.266751
H51   H     H_    0.227941 0.642644 0.374763 0.266302
H52   H     H_    0.192160 0.530220 0.332732 0.266054
O2    O     O_3   0.861260 0.798175 0.223044 -0.702294
C76   C     C_3   0.833491 0.710893 0.181938 0.144899
H53   H     H_    0.832817 0.700405 0.125365 0.140821
H54   H     H_    0.767892 0.669833 0.170888 0.103240
C77   C     C_3   0.894082 0.684177 0.222360 -0.345377
H55   H     H_    0.959595 0.727458 0.235485 0.200113
H56   H     H_    0.890640 0.688435 0.276523 0.195294
C78   C     C_3   0.871787 0.593488 0.173394 -0.964283
H57   H     H_    0.807635 0.548797 0.162103 0.270405
H58   H     H_    0.917615 0.576553 0.203499 0.272578
H59   H     H_    0.874311 0.587192 0.118519 0.260802
C79   C     C_1   0.936644 0.826076 0.751915 0.006984
N21   N     N_1   0.871066 0.769032 0.709321 -0.099203

loop_
_geom_bond_atom_site_label_1
_geom_bond_atom_site_label_2
_ccdc_geom_bond_type
C73   C74   S    
C63   H37   S    
C77   H55   S    
C41   C42   A    
C6    N2    A    
C3    C23   A    
C11   N7    A    
C69   C79   S    
N19   Ni3   S    
C2    C12   A    
C10   H6    S    
C66   C70   A    
N6    Ni1   S    
C28   C29   A    
C26   C27   A    
C62   C63   A    
C42   H24   S    
C36   C37   A    
N5    Ni2   S    
C75   H51   S    
C38   C39   A    
C11   C14   A    
C8    N4    A    
C62   H36   S    
C73   H46   S    
C46   H33   S    
C52   H25   S    
C8    H4    S    
C18   H9    S    
C12   H12   S    
C18   C19   A    
C22   H13   S    
C23   O2    S    
C67   H43   S    
C29   H16   S    
N14   Ni3   S    
C53   N10   S    
C33   C35   A    
C6    C15   A    
N12   N18   A    
C32   H18   S    
C21   H11   S    
C44   C46   A    
C68   C69   A    
C31   H17   S    
N3    Ni3   S    
C19   H10   S    
C76   H54   S    
N3    N6    A    
C13   N8    A    
C36   H20   S    
C51   H26   S    
C13   H8    S    
C34   N15   A    
C59   C60   A    
C77   H56   S    
C47   H30   S    
C21   C22   A    
C4    C56   A    
C10   N6    A    
C9    N5    A    
C61   C62   A    
C52   C54   A    
C6    H2    S    
C74   H49   S    
N8    Ni3   S    
C57   H31   S    
C4    C34   A    
C1    C72   A    
C12   N12   A    
C51   C52   A    
C78   H59   S    
N4    Ni4   S    
N7    N20   A    
C76   C77   S    
C2    C67   A    
C75   H52   S    
C71   N19   A    
C53   C57   A    
C7    H3    S    
C58   C59   A    
C3    C45   A    
C34   H32   S    
C38   C43   A    
C31   C37   A    
C5    H45   S    
C60   C61   A    
C51   C53   A    
C35   C36   A    
C78   H58   S    
C37   C43   S    
C67   N18   A    
C39   H22   S    
C29   C30   A    
C45   H41   S    
C49   H27   S    
C74   C75   S    
C15   C27   S    
C47   C48   A    
N12   Ni2   S    
C26   H14   S    
C65   C68   A    
C28   H15   S    
C59   H40   S    
N4    N5    A    
C23   N14   A    
C9    H5    S    
C76   H53   S    
C5    C14   A    
C11   H7    S    
C16   C40   S    
N2    N8    A    
C2    C33   S    
C9    C17   A    
C40   C41   A    
N16   Ni2   S    
C77   C78   S    
C55   C57   A    
C18   C24   A    
N7    Ni4   S    
C42   C43   A    
C65   H34   S    
C39   C40   A    
N1    N19   A    
C64   H35   S    
C14   C44   S    
C74   H48   S    
C44   C50   A    
C25   C30   A    
C73   H47   S    
C46   C47   A    
C79   N21   T    
C17   C68   S    
C45   N16   A    
C7    N3    A    
C31   C32   A    
C7    C16   A    
C58   C63   A    
N14   N16   A    
N11   N13   D    
N17   Ni1   S    
C54   C55   A    
C56   N17   A    
C5    N20   A    
N20   Ni1   S    
C55   H29   S    
C50   H28   S    
C8    C17   A    
C1    H1    S    
C64   C65   A    
C19   C20   A    
C13   C15   A    
C25   C26   A    
N2    Ni2   S    
C71   C72   A    
C10   C16   A    
C75   H50   S    
C32   C33   A    
C25   O1    S    
C58   C72   S    
C41   H23   S    
N9    N10   D    
C48   C49   A    
C38   H21   S    
C3    C54   S    
C71   H44   S    
C61   N11   S    
C22   C24   A    
C1    N1    A    
C69   C70   A    
C78   H57   S    
C24   C30   S    
C60   H38   S    
C70   H39   S    
C48   N9    S    
C4    C20   S    
N15   Ni4   S    
N18   Ni4   S    
C20   C21   A    
N15   N17   A    
C49   C50   A    
C27   C28   A    
C56   H42   S    
O1    C73   S    
O2    C76   S    
N1    Ni1   S    
C64   C66   A    
C66   N13   S    
C35   H19   S    
