data_mof_unit_29475.cif
_audit_creation_date              2012-12-10T16:42:32-0500
_audit_creation_method            fapswitch 2.2
_symmetry_space_group_name_H-M    P1
_symmetry_Int_Tables_number       1
_space_group_crystal_system       triclinic
_cell_length_a                    7.572491
_cell_length_b                    8.680022
_cell_length_c                    11.040379
_cell_angle_alpha                 87.690932
_cell_angle_beta                  71.385524
_cell_angle_gamma                 102.477066
_cell_volume                      666.776588282

loop_
_atom_site_label
_atom_site_type_symbol
_atom_type_description
_atom_site_fract_x
_atom_site_fract_y
_atom_site_fract_z
_atom_type_partial_charge
C1    C     C_R   0.452012 0.200036 0.505983 0.868750
C2    C     C_R   0.547987 0.799964 0.494018 0.868775
C3    C     C_R   0.421054 0.489463 0.742961 0.725342
C4    C     C_R   0.578942 0.510516 0.257042 0.725462
C5    C     C_2   0.374268 0.477276 0.882680 0.297524
C6    C     C_2   0.625734 0.522687 0.117327 0.297476
C7    C     C_2   0.518253 0.503329 0.930960 -0.244940
C8    C     C_2   0.481760 0.496624 0.069036 -0.244836
C9    C     C_2   0.424444 0.031521 0.516192 -0.382221
C10   C     C_2   0.575555 0.968479 0.483809 -0.382232
Cu1   Cu    Cu3+1 0.688910 0.517800 0.485820 0.941887
Cu2   Cu    Cu3+1 0.311090 0.482200 0.514180 0.941823
H1    H     H_    0.333368 0.470481 0.132694 0.202023
H2    H     H_    0.666642 0.529458 0.867301 0.201920
H3    H     H_    0.278463 0.959197 0.553484 0.162409
H4    H     H_    0.721537 0.040803 0.446517 0.162420
N1    N     N_2   0.027170 0.455360 0.535550 -0.049466
N2    N     N_2   0.972830 0.544640 0.464450 -0.049472
O1    O     O_R   0.622710 0.286400 0.490790 -0.588553
O2    O     O_R   0.377290 0.713600 0.509210 -0.588543
O3    O     O_R   0.303660 0.256330 0.514730 -0.597310
O4    O     O_R   0.696340 0.743670 0.485270 -0.597307
O5    O     O_R   0.600900 0.509520 0.671740 -0.620309
O6    O     O_R   0.399100 0.490480 0.328260 -0.620337
O7    O     O_R   0.281840 0.479450 0.695690 -0.545305
O8    O     O_R   0.718160 0.520550 0.304310 -0.545153
O9    O     O_3   0.815360 0.551141 0.037424 -0.530985
C11   C     C_3   0.899104 0.715467 0.023177 -0.252704
H5    H     H_    0.906375 0.756286 0.116065 0.140295
H6    H     H_    0.820647 0.785746 0.981880 0.125352
H7    H     H_    0.048412 0.739081 0.955049 0.203182
O10   O     O_3   0.184658 0.448821 0.962620 -0.531045
C12   C     C_3   0.100713 0.284564 0.976540 -0.252599
H8    H     H_    0.179638 0.213836 0.017008 0.124936
H9    H     H_    0.092436 0.244353 0.883675 0.140911
H10   H     H_    0.951751 0.260847 0.045229 0.203087
C13   C     C_3   0.905333 0.302423 0.597182 -0.350384
H11   H     H_    0.967603 0.254494 0.664352 0.150148
H12   H     H_    0.761152 0.309180 0.657750 0.182666
H13   H     H_    0.904031 0.218963 0.524358 0.162351
C14   C     C_3   0.094667 0.697577 0.402818 -0.350312
H14   H     H_    0.032398 0.745504 0.335645 0.150294
H15   H     H_    0.095966 0.781039 0.475642 0.162308
H16   H     H_    0.238850 0.690821 0.342251 0.182672

loop_
_geom_bond_atom_site_label_1
_geom_bond_atom_site_label_2
_ccdc_geom_bond_type
Cu2   N1    S    
C2    O4    A    
C4    O8    A    
Cu1   Cu2   S    
Cu1   N2    S    
C1    O3    A    
C8    H1    S    
C9    C10   D    
Cu2   O6    S    
Cu1   O4    S    
C3    O5    A    
C6    O9    S    
Cu2   O7    S    
C5    O10   S    
O10   C12   S    
Cu2   O2    S    
C11   H6    S    
C12   H8    S    
C9    H3    S    
C7    C8    S    
C13   H12   S    
C10   H4    S    
C14   H15   S    
Cu1   O1    S    
C13   H11   S    
Cu1   O5    S    
C11   H5    S    
C12   H9    S    
N1    N2    D    
C13   H13   S    
C7    H2    S    
C4    O6    A    
C14   H16   S    
C1    O1    A    
N1    C13   S    
C2    O2    A    
C2    C10   S    
C3    O7    A    
C12   H10   S    
C1    C9    S    
C4    C6    S    
C14   H14   S    
N2    C14   S    
O9    C11   S    
C5    C7    D    
C6    C8    D    
Cu1   O8    S    
Cu2   O3    S    
C11   H7    S    
C3    C5    S    
