data_mof_unit_39943.cif
_audit_creation_date              2013-03-05T15:40:42-0500
_audit_creation_method            fapswitch 2.2
_symmetry_space_group_name_H-M    P1
_symmetry_Int_Tables_number       1
_space_group_crystal_system       triclinic
_cell_length_a                    19.109718
_cell_length_b                    11.042888
_cell_length_c                    18.801469
_cell_angle_alpha                 89.727849
_cell_angle_beta                  90.079247
_cell_angle_gamma                 89.837349
_cell_volume                      3967.54312442

loop_
_atom_site_label
_atom_site_type_symbol
_atom_site_description
_atom_site_fract_x
_atom_site_fract_y
_atom_site_fract_z
_atom_type_partial_charge
O1    O     O_R   0.043230 0.549300 0.667990 -0.530438
O2    O     O_R   0.956770 0.549300 0.332010 -0.531525
O3    O     O_R   0.543230 0.049300 0.667990 -0.527704
O4    O     O_R   0.456770 0.049300 0.332010 -0.532695
O5    O     O_R   0.178620 0.457600 0.674100 -0.513827
O6    O     O_R   0.821380 0.457600 0.325900 -0.508493
O7    O     O_R   0.678620 0.957600 0.674100 -0.515957
O8    O     O_R   0.321380 0.957600 0.325900 -0.511250
C1    C     C_R   0.239386 0.467032 0.647664 0.582401
C2    C     C_R   0.760250 0.466243 0.352449 0.596006
C3    C     C_R   0.739791 0.965271 0.648652 0.579206
C4    C     C_R   0.260638 0.967205 0.352744 0.591868
O9    O     O_R   0.284680 0.542100 0.669460 -0.457425
O10   O     O_R   0.715320 0.542100 0.330540 -0.458790
O11   O     O_R   0.784680 0.042100 0.669460 -0.453260
O12   O     O_R   0.215320 0.042100 0.330540 -0.442864
O13   O     O_R   0.262860 0.790390 0.676650 -0.469822
O14   O     O_R   0.737140 0.790390 0.323350 -0.457448
O15   O     O_R   0.762860 0.290390 0.676650 -0.472281
O16   O     O_R   0.237140 0.290390 0.323350 -0.444946
C5    C     C_R   0.227694 0.874864 0.648607 0.565714
C6    C     C_R   0.771425 0.877983 0.349525 0.596152
C7    C     C_R   0.713502 0.339847 0.639510 0.572782
C8    C     C_R   0.271685 0.376793 0.350203 0.592818
O17   O     O_R   0.167460 0.907030 0.670940 -0.509677
O18   O     O_R   0.832540 0.907030 0.329060 -0.510291
O19   O     O_R   0.667460 0.407030 0.670940 -0.512221
O20   O     O_R   0.332540 0.407030 0.329060 -0.512680
O21   O     O_R   0.053950 0.750220 0.675100 -0.449607
O22   O     O_R   0.946050 0.750220 0.324900 -0.456585
O23   O     O_R   0.553950 0.250220 0.675100 -0.465064
O24   O     O_R   0.446050 0.250220 0.324900 -0.455988
C9    C     C_R   0.027072 0.656448 0.646303 0.569971
C10   C     C_R   0.971734 0.653740 0.354676 0.600952
C11   C     C_R   0.526986 0.156339 0.646368 0.565389
C12   C     C_R   0.471549 0.153625 0.354787 0.598176
O25   O     O_R   0.043300 0.547370 0.827390 -0.427695
O26   O     O_R   0.956700 0.547370 0.172610 -0.432765
O27   O     O_R   0.543300 0.047370 0.827390 -0.426942
O28   O     O_R   0.456700 0.047370 0.172610 -0.432567
O29   O     O_R   0.178690 0.455820 0.821860 -0.467498
O30   O     O_R   0.821310 0.455820 0.178140 -0.464655
O31   O     O_R   0.678690 0.955820 0.821860 -0.465910
O32   O     O_R   0.321310 0.955820 0.178140 -0.464338
C13   C     C_R   0.239510 0.465609 0.850580 0.532951
C14   C     C_R   0.761425 0.463854 0.149964 0.554806
C15   C     C_R   0.739510 0.965602 0.850573 0.532991
C16   C     C_R   0.261429 0.963863 0.149959 0.554457
O33   O     O_R   0.284750 0.540170 0.828860 -0.495849
O34   O     O_R   0.715250 0.540170 0.171140 -0.533011
O35   O     O_R   0.784750 0.040170 0.828860 -0.496992
O36   O     O_R   0.215250 0.040170 0.171140 -0.533497
O37   O     O_R   0.262920 0.788600 0.824420 -0.463595
O38   O     O_R   0.737080 0.788600 0.175580 -0.484279
O39   O     O_R   0.762920 0.288600 0.824420 -0.457729
O40   O     O_R   0.237080 0.288600 0.175580 -0.484098
C17   C     C_R   0.226438 0.872908 0.853047 0.523393
C18   C     C_R   0.793984 0.818815 0.141714 0.582548
C19   C     C_R   0.726437 0.372904 0.853051 0.532424
C20   C     C_R   0.293989 0.318804 0.141717 0.582027
O41   O     O_R   0.167530 0.905110 0.830340 -0.551476
O42   O     O_R   0.832470 0.905110 0.169660 -0.501488
O43   O     O_R   0.667530 0.405110 0.830340 -0.546071
O44   O     O_R   0.332470 0.405110 0.169660 -0.500536
O45   O     O_R   0.054010 0.748440 0.822860 -0.497192
O46   O     O_R   0.945990 0.748440 0.177140 -0.521153
O47   O     O_R   0.554010 0.248440 0.822860 -0.496438
O48   O     O_R   0.445990 0.248440 0.177140 -0.520471
C21   C     C_R   0.028287 0.651752 0.850112 0.577713
C22   C     C_R   0.970369 0.652689 0.149184 0.591629
C23   C     C_R   0.528292 0.151752 0.850114 0.578897
C24   C     C_R   0.470367 0.152689 0.149185 0.591805
Cr1   Cr    Cr6+3 0.113970 0.508630 0.747920 1.098640
Cr2   Cr    Cr6+3 0.886030 0.508630 0.252080 1.108032
Cr3   Cr    Cr6+3 0.613970 0.008630 0.747920 1.095790
Cr4   Cr    Cr6+3 0.386030 0.008630 0.252080 1.106200
Cr5   Cr    Cr6+3 0.269200 0.666740 0.749850 1.129033
Cr6   Cr    Cr6+3 0.730800 0.666740 0.250150 1.104749
Cr7   Cr    Cr6+3 0.769200 0.166740 0.749850 1.130305
Cr8   Cr    Cr6+3 0.230800 0.166740 0.250150 1.116753
Cr9   Cr    Cr6+3 0.112300 0.820070 0.749800 1.106975
Cr10  Cr    Cr6+3 0.887700 0.820070 0.250200 1.105910
Cr11  Cr    Cr6+3 0.612300 0.320070 0.749800 1.100613
Cr12  Cr    Cr6+3 0.387700 0.320070 0.250200 1.105425
O49   O     O_3   0.165160 0.665150 0.749190 -0.290796
O50   O     O_3   0.834840 0.665150 0.250810 -0.324952
O51   O     O_3   0.665160 0.165150 0.749190 -0.305180
O52   O     O_3   0.334840 0.165150 0.250810 -0.329131
C25   C     C_2   0.255329 0.921410 0.582572 -0.079935
C26   C     C_2   0.743201 0.932300 0.412863 -0.076685
C27   C     C_2   0.736999 0.378996 0.569756 -0.072662
C28   C     C_2   0.243068 0.430223 0.413778 -0.067822
C29   C     C_2   0.246969 0.903001 0.417879 -0.077659
C30   C     C_2   0.751796 0.901031 0.583784 -0.069234
C31   C     C_2   0.742630 0.393734 0.414064 -0.094821
C32   C     C_2   0.251162 0.405624 0.581744 -0.108263
C33   C     C_2   0.298251 0.893342 0.465347 -0.152482
C34   C     C_2   0.704354 0.913781 0.532389 -0.126037
C35   C     C_2   0.792592 0.350933 0.456632 -0.152436
C36   C     C_2   0.201548 0.413705 0.532120 -0.156644
C37   C     C_2   0.281873 0.843965 0.534629 0.232540
C38   C     C_2   0.718800 0.860013 0.464288 0.211315
C39   C     C_2   0.773407 0.304011 0.526928 0.234797
C40   C     C_2   0.214649 0.358469 0.463625 0.226028
H1    H     H_    0.350239 0.929305 0.455602 0.142848
H2    H     H_    0.658191 0.970884 0.538384 0.139342
H3    H     H_    0.847421 0.361665 0.443200 0.146838
H4    H     H_    0.153196 0.464009 0.540267 0.148242
H5    H     H_    0.193864 0.876594 0.431268 0.149880
H6    H     H_    0.801059 0.854100 0.574842 0.150730
H7    H     H_    0.688166 0.386719 0.429795 0.134291
H8    H     H_    0.301523 0.363836 0.570681 0.144466
H9    H     H_    0.254348 0.017947 0.572657 0.051487
H10   H     H_    0.746581 0.029781 0.419719 0.099672
H11   H     H_    0.726305 0.471895 0.553774 0.073320
H12   H     H_    0.249449 0.526805 0.422072 0.087885
C41   C     C_R   0.003712 0.657558 0.427092 0.009392
C42   C     C_R   0.990443 0.669597 0.576419 0.009544
C43   C     C_R   0.503388 0.157314 0.427259 0.008574
C44   C     C_R   0.489994 0.168832 0.576630 0.009455
C45   C     C_R   0.035350 0.874360 0.424066 0.221885
C46   C     C_R   0.991086 0.895131 0.567039 0.231107
C47   C     C_R   0.532526 0.374461 0.424217 0.219259
C48   C     C_R   0.487778 0.393859 0.567180 0.228942
C49   C     C_R   0.033017 0.986492 0.457473 -0.178782
C50   C     C_R   0.010674 0.997046 0.527421 -0.187832
C51   C     C_R   0.526920 0.486449 0.456956 -0.179823
C52   C     C_R   0.504726 0.496395 0.526965 -0.180403
C53   C     C_R   0.997629 0.778282 0.535980 -0.035208
C54   C     C_R   0.012325 0.769940 0.461648 -0.042973
C55   C     C_R   0.496162 0.277442 0.536245 -0.043313
C56   C     C_R   0.511097 0.269485 0.461941 -0.045963
H13   H     H_    0.049840 0.066182 0.428841 0.148754
H14   H     H_    0.008405 0.085883 0.550908 0.130718
H15   H     H_    0.540536 0.566216 0.427246 0.132478
H16   H     H_    0.500409 0.585002 0.550008 0.131886
C57   C     C_R   0.977904 0.560972 0.540461 -0.000921
C58   C     C_R   0.998103 0.551064 0.469117 -0.002521
C59   C     C_R   0.478185 0.060139 0.540582 -0.005378
C60   C     C_R   0.498489 0.050773 0.469197 -0.006498
C61   C     C_R   0.953643 0.457621 0.576909 -0.061603
C62   C     C_R   0.010268 0.433870 0.441694 -0.074974
C63   C     C_R   0.455348 0.956118 0.577197 -0.072946
C64   C     C_R   0.512149 0.934133 0.441901 -0.081781
C65   C     C_R   0.963257 0.343705 0.548196 -0.129830
C66   C     C_R   0.991748 0.331575 0.480658 -0.158075
C67   C     C_R   0.468165 0.842655 0.549443 -0.127849
C68   C     C_R   0.496519 0.831474 0.481853 -0.153412
H17   H     H_    0.034888 0.420490 0.390505 0.160182
H18   H     H_    0.931743 0.464449 0.629896 0.149002
H19   H     H_    0.536337 0.921539 0.390431 0.153835
H20   H     H_    0.433020 0.962323 0.630033 0.143876
H21   H     H_    0.951140 0.265590 0.580087 0.123373
H22   H     H_    0.998608 0.243206 0.457815 0.100353
H23   H     H_    0.458392 0.764477 0.582081 0.119582
H24   H     H_    0.505192 0.743573 0.459754 0.091867
C69   C     C_2   0.238833 0.907950 0.926240 0.339990
C70   C     C_2   0.789135 0.809646 0.063771 0.273755
C71   C     C_2   0.738828 0.407918 0.926255 0.336827
C72   C     C_2   0.289157 0.309590 0.063771 0.273459
C73   C     C_2   0.251763 0.890814 0.086140 0.251271
C74   C     C_2   0.749118 0.926983 0.923814 0.226671
C75   C     C_2   0.751749 0.390774 0.086159 0.251187
C76   C     C_2   0.249129 0.427027 0.923834 0.226358
C77   C     C_2   0.192609 0.899552 0.048736 -0.108891
C78   C     C_2   0.813652 0.894222 0.946462 -0.120832
C79   C     C_2   0.692597 0.399509 0.048748 -0.108339
C80   C     C_2   0.313655 0.394148 0.946454 -0.120840
C81   C     C_2   0.191177 0.866720 0.973723 -0.051480
C82   C     C_2   0.829624 0.879329 0.022341 -0.068382
C83   C     C_2   0.691172 0.366670 0.973733 -0.052433
C84   C     C_2   0.329655 0.379239 0.022329 -0.068305
H25   H     H_    0.145913 0.940325 0.071196 0.107023
H26   H     H_    0.856859 0.888629 0.909076 0.107197
H27   H     H_    0.645904 0.440307 0.071198 0.106999
H28   H     H_    0.356838 0.388449 0.909044 0.107248
H29   H     H_    0.146677 0.813315 0.956134 0.108808
H30   H     H_    0.868945 0.938790 0.044832 0.154606
H31   H     H_    0.646674 0.313272 0.956137 0.108320
H32   H     H_    0.368979 0.438702 0.044813 0.154641
C85   C     C_2   0.999357 0.658423 0.921369 -0.145099
C86   C     C_2   0.992507 0.662559 0.075961 -0.104115
C87   C     C_2   0.499391 0.158422 0.921381 -0.145394
C88   C     C_2   0.492490 0.162557 0.075959 -0.104274
C89   C     C_2   0.008107 0.562137 0.039034 0.232774
C90   C     C_2   0.991764 0.556824 0.961616 0.212955
C91   C     C_2   0.508121 0.062141 0.039041 0.232880
C92   C     C_2   0.491783 0.056821 0.961622 0.212975
H33   H     H_    0.974379 0.744734 0.050193 0.035691
H34   H     H_    0.007048 0.746403 0.945154 0.054159
H35   H     H_    0.474328 0.244703 0.050183 0.035677
H36   H     H_    0.507120 0.246387 0.945175 0.054166
N1    N     N_R   0.310382 0.821571 0.059558 0.114051
O53   O     O_R   0.301191 0.714715 0.032459 -0.270665
O54   O     O_R   0.372782 0.867953 0.059199 -0.224390
N2    N     N_R   0.695089 0.962600 0.972556 0.050253
O55   O     O_R   0.630279 0.952470 0.953252 -0.325194
O56   O     O_R   0.709586 0.029282 0.027432 -0.278755
N3    N     N_R   0.810360 0.321505 0.059590 0.113926
O57   O     O_R   0.801166 0.214602 0.032558 -0.271005
O58   O     O_R   0.872746 0.367929 0.059148 -0.224454
N4    N     N_R   0.195148 0.462788 0.972601 0.050322
O59   O     O_R   0.130324 0.453017 0.953279 -0.325367
O60   O     O_R   0.209739 0.529236 0.027555 -0.278565
O61   O     O_3   0.291690 0.987409 0.946092 -0.503275
C93   C     C_3   0.296327 0.084539 0.897154 -0.039704
H37   H     H_    0.245837 0.134647 0.893311 0.116223
H38   H     H_    0.313033 0.053733 0.843592 0.131487
H39   H     H_    0.336770 0.148227 0.916377 0.158665
O62   O     O_3   0.752155 0.715027 0.032549 -0.608952
C94   C     C_3   0.679078 0.725757 0.042575 -0.012435
H40   H     H_    0.661885 0.810491 0.068618 0.230856
H41   H     H_    0.659605 0.649568 0.074825 0.151897
H42   H     H_    0.652932 0.719679 0.990018 0.172739
O63   O     O_3   0.791686 0.487360 0.946124 -0.503883
C95   C     C_3   0.796322 0.584528 0.897214 -0.038554
H43   H     H_    0.745826 0.634615 0.893366 0.117224
H44   H     H_    0.813052 0.553765 0.843653 0.136515
H45   H     H_    0.836750 0.648221 0.916466 0.157896
O64   O     O_3   0.252161 0.214979 0.032561 -0.609023
C96   C     C_3   0.179082 0.225816 0.042539 -0.012596
H46   H     H_    0.161916 0.310548 0.068602 0.230830
H47   H     H_    0.159554 0.149613 0.074755 0.151773
H48   H     H_    0.152966 0.219850 0.989958 0.172556
N5    N     N_R   0.042121 0.462353 0.075303 0.135152
O65   O     O_R   0.012603 0.356634 0.078852 -0.244608
O66   O     O_R   0.093037 0.485458 0.119234 -0.302319
N6    N     N_R   0.972355 0.443032 0.928939 0.165963
O67   O     O_R   0.005110 0.342851 0.943985 -0.222707
O68   O     O_R   0.926403 0.441637 0.877886 -0.320199
N7    N     N_R   0.542171 0.962403 0.075318 0.135157
O69   O     O_R   0.512648 0.856697 0.078954 -0.244673
O70   O     O_R   0.593099 0.985583 0.119222 -0.303120
N8    N     N_R   0.472313 0.943057 0.928944 0.166036
O71   O     O_R   0.504878 0.842757 0.944136 -0.222232
O72   O     O_R   0.426426 0.941742 0.877829 -0.321850
O73   O     O_3   0.272275 0.719709 0.541873 -0.544213
C97   C     C_3   0.335618 0.658255 0.527613 -0.081077
H49   H     H_    0.366609 0.651272 0.577162 0.169902
H50   H     H_    0.366795 0.697458 0.483321 0.109592
H51   H     H_    0.324417 0.564705 0.511533 0.126158
O74   O     O_3   0.726178 0.735334 0.460003 -0.546760
C98   C     C_3   0.660057 0.683349 0.471118 -0.084616
H52   H     H_    0.622973 0.714826 0.429313 0.128262
H53   H     H_    0.639447 0.702224 0.525299 0.123389
H54   H     H_    0.664815 0.584239 0.466429 0.134869
O75   O     O_3   0.777102 0.180723 0.542358 -0.560278
C99   C     C_3   0.843004 0.129931 0.525074 -0.086938
H55   H     H_    0.874572 0.121668 0.574183 0.179351
H56   H     H_    0.872875 0.176690 0.482811 0.096858
H57   H     H_    0.835941 0.036765 0.505523 0.127469
O76   O     O_3   0.215594 0.232786 0.455483 -0.540340
C100  C     C_3   0.167512 0.176011 0.501530 -0.098630
H58   H     H_    0.114571 0.215476 0.495564 0.118637
H59   H     H_    0.184464 0.182285 0.557880 0.128519
H60   H     H_    0.164608 0.078952 0.487756 0.138278
N9    N     N_R   0.066916 0.867085 0.354597 0.077873
O77   O     O_R   0.106625 0.775552 0.337948 -0.363453
O78   O     O_R   0.062118 0.957858 0.310424 -0.326035
N10   N     N_R   0.959017 0.913302 0.635593 0.081799
O79   O     O_R   0.911151 0.839491 0.658810 -0.381150
O80   O     O_R   0.972941 0.009861 0.672387 -0.352741
N11   N     N_R   0.564969 0.368403 0.355039 0.077101
O81   O     O_R   0.604984 0.277300 0.338316 -0.363007
O82   O     O_R   0.560220 0.459460 0.311058 -0.331342
N12   N     N_R   0.455910 0.410669 0.635953 0.085535
O83   O     O_R   0.409151 0.334955 0.659415 -0.381517
O84   O     O_R   0.468232 0.508324 0.672338 -0.351083

loop_
_geom_bond_atom_site_label_1
_geom_bond_atom_site_label_2
_geom_bond_distance
_ccdc_geom_bond_type
C18   O42   1.316333 A    
Cr11  O51   1.984347 S    
O4    C12   1.263556 A    
O47   Cr11  1.937075 S    
C40   O76   1.397115 S    
O39   C19   1.282429 A    
C47   C56   1.417840 A    
O20   Cr12  2.060030 S    
C44   C55   1.421730 A    
C45   N9    1.441927 S    
C62   C66   1.390367 A    
O15   C7    1.291187 A    
C67   C68   1.388074 A    
C95   H45   1.107835 S    
C36   C40   1.449369 S    
C45   C54   1.420755 A    
C64   C68   1.390353 A    
C87   H36   1.081800 S    
N6    O68   1.300214 A    
C65   C66   1.389220 A    
O1    C9    1.286319 A    
N11   O81   1.301934 A    
N12   O84   1.301682 A    
C5    C25   1.442856 S    
O61   C93   1.412900 S    
O7    C3    1.266605 A    
N1    O53   1.299792 A    
C32   H8    1.086893 S    
C97   H51   1.099306 S    
O5    C1    1.268125 A    
N4    O60   1.300487 A    
C82   H30   1.085886 S    
C43   C60   1.416581 A    
O24   C12   1.296767 A    
C62   H17   1.082427 S    
C13   C76   1.451039 S    
C51   H15   1.073629 S    
C96   H48   1.109129 S    
O25   C21   1.263580 A    
C29   H5    1.086261 S    
C52   H16   1.074985 S    
O35   Cr7   2.055550 S    
O38   C18   1.304296 A    
C100  H58   1.105786 S    
C31   C35   1.329366 D    
N2    O55   1.295394 A    
C84   H32   1.085888 S    
C30   C34   1.330802 D    
C77   H25   1.085312 S    
C98   H52   1.111428 S    
C27   H11   1.086352 S    
O21   C9    1.279389 A    
O8    Cr4   1.942026 S    
O23   Cr11  1.954916 S    
C80   H28   1.086910 S    
N9    O77   1.301842 A    
O30   C14   1.263091 A    
C81   H29   1.088213 S    
O32   Cr4   1.951759 S    
C12   C43   1.492274 S    
C1    O9    1.269098 A    
C26   C38   1.336229 D    
O25   Cr1   2.060990 S    
C69   C81   1.354394 D    
C74   C78   1.351878 D    
C15   C74   1.450900 S    
C19   C71   1.450705 S    
N3    O57   1.299785 A    
C22   C86   1.444520 S    
O11   Cr7   2.070051 S    
C4    O12   1.264883 A    
C47   N11   1.443377 S    
N1    O54   1.299132 A    
N8    O72   1.300224 A    
C38   O74   1.386361 S    
C86   H33   1.082467 S    
C7    O19   1.294462 A    
C15   O35   1.262523 A    
C42   C57   1.400806 A    
C67   H23   1.073754 S    
Cr4   O52   1.983664 S    
C46   C53   1.424112 A    
O47   C23   1.281645 A    
O2    Cr2   2.071659 S    
C99   H57   1.102743 S    
O8    C4    1.270740 A    
C57   C58   1.401016 A    
C48   C52   1.397611 A    
C65   H21   1.074160 S    
Cr6   O50   1.988222 S    
C10   C41   1.492444 S    
C26   H10   1.086865 S    
O42   Cr10  2.065254 S    
C36   H4    1.088157 S    
Cr5   O49   1.988325 S    
C9    C42   1.494135 S    
O18   Cr10  2.060030 S    
O73   C97   1.412661 S    
O31   Cr3   1.945706 S    
C72   C84   1.340498 D    
C83   H31   1.088204 S    
C11   C44   1.494349 S    
C59   C63   1.407129 A    
C8    C28   1.443121 S    
Cr7   O51   1.988325 S    
N6    O67   1.299348 A    
C99   H56   1.105860 S    
C61   H18   1.083979 S    
O6    Cr2   1.942026 S    
C97   H50   1.111420 S    
C77   C81   1.458122 S    
O24   Cr12  1.947136 S    
O9    Cr5   2.070051 S    
C78   H26   1.086907 S    
C71   O63   1.391610 S    
N4    O59   1.295405 A    
O22   C10   1.296153 A    
C37   O73   1.390925 S    
O48   Cr12  1.939816 S    
C60   C64   1.412556 A    
C76   C80   1.351920 D    
C85   C90   1.358519 D    
C69   O61   1.391621 S    
C95   H43   1.112988 S    
C24   C88   1.444474 S    
N2    O56   1.300416 A    
C5    O17   1.275877 A    
C18   C70   1.472230 S    
C100  H59   1.109986 S    
O16   Cr8   1.947200 S    
C93   H37   1.112988 S    
C70   C82   1.340491 D    
C79   C83   1.458172 S    
C16   C73   1.460819 S    
C98   H53   1.113079 S    
C34   C38   1.440635 S    
C30   H6    1.087008 S    
C39   O75   1.392242 S    
O28   Cr4   2.059636 S    
C48   C55   1.422282 A    
O43   Cr11  2.074500 S    
O48   C24   1.270611 A    
N9    O78   1.301657 A    
C86   C89   1.344135 D    
Cr12  O52   1.989192 S    
C46   C50   1.398847 A    
C63   C67   1.380948 A    
O63   C95   1.412870 S    
C45   C49   1.391736 A    
C96   H46   1.107389 S    
C23   C87   1.452093 S    
O46   Cr10  1.939816 S    
O39   Cr7   1.951518 S    
C85   H34   1.081784 S    
C28   C40   1.340857 D    
O45   Cr9   1.937075 S    
C94   H40   1.107376 S    
C66   H22   1.075793 S    
C25   H9    1.081460 S    
C13   O33   1.262506 A    
C75   C79   1.333532 D    
O14   Cr6   1.947200 S    
C98   H54   1.101934 S    
C89   N5    1.445424 S    
N10   O80   1.301711 A    
O13   Cr5   1.937523 S    
N5    O65   1.299489 A    
C6    C26   1.440668 S    
C88   H35   1.082483 S    
C73   N1    1.445550 S    
N7    O70   1.302014 A    
C44   C59   1.399930 A    
O29   C13   1.285935 A    
Cr2   O50   1.983664 S    
O15   Cr7   1.937523 S    
C41   C54   1.413454 A    
C28   H12   1.085797 S    
C1    C32   1.433332 S    
Cr1   O49   1.988695 S    
O30   Cr2   1.951759 S    
C71   C83   1.354399 D    
C75   N3    1.445501 S    
O32   C16   1.263072 A    
C3    C30   1.432278 S    
C46   N10   1.442587 S    
O26   C22   1.269656 A    
C94   H41   1.100704 S    
O21   Cr9   1.954916 S    
C78   C82   1.466900 S    
C3    O11   1.270852 A    
C14   C75   1.460827 S    
C76   N4    1.436836 S    
C49   C50   1.388580 A    
C7    C27   1.451152 S    
C4    C29   1.436783 S    
N8    O71   1.299329 A    
O3    C11   1.285229 A    
C55   C56   1.429326 A    
C29   C33   1.328270 D    
C47   C51   1.387938 A    
O34   Cr6   2.066263 S    
C92   N8    1.450351 S    
C99   H55   1.105490 S    
C8    O20   1.274417 A    
C79   H27   1.085305 S    
C53   C54   1.429227 A    
O26   Cr2   2.059636 S    
C80   C84   1.466956 S    
Cr3   O51   1.988695 S    
N11   O82   1.301711 A    
C17   C69   1.450612 S    
C97   H49   1.105476 S    
C63   H20   1.084089 S    
O37   C17   1.282426 A    
O22   Cr10  1.947136 S    
O28   C24   1.269649 A    
C25   C37   1.344369 D    
O14   C6    1.270559 A    
C19   O43   1.253383 A    
C33   H1    1.086419 S    
C35   C39   1.464803 S    
C20   C72   1.472298 S    
C27   C39   1.350092 D    
N10   O79   1.301370 A    
O17   Cr9   2.056248 S    
C43   C56   1.410572 A    
O6    C2    1.274488 A    
C100  H60   1.105378 S    
O7    Cr3   1.943820 S    
C59   C60   1.401824 A    
C17   O41   1.253358 A    
C61   C65   1.383138 A    
C64   H19   1.082419 S    
C70   O62   1.394489 S    
C35   H3    1.084800 S    
C41   C58   1.418056 A    
C14   O34   1.283479 A    
C49   H13   1.079422 S    
C34   H2    1.089190 S    
C88   C91   1.344117 D    
O44   Cr12  2.065254 S    
C20   O44   1.316348 A    
O1    Cr1   2.066897 S    
O19   Cr11  2.056248 S    
O40   Cr8   1.942781 S    
O3    Cr3   2.066897 S    
O74   C98   1.404815 S    
C91   N7    1.445429 S    
C91   C92   1.489734 S    
Cr8   O52   1.988222 S    
C42   C53   1.424765 A    
O41   Cr9   2.074500 S    
C87   C92   1.358507 D    
Cr10  O50   1.989192 S    
C48   N12   1.442583 S    
C93   H39   1.107829 S    
O2    C10   1.264805 A    
C89   C90   1.489728 S    
C72   O64   1.394474 S    
C2    C31   1.445798 S    
O45   C21   1.281665 A    
C32   C36   1.331796 D    
C58   C62   1.414101 A    
N5    O66   1.302016 A    
O33   Cr5   2.055550 S    
O64   C96   1.414149 S    
C33   C37   1.444790 S    
O23   C11   1.280505 A    
O10   Cr6   2.061607 S    
O5    Cr1   1.943820 S    
C73   C77   1.333521 D    
O4    Cr4   2.071659 S    
N12   O83   1.301504 A    
C57   C61   1.408389 A    
O29   Cr1   1.945706 S    
C2    O10   1.265011 A    
C95   H44   1.111425 S    
O40   C20   1.304323 A    
C16   O36   1.283488 A    
C94   H42   1.109061 S    
C90   N6    1.450315 S    
O46   C22   1.270626 A    
C50   H14   1.078515 S    
C96   H47   1.100829 S    
O62   C94   1.414135 S    
C6    O18   1.271650 A    
C74   N2    1.436757 S    
N7    O69   1.299490 A    
N3    O58   1.299079 A    
O27   C23   1.263573 A    
C31   H7    1.085272 S    
C68   H24   1.070245 S    
O12   Cr8   2.061607 S    
O37   Cr5   1.951518 S    
O36   Cr8   2.066263 S    
C93   H38   1.111456 S    
O31   C15   1.285869 A    
O16   C8    1.268187 A    
O27   Cr3   2.060990 S    
Cr9   O49   1.984347 S    
C51   C52   1.388229 A    
O75   C99   1.415992 S    
C21   C85   1.452143 S    
O76   C100  1.409669 S    
O38   Cr6   1.942781 S    
O13   C5    1.261173 A    
