data_mof_unit_55634.cif
_audit_creation_date              2013-03-05T15:43:53-0500
_audit_creation_method            fapswitch 2.2
_symmetry_space_group_name_H-M    P1
_symmetry_Int_Tables_number       1
_space_group_crystal_system       triclinic
_cell_length_a                    13.521146
_cell_length_b                    13.542282
_cell_length_c                    27.551663
_cell_angle_alpha                 90.237341
_cell_angle_beta                  90.148555
_cell_angle_gamma                 59.87721
_cell_volume                      4363.56362523

loop_
_atom_site_label
_atom_site_type_symbol
_atom_site_description
_atom_site_fract_x
_atom_site_fract_y
_atom_site_fract_z
_atom_type_partial_charge
O1    O     O_R   0.301710 0.195650 0.554160 -0.506731
O2    O     O_R   0.522390 0.158990 0.550460 -0.495428
C1    C     C_R   0.620171 0.100593 0.570384 0.545016
O3    O     O_R   0.694390 0.003530 0.554040 -0.507903
O4    O     O_R   0.657700 0.819660 0.549320 -0.494530
C2    C     C_R   0.599638 0.779739 0.568850 0.546863
O5    O     O_R   0.501930 0.803280 0.552920 -0.506212
O6    O     O_R   0.318170 0.023580 0.549580 -0.494518
C3    C     C_R   0.278708 0.121264 0.569899 0.546055
O7    O     O_R   0.303010 0.193990 0.446760 -0.524116
O8    O     O_R   0.523600 0.157450 0.450900 -0.506463
C4    C     C_R   0.621536 0.100197 0.431416 0.547895
O9    O     O_R   0.695690 0.001860 0.446640 -0.517705
O10   O     O_R   0.658900 0.818120 0.449760 -0.499182
C5    C     C_R   0.598910 0.781845 0.429156 0.544641
O11   O     O_R   0.503220 0.801620 0.445520 -0.529630
O12   O     O_R   0.319370 0.022040 0.450020 -0.505739
C6    C     C_R   0.277753 0.121496 0.431013 0.544721
Cr1   Cr    Cr6+3 0.417550 0.169090 0.500530 1.019095
Cr2   Cr    Cr6+3 0.669180 0.913420 0.499920 1.026455
Cr3   Cr    Cr6+3 0.413260 0.917540 0.499520 1.015104
O13   O     O_3   0.499990 0.000010 0.499990 -0.247724
C7    C     C_3   0.775570 0.611241 0.738430 -0.100156
C8    C     C_3   0.738840 0.707645 0.776764 -0.101428
H1    H     H_    0.794228 0.738532 0.792399 0.097172
H2    H     H_    0.861371 0.562241 0.721468 0.099701
H3    H     H_    0.589015 0.873753 0.739856 0.100919
C9    C     C_1   0.696423 0.608715 0.900202 -0.015281
C10   C     C_1   0.631031 0.732872 0.616659 -0.015856
C11   C     C_3   0.715750 0.559347 0.768249 -0.101065
C12   C     C_3   0.678772 0.656166 0.805719 0.052615
C13   C     C_3   0.603006 0.633554 0.740129 -0.100365
C14   C     C_3   0.662960 0.685008 0.711094 0.052654
C15   C     C_3   0.566275 0.729912 0.778319 -0.099220
C16   C     C_3   0.626017 0.781851 0.748558 -0.101272
C17   C     C_1   0.687425 0.635091 0.858051 -0.058953
C18   C     C_1   0.649235 0.706111 0.658767 -0.058497
H4    H     H_    0.480413 0.778934 0.795232 0.099754
H5    H     H_    0.547547 0.602688 0.724557 0.104613
H6    H     H_    0.752758 0.467441 0.776949 0.104283
C19   C     C_3   0.130507 0.092875 0.740749 -0.088345
C20   C     C_3   0.224970 0.057829 0.779901 -0.109519
H7    H     H_    0.274665 0.972227 0.796757 0.094147
H8    H     H_    0.101754 0.036301 0.724558 0.126897
H9    H     H_    0.368781 0.083848 0.743088 0.101310
C21   C     C_1   0.096076 0.202682 0.901740 -0.018893
C22   C     C_1   0.231941 0.136654 0.617995 -0.015338
C23   C     C_3   0.053289 0.205102 0.768908 -0.083813
C24   C     C_3   0.148113 0.169816 0.807240 0.049429
C25   C     C_3   0.104911 0.266386 0.740034 -0.109308
C26   C     C_3   0.181640 0.154471 0.712633 0.047452
C27   C     C_3   0.199271 0.231344 0.779058 -0.100169
C28   C     C_3   0.276518 0.119216 0.750960 -0.099713
C29   C     C_1   0.124316 0.183621 0.859633 -0.060210
C30   C     C_1   0.204625 0.145811 0.660200 -0.057422
H10   H     H_    0.228004 0.287950 0.795238 0.107680
H11   H     H_    0.055287 0.352075 0.723238 0.101144
H12   H     H_    0.961003 0.240932 0.776808 0.145280
C31   C     C_3   0.700974 0.230814 0.738477 -0.069753
C32   C     C_3   0.596327 0.286270 0.773145 -0.134240
H13   H     H_    0.547472 0.377962 0.783383 0.109005
H14   H     H_    0.740242 0.275364 0.719920 0.103587
H15   H     H_    0.455166 0.255677 0.735771 0.115242
C33   C     C_1   0.689584 0.209236 0.903175 -0.011463
C34   C     C_1   0.635479 0.131125 0.618709 -0.013333
C35   C     C_3   0.762186 0.131219 0.774358 0.303356
C36   C     C_3   0.659601 0.186225 0.808734 0.047653
C37   C     C_3   0.714039 0.062972 0.748777 -0.107187
C38   C     C_3   0.650330 0.164019 0.713597 0.021322
C39   C     C_3   0.609408 0.118955 0.783658 -0.152393
C40   C     C_3   0.545474 0.219233 0.747468 -0.116886
C41   C     C_1   0.671510 0.198286 0.861136 -0.047336
C42   C     C_1   0.643693 0.149173 0.661058 -0.054558
H16   H     H_    0.571122 0.073747 0.802433 0.106730
H17   H     H_    0.762738 0.971386 0.738352 0.092139
C43   C     C_R   0.731104 0.702489 0.358539 -0.116132
C44   C     C_R   0.744761 0.685724 0.308262 0.029944
C45   C     C_R   0.767468 0.651003 0.207568 -0.023828
C46   C     C_R   0.861747 0.631863 0.235597 -0.113175
C47   C     C_R   0.850746 0.651790 0.285859 0.273116
C48   C     C_R   0.779929 0.626656 0.158142 -0.128438
H18   H     H_    0.864048 0.590028 0.141815 0.130833
H19   H     H_    0.802821 0.686385 0.381521 0.165437
H20   H     H_    0.943974 0.601258 0.218407 0.109675
C49   C     C_R   0.686928 0.637737 0.131114 0.004264
C50   C     C_R   0.527713 0.775963 0.349317 -0.121972
C51   C     C_R   0.540590 0.745555 0.301062 -0.001616
C52   C     C_R   0.648864 0.706082 0.279656 -0.028193
C53   C     C_R   0.447465 0.755739 0.273347 0.283490
C54   C     C_R   0.459918 0.741621 0.223332 -0.078874
C55   C     C_R   0.565040 0.708524 0.201385 -0.023957
C56   C     C_R   0.660359 0.689233 0.229538 0.031238
C57   C     C_R   0.578334 0.685774 0.152028 -0.107242
C58   C     C_R   0.622363 0.746379 0.378882 -0.026589
H21   H     H_    0.506241 0.695430 0.130853 0.152069
H22   H     H_    0.387805 0.752733 0.201774 0.138684
H23   H     H_    0.442760 0.829280 0.363558 0.159774
C59   C     C_R   0.192838 0.071316 0.360689 -0.137184
C60   C     C_R   0.164421 0.085492 0.311229 0.020533
C61   C     C_R   0.128877 0.103572 0.210215 0.007707
C62   C     C_R   0.123597 0.017694 0.236341 -0.110542
C63   C     C_R   0.139445 0.009948 0.286666 -0.078360
C64   C     C_R   0.106150 0.117006 0.160422 -0.134256
H24   H     H_    0.081541 0.061706 0.141986 0.125224
H25   H     H_    0.200792 0.998124 0.380044 0.114830
H26   H     H_    0.107689 0.956538 0.217766 0.103172
H27   H     H_    0.133653 0.944257 0.306462 0.125821
C65   C     C_R   0.105168 0.208064 0.135509 -0.003562
C66   C     C_R   0.205458 0.244147 0.359074 -0.120382
C67   C     C_R   0.184444 0.255023 0.309658 0.017276
C68   C     C_R   0.166453 0.174071 0.285265 0.057596
C69   C     C_R   0.187495 0.342267 0.283952 -0.110588
C70   C     C_R   0.177476 0.346757 0.233689 -0.127041
C71   C     C_R   0.157690 0.268006 0.209069 0.015181
C72   C     C_R   0.151213 0.181638 0.234815 0.060795
C73   C     C_R   0.137859 0.278563 0.159431 -0.122975
C74   C     C_R   0.218491 0.147996 0.384112 -0.007933
H28   H     H_    0.138483 0.348108 0.140309 0.143157
H29   H     H_    0.183618 0.412317 0.213902 0.100692
H30   H     H_    0.199666 0.405501 0.302804 0.108232
H31   H     H_    0.222267 0.305812 0.376884 0.134548
C75   C     C_R   0.544284 0.223879 0.359406 -0.143903
C76   C     C_R   0.552705 0.242090 0.310287 0.011692
C77   C     C_R   0.568857 0.271139 0.210046 0.007446
C78   C     C_R   0.466344 0.341095 0.235177 -0.110166
C79   C     C_R   0.458366 0.325670 0.284716 -0.151733
C80   C     C_R   0.581123 0.286484 0.160143 0.199478
H32   H     H_    0.462284 0.272927 0.377367 0.128765
H33   H     H_    0.391514 0.407103 0.216876 0.161560
H34   H     H_    0.378902 0.380442 0.303286 0.097135
C81   C     C_R   0.684907 0.210016 0.136706 -0.009081
C82   C     C_R   0.743929 0.074052 0.360975 -0.133257
C83   C     C_R   0.752201 0.088227 0.311588 0.019323
C84   C     C_R   0.655968 0.171958 0.285954 0.070113
C85   C     C_R   0.853268 0.015491 0.286972 -0.134691
C86   C     C_R   0.857261 0.021644 0.236870 -0.125744
C87   C     C_R   0.763036 0.105891 0.211428 0.001190
C88   C     C_R   0.662600 0.183517 0.235779 0.027072
C89   C     C_R   0.770498 0.115791 0.162113 -0.167690
C90   C     C_R   0.638902 0.137947 0.384475 -0.004868
H35   H     H_    0.849580 0.054320 0.144552 0.144111
H36   H     H_    0.934445 0.961710 0.217968 0.094915
H37   H     H_    0.927859 0.952001 0.306307 0.082606
H38   H     H_    0.816813 0.007184 0.380190 0.124526
O14   O     O_R   0.818720 0.150820 0.967160 -0.514289
O15   O     O_R   0.006410 0.181720 0.970200 -0.500252
C91   C     C_R   0.048441 0.236897 0.949622 0.548143
O16   O     O_R   0.027890 0.334070 0.964920 -0.500467
O17   O     O_R   0.809600 0.521790 0.967960 -0.497374
C92   C     C_R   0.711377 0.563013 0.948187 0.538764
O18   O     O_R   0.635520 0.542770 0.964420 -0.509043
O19   O     O_R   0.665950 0.325030 0.970100 -0.487700
C93   C     C_R   0.721901 0.225991 0.950890 0.548092
O20   O     O_R   0.816620 0.158530 0.074540 -0.540169
O21   O     O_R   0.004460 0.188870 0.069750 -0.505011
C94   C     C_R   0.048001 0.244725 0.088474 0.549122
O22   O     O_R   0.025800 0.341780 0.072300 -0.515054
O23   O     O_R   0.807650 0.528950 0.067500 -0.510413
C95   C     C_R   0.707906 0.575191 0.085865 0.540748
O24   O     O_R   0.633420 0.550490 0.071810 -0.489992
O25   O     O_R   0.664000 0.332180 0.069640 -0.429955
C96   C     C_R   0.718982 0.233456 0.089471 0.573113
Cr4   Cr    Cr6+3 0.909170 0.177380 0.020380 1.017611
Cr5   Cr    Cr6+3 0.912710 0.429210 0.018220 1.030746
Cr6   Cr    Cr6+3 0.657170 0.432570 0.019030 1.100298
O26   O     O_3   0.826350 0.346390 0.019210 -0.261401
O27   O     O_3   0.876494 0.090966 0.788569 -0.587654
C97   C     C_3   0.920155 0.985557 0.812795 0.003833
H39   H     H_    0.942969 0.916225 0.785717 0.128017
H40   H     H_    0.857611 0.985772 0.839144 0.134950
C98   C     C_3   0.027580 0.961786 0.840717 -0.250685
H41   H     H_    0.092828 0.956539 0.814838 0.164670
H42   H     H_    0.006273 0.033022 0.866544 0.191710
C99   C     C_3   0.077420 0.850142 0.868888 -0.478949
H43   H     H_    0.014493 0.854205 0.895840 0.158152
H44   H     H_    0.155518 0.835386 0.888494 0.153887
H45   H     H_    0.100779 0.777475 0.843678 0.143385
O28   O     O_3   0.943696 0.635762 0.313430 -0.580716
C100  C     C_3   0.979672 0.713309 0.299003 0.003888
H46   H     H_    0.981592 0.760201 0.331825 0.136829
H47   H     H_    0.920678 0.779715 0.272767 0.132585
C101  C     C_3   0.100704 0.647816 0.277943 -0.277434
H48   H     H_    0.163635 0.608054 0.307889 0.143324
H49   H     H_    0.108285 0.579208 0.253824 0.168154
C102  C     C_3   0.129408 0.724604 0.248090 -0.476961
H50   H     H_    0.075859 0.753441 0.214810 0.143266
H51   H     H_    0.220757 0.676598 0.237142 0.182101
H52   H     H_    0.113837 0.800125 0.269667 0.145820
O29   O     O_3   0.341301 0.783717 0.292435 -0.599679
C103  C     C_3   0.343193 0.712821 0.330973 -0.011917
H53   H     H_    0.258207 0.719268 0.331422 0.141344
H54   H     H_    0.346975 0.747974 0.366749 0.132288
C104  C     C_3   0.432980 0.584955 0.327251 -0.272049
H55   H     H_    0.416811 0.548620 0.294031 0.170394
H56   H     H_    0.520994 0.570765 0.325272 0.172027
C105  C     C_3   0.427680 0.522195 0.372148 -0.479574
H57   H     H_    0.502940 0.435093 0.372613 0.162613
H58   H     H_    0.348050 0.517404 0.372018 0.133230
H59   H     H_    0.430877 0.566002 0.405799 0.156610
N1    N     N_R   0.490796 0.379534 0.133925 0.073293
O30   O     O_R   0.455042 0.484399 0.147287 -0.368715
O31   O     O_R   0.448773 0.359758 0.094987 -0.338874

loop_
_geom_bond_atom_site_label_1
_geom_bond_atom_site_label_2
_geom_bond_distance
_ccdc_geom_bond_type
C82   H38   1.084903 S    
C35   C37   1.539754 S    
C98   H41   1.109813 S    
C9    C92   1.432328 S    
C103  H53   1.107963 S    
C19   C20   1.552049 S    
C6    C74   1.466450 S    
C91   O16   1.271038 A    
C51   C52   1.411807 A    
C80   N1    1.435113 S    
C5    C58   1.446967 S    
O19   Cr6   1.939957 S    
C102  H50   1.110495 S    
C66   C74   1.406740 A    
C85   C86   1.386071 A    
O4    Cr2   1.924056 S    
C37   H17   1.110273 S    
C4    O9    1.271596 A    
C98   H42   1.111922 S    
O8    Cr1   1.931898 S    
Cr6   O26   1.978679 S    
C59   H25   1.084191 S    
C35   O27   1.411465 S    
C77   C88   1.417730 A    
C94   O22   1.274498 A    
C36   C41   1.469815 S    
C12   C17   1.463886 S    
C31   C35   1.538759 S    
C11   C12   1.538956 S    
C97   H40   1.114846 S    
C7    H2    1.110034 S    
C79   H34   1.079892 S    
C101  H49   1.102275 S    
C24   C29   1.470385 S    
C34   C42   1.207360 T    
C15   C16   1.548561 S    
C13   H5    1.110202 S    
C38   C40   1.541775 S    
C50   H23   1.078080 S    
C99   H43   1.111009 S    
C86   H36   1.080858 S    
C70   C71   1.395890 A    
C50   C58   1.394460 A    
C103  C104  1.540125 S    
C43   C58   1.397696 A    
C70   H29   1.081945 S    
C49   C57   1.397744 A    
C19   C23   1.550334 S    
C97   C98   1.527153 S    
C52   C56   1.394917 A    
C32   C36   1.540191 S    
N1    O30   1.301337 A    
C104  H56   1.107626 S    
C39   H16   1.110184 S    
C25   C27   1.548697 S    
C7    C8    1.551477 S    
C4    C90   1.454876 S    
C38   C42   1.469293 S    
C64   C65   1.408004 A    
C64   H24   1.084277 S    
C104  H55   1.109409 S    
O23   Cr5   1.937719 S    
C100  C101  1.531416 S    
O14   C93   1.270484 A    
C104  C105  1.525770 S    
C23   C25   1.548743 S    
C35   C36   1.529627 S    
H9    C28   1.110641 S    
C31   C32   1.553364 S    
C57   H21   1.085089 S    
Cr3   O13   1.984196 S    
C1    C34   1.437508 S    
C61   C72   1.407723 A    
C78   C79   1.394252 A    
C105  H59   1.111004 S    
C43   H19   1.083736 S    
C69   C70   1.389692 A    
C48   H18   1.084692 S    
C99   H44   1.110375 S    
C98   C99   1.525387 S    
O1    Cr1   2.051356 S    
C8    C16   1.550026 S    
C5    O11   1.266199 A    
C76   C84   1.403408 A    
O16   Cr5   2.055266 S    
C62   C63   1.398761 A    
O28   C100  1.419392 S    
O20   Cr4   2.047254 S    
Cr4   O26   1.980265 S    
O1    C3    1.272126 A    
C43   C44   1.400414 A    
C44   C52   1.419910 A    
C7    C14   1.535288 S    
C55   C56   1.410510 A    
C69   H30   1.080494 S    
C81   C89   1.406596 A    
C45   C46   1.397676 A    
C82   C83   1.387560 A    
C76   C79   1.399057 A    
O14   Cr4   2.050109 S    
C32   C40   1.554381 S    
O21   Cr4   1.929991 S    
O5    Cr3   2.035673 S    
C33   C93   1.436908 S    
C61   C64   1.397630 A    
O12   Cr3   1.917837 S    
C67   C68   1.404771 A    
C32   H13   1.110206 S    
C26   C28   1.539836 S    
C101  C102  1.523919 S    
C13   C15   1.548350 S    
C23   H12   1.110259 S    
C7    C11   1.549766 S    
C21   C91   1.438653 S    
C46   H20   1.082047 S    
O10   Cr2   1.938839 S    
C55   C57   1.385155 A    
C83   C84   1.413713 A    
C87   C89   1.374806 A    
C95   O24   1.269336 A    
C65   C94   1.462255 S    
O7    Cr1   2.043280 S    
C24   C27   1.536959 S    
C60   C68   1.411285 A    
H3    C16   1.110684 S    
C21   C29   1.207970 T    
O10   C5    1.271523 A    
O12   C6    1.283949 A    
O6    C3    1.278687 A    
C12   C15   1.535105 S    
C11   H6    1.110705 S    
C63   H27   1.081286 S    
C25   C26   1.536110 S    
O17   Cr5   1.919129 S    
O24   Cr6   2.058233 S    
C8    H1    1.110232 S    
C54   H22   1.084730 S    
O22   Cr5   2.036104 S    
C39   C40   1.553731 S    
C99   H45   1.110906 S    
C31   C38   1.539845 S    
C77   C80   1.413940 A    
C105  H58   1.110667 S    
C23   C24   1.539414 S    
H15   C40   1.110343 S    
C3    C22   1.438404 S    
C51   C53   1.417454 A    
C78   H33   1.081805 S    
O25   Cr6   1.920972 S    
O23   C95   1.272897 A    
C19   H8    1.110123 S    
C20   H7    1.109967 S    
C1    O3    1.269281 A    
O27   C97   1.411289 S    
C27   C28   1.548735 S    
C50   C51   1.375574 A    
C59   C74   1.403534 A    
C22   C30   1.207888 T    
O15   C91   1.278348 A    
O15   Cr4   1.931637 S    
C44   C47   1.409621 A    
C62   H26   1.081105 S    
C97   H39   1.112644 S    
C31   H14   1.110310 S    
C103  H54   1.105019 S    
O9    Cr2   2.041079 S    
O2    Cr1   1.928067 S    
C15   H4    1.110109 S    
C25   H11   1.110072 S    
O20   C96   1.263530 A    
Cr2   O13   1.978855 S    
C105  H57   1.105585 S    
C102  H52   1.105985 S    
O6    Cr3   1.938338 S    
C2    C10   1.432366 S    
C84   C88   1.400049 A    
C71   C73   1.387051 A    
O8    C4    1.269866 A    
O11   Cr3   2.056911 S    
C71   C72   1.410274 A    
C2    O5    1.270849 A    
C100  H46   1.110591 S    
C82   C90   1.396912 A    
C87   C88   1.401928 A    
C81   C96   1.469693 S    
C36   C39   1.542958 S    
C45   C56   1.407558 A    
C13   C14   1.535444 S    
C65   C73   1.399337 A    
C80   C81   1.413906 A    
Cr5   O26   1.984207 S    
O2    C1    1.274799 A    
C53   C54   1.389412 A    
C8    C12   1.535706 S    
C75   C90   1.405611 A    
C20   C28   1.550041 S    
O25   C96   1.282574 A    
C66   C67   1.383382 A    
C11   C13   1.548121 S    
C89   H35   1.084594 S    
C45   C48   1.390406 A    
C66   H31   1.084585 S    
C54   C55   1.396283 A    
O4    C2    1.276216 A    
O7    C6    1.265253 A    
C85   H37   1.082055 S    
C61   C62   1.402241 A    
C14   C16   1.539091 S    
Cr1   O13   1.980812 S    
C73   H28   1.084773 S    
C14   C18   1.464035 S    
C26   C30   1.470258 S    
C33   C41   1.206941 T    
C75   H32   1.084571 S    
O29   C103  1.426001 S    
C37   C38   1.541949 S    
C67   C69   1.398292 A    
C102  H51   1.110653 S    
C20   C24   1.536224 S    
C46   C47   1.403650 A    
O3    Cr2   2.056323 S    
C27   H10   1.110168 S    
C60   C63   1.399465 A    
O18   Cr6   2.038254 S    
O19   C93   1.276359 A    
C9    C17   1.204240 T    
C37   C39   1.557005 S    
C59   C60   1.402442 A    
C10   C18   1.204307 T    
O21   C94   1.275561 A    
C83   C85   1.394944 A    
C53   O29   1.391768 S    
C92   O18   1.269955 A    
C86   C87   1.399717 A    
C68   C72   1.401256 A    
C49   C95   1.450547 S    
C75   C76   1.391741 A    
O17   C92   1.275491 A    
C19   C26   1.536498 S    
N1    O31   1.301025 A    
C48   C49   1.401773 A    
C101  H48   1.111236 S    
C47   O28   1.387919 S    
C77   C78   1.407021 A    
C100  H47   1.117982 S    
