data_mof_unit_68181.cif
_audit_creation_date              2012-12-11T16:30:35-0500
_audit_creation_method            fapswitch 2.2
_symmetry_space_group_name_H-M    P1
_symmetry_Int_Tables_number       1
_space_group_crystal_system       triclinic
_cell_length_a                    6.963066
_cell_length_b                    14.911573
_cell_length_c                    15.884633
_cell_angle_alpha                 89.999929
_cell_angle_beta                  90.784197
_cell_angle_gamma                 90.001485
_cell_volume                      1649.15120543

loop_
_atom_site_label
_atom_site_type_symbol
_atom_type_description
_atom_site_fract_x
_atom_site_fract_y
_atom_site_fract_z
_atom_type_partial_charge
O1    O     O_R   0.611670 0.415650 0.164070 -0.533705
O2    O     O_R   0.388330 0.915650 0.835930 -0.533714
O3    O     O_R   0.940950 0.405490 0.337780 -0.518486
O4    O     O_R   0.059050 0.905490 0.662220 -0.518455
O5    O     O_R   0.111350 0.584350 0.338470 -0.534826
O6    O     O_R   0.888650 0.084350 0.661530 -0.534768
C1    C     C_R   0.771592 0.384121 0.368142 0.731522
C2    C     C_R   0.228404 0.884142 0.631840 0.731705
O7    O     O_R   0.941380 0.404630 0.164680 -0.523749
O8    O     O_R   0.058620 0.904630 0.835320 -0.523727
O9    O     O_R   0.111780 0.583470 0.164130 -0.549981
O10   O     O_R   0.888220 0.083470 0.835870 -0.550004
C3    C     C_R   0.768930 0.377286 0.140080 0.733052
C4    C     C_R   0.231068 0.877293 0.859928 0.733110
O11   O     O_R   0.611240 0.416530 0.338400 -0.537007
O12   O     O_R   0.388760 0.916530 0.661600 -0.537004
O13   O     O_3   0.778020 0.558680 0.251290 -0.378176
O14   O     O_3   0.221980 0.058680 0.748710 -0.378143
V1    V     V_3+5 0.052840 0.489110 0.251260 1.526701
V2    V     V_3+5 0.947160 0.989110 0.748740 1.526796
O15   O     O_R   0.441500 0.594510 0.164760 -0.533308
O16   O     O_R   0.558500 0.094510 0.835240 -0.533320
C5    C     C_R   0.269887 0.619072 0.139015 0.683736
C6    C     C_R   0.730114 0.119062 0.860990 0.683737
O17   O     O_R   0.441080 0.595370 0.337860 -0.546787
O18   O     O_R   0.558920 0.095370 0.662140 -0.546772
C7    C     C_R   0.273215 0.615578 0.368773 0.716117
C8    C     C_R   0.726789 0.115570 0.631220 0.716218
V3    V     V_3+5 0.552850 0.510890 0.251270 1.498648
V4    V     V_3+5 0.447150 0.010890 0.748730 1.498721
O19   O     O_3   0.277800 0.441320 0.251250 -0.346536
O20   O     O_3   0.722200 0.941320 0.748750 -0.346549
C9    C     C_3   0.074781 0.678709 0.492845 0.037515
C10   C     C_3   0.925395 0.178821 0.507231 0.037409
H1    H     H_    0.954459 0.703747 0.452257 0.103317
H2    H     H_    0.045480 0.204062 0.547845 0.103467
C11   C     C_3   0.084451 0.739700 0.572859 0.035839
C12   C     C_3   0.915615 0.239705 0.427154 0.035743
H3    H     H_    0.944513 0.773143 0.577684 0.140292
H4    H     H_    0.055512 0.273164 0.422251 0.140475
H5    H     H_    0.158282 0.786099 0.350589 0.143384
H6    H     H_    0.841121 0.286177 0.649482 0.143382
H7    H     H_    0.064691 0.868448 0.462001 0.220727
H8    H     H_    0.935181 0.368349 0.538037 0.220675
C13   C     C_3   0.265802 0.780901 0.402482 -0.380046
C14   C     C_3   0.733851 0.280904 0.597490 -0.379952
C15   C     C_3   0.438113 0.678919 0.502662 -0.328938
C16   C     C_3   0.562058 0.178805 0.497251 -0.328900
C17   C     C_3   0.263669 0.685318 0.440245 -0.001324
C18   C     C_3   0.736342 0.185306 0.559747 -0.001410
H9    H     H_    0.575165 0.673543 0.467766 0.155401
H10   H     H_    0.424931 0.173333 0.532088 0.155613
H11   H     H_    0.425489 0.616210 0.540006 0.216082
H12   H     H_    0.574955 0.116111 0.459896 0.216207
C19   C     C_3   0.243839 0.811270 0.562370 -0.067891
C20   C     C_3   0.756157 0.311244 0.437605 -0.067914
C21   C     C_3   0.217498 0.850858 0.471594 -0.343921
C22   C     C_3   0.782355 0.350850 0.528387 -0.343967
C23   C     C_3   0.443309 0.761646 0.563722 -0.125440
C24   C     C_3   0.556758 0.261558 0.436213 -0.125362
H13   H     H_    0.479747 0.738511 0.628385 0.170627
H14   H     H_    0.520338 0.238449 0.371539 0.170641
H15   H     H_    0.408714 0.795679 0.375155 0.195281
H16   H     H_    0.590780 0.295634 0.624688 0.195374
H17   H     H_    0.308335 0.911254 0.462707 0.209336
H18   H     H_    0.691661 0.411302 0.537230 0.209274
C25   C     C_R   0.116732 0.923709 0.028747 -0.161442
C26   C     C_R   0.883309 0.423687 0.971262 -0.161416
C27   C     C_R   0.049911 0.948167 0.107711 -0.133602
C28   C     C_R   0.950221 0.448128 0.892307 -0.133580
C29   C     C_R   0.038033 0.884731 0.171680 0.017714
C30   C     C_R   0.962132 0.384680 0.828349 0.017681
C31   C     C_R   0.104455 0.797684 0.158494 -0.159335
C32   C     C_R   0.895639 0.297645 0.841533 -0.159376
C33   C     C_R   0.178944 0.771738 0.079965 0.090704
C34   C     C_R   0.821082 0.271715 0.920052 0.090727
C35   C     C_R   0.178827 0.835065 0.012413 0.084068
C36   C     C_R   0.821184 0.335047 0.987600 0.084075
C37   C     C_R   0.251513 0.684038 0.068011 -0.130581
C38   C     C_R   0.748496 0.184022 0.932000 -0.130597
C39   C     C_R   0.307680 0.657383 0.987231 0.046190
C40   C     C_R   0.692352 0.157360 0.012783 0.046149
C41   C     C_R   0.329399 0.722002 0.922244 0.018031
C42   C     C_R   0.670617 0.221977 0.077772 0.018025
C43   C     C_R   0.249588 0.810661 0.931913 -0.138094
C44   C     C_R   0.750406 0.310647 0.068098 -0.138123
C45   C     C_R   0.342994 0.565937 0.970143 -0.246686
C46   C     C_R   0.657095 0.065908 0.029872 -0.246683
C47   C     C_R   0.408634 0.538723 0.892112 -0.083033
C48   C     C_R   0.591478 0.038680 0.107905 -0.082993
C49   C     C_R   0.464277 0.603265 0.833657 0.207511
C50   C     C_R   0.535789 0.103212 0.166362 0.207474
C51   C     C_R   0.442520 0.695131 0.853196 0.111245
C52   C     C_R   0.557522 0.195085 0.146832 0.111185
H19   H     H_    0.122197 0.975730 0.981407 0.118167
H20   H     H_    0.877824 0.475715 0.018595 0.118183
H21   H     H_    0.004597 0.016648 0.118514 0.159554
H22   H     H_    0.995579 0.516602 0.881502 0.159533
H23   H     H_    0.094615 0.750159 0.209661 0.087625
H24   H     H_    0.905499 0.250115 0.790372 0.087676
H25   H     H_    0.313228 0.514451 0.016341 0.135039
H26   H     H_    0.686894 0.014428 0.983673 0.135042
C53   C     C_1   0.595350 0.824868 0.538341 0.330768
N1    N     N_1   0.708340 0.876725 0.517287 -0.344663
C54   C     C_1   0.404674 0.324730 0.461622 0.330925
N2    N     N_1   0.291677 0.376560 0.482712 -0.344644
I1    I     I_    0.600669 0.560457 0.720777 -0.350219
I2    I     I_    0.399344 0.060371 0.279224 -0.350355
C55   C     C_1   0.948958 0.907737 0.249921 0.361318
N3    N     N_1   0.874831 0.925634 0.312409 -0.266052
C56   C     C_1   0.051347 0.407644 0.750127 0.361273
N4    N     N_1   0.125604 0.425496 0.687657 -0.266034
C57   C     C_1   0.428698 0.444148 0.875463 0.369763
N5    N     N_1   0.442951 0.368206 0.861983 -0.353343
C58   C     C_1   0.571491 0.944101 0.124554 0.369763
N6    N     N_1   0.557306 0.868157 0.138035 -0.353352
I3    I     I_    0.979716 0.548505 0.519187 -0.378868
I4    I     I_    0.021547 0.048750 0.481084 -0.379164
I5    I     I_    0.698732 0.766298 0.837633 -0.311423
I6    I     I_    0.301368 0.266260 0.162515 -0.311433
I7    I     I_    0.103962 0.675462 0.694742 -0.348139
I8    I     I_    0.896028 0.175268 0.305369 -0.348216

loop_
_geom_bond_atom_site_label_1
_geom_bond_atom_site_label_2
_ccdc_geom_bond_type
C10   I4    S    
V4    O20   S    
C9    I3    S    
O11   V3    S    
C19   C23   S    
O13   V3    S    
C56   N4    T    
C25   C35   A    
O4    C2    A    
V1    O19   S    
C15   C17   S    
C16   H12   S    
C13   C21   S    
C26   H20   S    
C32   C34   A    
C42   C44   A    
O3    C1    A    
C9    C17   S    
C58   N6    T    
C41   C51   A    
O17   V3    S    
C24   H14   S    
O7    V1    S    
H6    C14   S    
C27   C29   A    
O7    C3    A    
O13   V1    S    
O5    C7    A    
C52   I6    S    
C6    C38   S    
O6    C8    A    
O8    V2    S    
C3    C44   S    
O3    V1    S    
O14   V4    S    
C47   C49   A    
C10   H2    S    
C15   H11   S    
C36   C44   A    
C16   C18   S    
C30   C56   S    
C35   C43   A    
C2    O12   A    
C45   H25   S    
C14   C22   S    
C25   H19   S    
C31   C33   A    
C8    C18   S    
C1    C20   S    
C2    C19   S    
O1    V3    S    
C39   C41   A    
C50   I2    S    
C16   C24   S    
O15   C5    A    
C26   C36   A    
C47   C57   S    
C23   H13   S    
C10   C18   S    
C49   I1    S    
C38   C40   A    
O8    C4    A    
H8    C22   S    
C37   C39   A    
C32   H24   S    
C1    O11   A    
O15   V3    S    
C13   H15   S    
C9    C11   S    
C20   C24   S    
C14   H16   S    
C25   C27   A    
O4    V2    S    
C15   H9    S    
C49   C51   A    
C48   C50   A    
C13   C17   S    
O9    V1    S    
O10   V2    S    
C50   C52   A    
C42   C52   A    
C48   C58   S    
C33   C35   A    
C12   I8    S    
C11   I7    S    
C30   C32   A    
C41   C43   A    
C46   C48   A    
O18   V4    S    
C40   C42   A    
C19   C21   S    
O16   C6    A    
O1    C3    A    
C22   H18   S    
C57   N5    T    
V2    O20   S    
C31   H23   S    
C14   C18   S    
O16   V4    S    
C10   C12   S    
C34   C38   A    
C4    C43   S    
C34   C36   A    
C46   H26   S    
O5    V1    S    
O17   C7    A    
O6    V2    S    
C54   N2    T    
O10   C6    A    
O18   C8    A    
O2    V4    S    
C23   C53   S    
C45   C47   A    
C11   H3    S    
C55   N3    T    
C12   H4    S    
C39   C45   A    
C33   C37   A    
C40   C46   A    
C29   C55   S    
O9    C5    A    
C9    H1    S    
C20   C22   S    
O14   V2    S    
O2    C4    A    
H7    C21   S    
C15   C23   S    
C11   C19   S    
C28   H22   S    
C16   H10   S    
C12   C20   S    
V3    O19   S    
C29   C31   A    
C53   N1    T    
C26   C28   A    
H5    C13   S    
C28   C30   A    
C51   I5    S    
C5    C37   S    
O12   V4    S    
C24   C54   S    
C7    C17   S    
C21   H17   S    
C27   H21   S    
