data_mof_unit_52136.cif
_audit_creation_date              2012-12-10T19:12:19-0500
_audit_creation_method            fapswitch 2.2
_symmetry_space_group_name_H-M    P1
_symmetry_Int_Tables_number       1
_space_group_crystal_system       triclinic
_cell_length_a                    7.77623
_cell_length_b                    9.089564
_cell_length_c                    17.07576
_cell_angle_alpha                 89.443769
_cell_angle_beta                  95.102271
_cell_angle_gamma                 90.036647
_cell_volume                      1202.11889169

loop_
_atom_site_label
_atom_site_type_symbol
_atom_type_description
_atom_site_fract_x
_atom_site_fract_y
_atom_site_fract_z
_atom_type_partial_charge
C1    C     C_R   0.499964 0.219989 0.500069 0.841088
C2    C     C_R   0.500198 0.779981 0.500761 0.844574
C3    C     C_R   0.523653 0.492606 0.651624 0.793893
C4    C     C_R   0.476680 0.507796 0.348711 0.811910
C5    C     C_R   0.540090 0.480389 0.738282 -0.082672
C6    C     C_R   0.458102 0.514030 0.262509 -0.067883
C7    C     C_R   0.411104 0.548192 0.776988 -0.292254
C8    C     C_R   0.558814 0.417052 0.223329 -0.288412
C9    C     C_R   0.408413 0.535749 0.857420 -0.212648
C10   C     C_R   0.544625 0.412492 0.142212 -0.203967
C11   C     C_R   0.531405 0.448977 0.902004 0.313819
C12   C     C_R   0.425457 0.503214 0.097636 0.313601
C13   C     C_R   0.660148 0.373999 0.864445 0.114158
C14   C     C_R   0.317142 0.598763 0.135945 0.110785
C15   C     C_R   0.672356 0.396895 0.782193 0.090140
C16   C     C_R   0.340052 0.611153 0.219422 0.103024
C17   C     C_1   0.500028 0.065360 0.500382 -0.187694
C18   C     C_1   0.500182 0.934615 0.500656 -0.187071
Cu1   Cu    Cu3+1 0.669080 0.500010 0.500000 0.982855
Cu2   Cu    Cu3+1 0.330920 0.499990 0.500000 0.983149
H1    H     H_    0.649133 0.343413 0.255950 0.168948
H2    H     H_    0.311925 0.613859 0.744621 0.174568
H3    H     H_    0.627051 0.336555 0.114467 0.169488
H4    H     H_    0.307952 0.593922 0.884466 0.168831
N1    N     N_1   0.076820 0.499970 0.500010 -0.055284
N2    N     N_1   0.923180 0.500030 0.499990 -0.052492
N3    N     N_2   0.534956 0.439624 0.985354 -0.256972
N4    N     N_2   0.415955 0.506371 0.014077 -0.258901
O1    O     O_R   0.642760 0.288400 0.500000 -0.580231
O2    O     O_R   0.357240 0.711600 0.500000 -0.573899
O3    O     O_R   0.357190 0.288380 0.500000 -0.574449
O4    O     O_R   0.642810 0.711620 0.500000 -0.578536
O5    O     O_R   0.658410 0.498660 0.613920 -0.584087
O6    O     O_R   0.341590 0.501340 0.386080 -0.588047
O7    O     O_R   0.372840 0.498650 0.613930 -0.587063
O8    O     O_R   0.627160 0.501350 0.386070 -0.580255
C19   C     C_3   0.775780 0.265510 0.913548 -0.397891
C20   C     C_3   0.944638 0.335539 0.947181 -0.806586
H5    H     H_    0.034016 0.351274 0.900902 0.253780
H6    H     H_    0.919426 0.442895 0.974487 0.251557
H7    H     H_    0.009143 0.261807 0.993006 0.237568
H8    H     H_    0.708155 0.222448 0.963624 0.208027
H9    H     H_    0.800595 0.164429 0.880658 0.180899
C21   C     C_3   0.179446 0.685554 0.085977 -0.401054
C22   C     C_3   0.244752 0.837231 0.063332 -0.816968
H10   H     H_    0.277260 0.905157 0.116134 0.253600
H11   H     H_    0.361163 0.826217 0.030541 0.259318
H12   H     H_    0.142825 0.894914 0.025001 0.236357
H13   H     H_    0.138626 0.625859 0.031003 0.209029
H14   H     H_    0.058455 0.694391 0.115409 0.188712
C23   C     C_3   0.824033 0.334959 0.742008 -0.375924
C24   C     C_3   0.963007 0.452081 0.733190 -0.754309
H15   H     H_    0.911504 0.550119 0.700068 0.262535
H16   H     H_    0.017722 0.490367 0.791537 0.230722
H17   H     H_    0.068765 0.404669 0.701794 0.244388
H18   H     H_    0.887787 0.241262 0.774184 0.194333
H19   H     H_    0.779316 0.287763 0.684092 0.204118
C25   C     C_3   0.251364 0.732929 0.262087 -0.399068
C26   C     C_3   0.380655 0.850571 0.292401 -0.816579
H20   H     H_    0.483582 0.803111 0.334079 0.238732
H21   H     H_    0.441909 0.902354 0.242709 0.247351
H22   H     H_    0.312831 0.937185 0.323243 0.241893
H23   H     H_    0.149325 0.790524 0.224609 0.208562
H24   H     H_    0.183540 0.687219 0.311190 0.224883

loop_
_geom_bond_atom_site_label_1
_geom_bond_atom_site_label_2
_ccdc_geom_bond_type
C21   H13   S    
C19   H9    S    
C6    C8    A    
C4    O8    A    
C9    H4    S    
C19   C20   S    
C23   H19   S    
C15   C23   S    
C10   H3    S    
C2    C18   S    
C7    H2    S    
C11   C13   A    
C14   C21   S    
C13   C19   S    
Cu1   Cu2   S    
C24   H17   S    
C3    O7    A    
C2    O2    A    
Cu2   O6    S    
C19   H8    S    
C1    O1    A    
C17   C18   T    
N1    N2    T    
C5    C7    A    
C26   H20   S    
C16   C25   S    
C22   H10   S    
C21   C22   S    
C20   H6    S    
C9    C11   A    
C10   C12   A    
C12   N4    S    
Cu1   O4    S    
C4    C6    S    
C12   C14   A    
C11   N3    S    
C8    H1    S    
C4    O6    A    
Cu1   O8    S    
C22   H11   S    
C13   C15   A    
C25   H24   S    
C20   H5    S    
C14   C16   A    
C26   H21   S    
C5    C15   A    
Cu2   N1    S    
C3    O5    A    
C6    C16   A    
C23   C24   S    
Cu1   O1    S    
C1    O3    A    
C24   H15   S    
C20   H7    S    
C2    O4    A    
C23   H18   S    
Cu1   O5    S    
C22   H12   S    
C21   H14   S    
N3    N4    D    
C7    C9    A    
Cu1   N2    S    
C26   H22   S    
Cu2   O2    S    
C25   C26   S    
Cu2   O7    S    
C1    C17   S    
C8    C10   A    
C25   H23   S    
C24   H16   S    
C3    C5    S    
Cu2   O3    S    
