data_mof_unit_15281.cif
_audit_creation_date              2012-12-10T17:13:34-0500
_audit_creation_method            fapswitch 2.2
_symmetry_space_group_name_H-M    P1
_symmetry_Int_Tables_number       1
_space_group_crystal_system       triclinic
_cell_length_a                    10.869907
_cell_length_b                    13.009665
_cell_length_c                    11.731893
_cell_angle_alpha                 98.814905
_cell_angle_beta                  94.96523
_cell_angle_gamma                 91.175358
_cell_volume                      1632.34258693

loop_
_atom_site_label
_atom_site_type_symbol
_atom_type_description
_atom_site_fract_x
_atom_site_fract_y
_atom_site_fract_z
_atom_type_partial_charge
C1    C     C_R   0.499581 0.299675 0.479504 0.777232
C2    C     C_3   0.878130 0.493426 0.505272 -0.138094
C3    C     C_3   0.935029 0.604780 0.516827 -0.482216
C4    C     C_3   0.911318 0.438532 0.384229 -0.452631
C5    C     C_R   0.472153 0.812845 0.527422 -0.200362
C6    C     C_R   0.499798 0.187135 0.468038 -0.035825
C7    C     C_R   0.535105 0.021201 0.355063 -0.196369
C8    C     C_R   0.536967 0.128835 0.367224 -0.200468
C9    C     C_R   0.462700 0.137474 0.557464 -0.207730
C10   C     C_R   0.463646 0.029698 0.547206 0.093415
C11   C     C_R   0.495633 0.970717 0.443574 0.058874
C12   C     C_R   0.259810 0.493171 0.498711 0.794438
C13   C     C_R   0.485095 0.861998 0.429167 0.363086
C14   C     C_R   0.435198 0.872549 0.629559 -0.084337
C15   C     C_R   0.429187 0.980209 0.637543 -0.254807
C16   C     C_R   0.434193 0.373442 0.023203 -0.310853
C17   C     C_R   0.430242 0.390259 0.143941 0.061686
C18   C     C_R   0.525331 0.557050 0.157703 0.063875
C19   C     C_R   0.524828 0.545278 0.035762 -0.026401
C20   C     C_R   0.483621 0.451222 0.967698 0.003285
C21   C     C_R   0.494961 0.436493 0.846058 0.562282
C22   C     C_R   0.566831 0.611211 0.859858 0.117781
C23   C     C_R   0.490990 0.700148 0.519748 0.855923
C24   C     C_R   0.568464 0.624252 0.981183 -0.396234
C25   C     C_R   0.740101 0.498496 0.501365 0.823169
C26   C     C_3   0.084135 0.434748 0.606991 0.245417
C27   C     C_3   0.936071 0.431072 0.604140 0.332767
C28   C     C_3   0.077155 0.602519 0.516755 0.270155
C29   C     C_3   0.052577 0.424293 0.380037 0.316744
C30   C     C_3   0.120868 0.486518 0.498474 -0.150810
Cu1   Cu    Cu3+1 0.509350 0.507730 0.615930 0.996185
Cu2   Cu    Cu3+1 0.490650 0.492270 0.384070 0.949085
H1    H     H_    0.873690 0.484058 0.316437 0.179544
H2    H     H_    0.895531 0.641084 0.442464 0.212997
H3    H     H_    0.566067 0.977816 0.277040 0.165362
H4    H     H_    0.398544 0.025543 0.714811 0.151683
H5    H     H_    0.567742 0.166457 0.297964 0.157579
H6    H     H_    0.431208 0.182294 0.634195 0.204929
H7    H     H_    0.397778 0.300345 0.973847 0.176249
H8    H     H_    0.604799 0.696465 0.033278 0.172529
H9    H     H_    0.393303 0.328971 0.184769 0.115832
H10   H     H_    0.565102 0.627128 0.210756 0.174010
H11   H     H_    0.119656 0.641401 0.602998 0.139687
H12   H     H_    0.909322 0.658001 0.592880 0.122181
H13   H     H_    0.860309 0.362065 0.360035 0.207391
N1    N     N_R   0.523430 0.519360 0.790130 -0.241049
N2    N     N_R   0.476570 0.480640 0.209880 -0.184034
O1    O     O_R   0.506640 0.354460 0.582000 -0.548848
O2    O     O_R   0.490840 0.341410 0.386200 -0.623979
O3    O     O_R   0.325590 0.506510 0.597900 -0.535869
O4    O     O_R   0.309790 0.493450 0.402100 -0.592850
O5    O     O_R   0.509160 0.658590 0.613800 -0.587766
O6    O     O_R   0.493360 0.645540 0.418000 -0.540102
O7    O     O_R   0.690210 0.506550 0.597900 -0.572298
O8    O     O_R   0.674410 0.493490 0.402100 -0.593192
O9    O     O_3   0.138151 0.501074 0.708943 -0.595530
C31   C     C_3   0.165106 0.454441 0.809474 0.117584
H14   H     H_    0.242234 0.400364 0.797812 0.166323
H15   H     H_    0.083602 0.411024 0.831156 0.175044
C32   C     C_3   0.207951 0.539884 0.909965 -0.793451
H16   H     H_    0.138356 0.600436 0.923206 0.248372
H17   H     H_    0.225575 0.506136 0.990839 0.228573
H18   H     H_    0.293845 0.578902 0.891136 0.261624
O10   O     O_3   0.116227 0.656770 0.429208 -0.574647
C33   C     C_3   0.115726 0.766312 0.463004 0.072502
H19   H     H_    0.212498 0.796994 0.473709 0.155800
H20   H     H_    0.074649 0.792284 0.546116 0.127474
C34   C     C_3   0.044051 0.815308 0.368925 -0.794883
H21   H     H_    0.943924 0.795585 0.366161 0.237817
H22   H     H_    0.057732 0.901292 0.387320 0.207836
H23   H     H_    0.076230 0.786398 0.283101 0.255678
O11   O     O_3   0.477092 0.804117 0.318579 -0.585847
C35   C     C_3   0.365649 0.826684 0.255293 0.044540
H24   H     H_    0.385221 0.884848 0.198603 0.150913
H25   H     H_    0.293160 0.858343 0.311395 0.137979
C36   C     C_3   0.310652 0.729219 0.178111 -0.735376
H26   H     H_    0.301470 0.664996 0.229482 0.293123
H27   H     H_    0.218011 0.745077 0.138261 0.197449
H28   H     H_    0.369612 0.706315 0.106843 0.239097
C37   C     C_1   0.389965 0.825440 0.722429 0.282105
N3    N     N_1   0.352742 0.788070 0.796607 -0.304578
O12   O     O_3   0.494136 0.335792 0.788709 -0.604679
C38   C     C_3   0.615631 0.297094 0.800752 0.110739
H29   H     H_    0.689232 0.356261 0.840398 0.142062
H30   H     H_    0.643262 0.266305 0.713592 0.197691
C39   C     C_3   0.618176 0.207350 0.870404 -0.864339
H31   H     H_    0.539123 0.151957 0.839489 0.252770
H32   H     H_    0.705485 0.165425 0.860243 0.230317
H33   H     H_    0.614108 0.237027 0.963719 0.243598
C40   C     C_1   0.138199 0.328753 0.599991 0.230770
N4    N     N_1   0.179994 0.247336 0.596505 -0.310397
C41   C     C_1   0.627910 0.694522 0.816678 0.315018
N5    N     N_1   0.678183 0.762697 0.784826 -0.330112
C42   C     C_1   0.886875 0.321880 0.570704 0.250769
N6    N     N_1   0.848200 0.237134 0.544948 -0.290605
O13   O     O_3   0.894110 0.457829 0.717352 -0.591137
C43   C     C_3   0.899243 0.563455 0.770629 0.138041
H34   H     H_    0.823686 0.606444 0.734484 0.171110
H35   H     H_    0.985515 0.606815 0.763297 0.181510
C44   C     C_3   0.880677 0.566969 0.898547 -0.827015
H36   H     H_    0.790160 0.530008 0.907689 0.243393
H37   H     H_    0.952143 0.523219 0.941936 0.257450
H38   H     H_    0.883963 0.648879 0.942937 0.208362
C45   C     C_1   0.085943 0.467381 0.275384 0.331293
N7    N     N_1   0.111107 0.500775 0.194120 -0.324609
O14   O     O_3   0.067505 0.313899 0.367748 -0.601382
C46   C     C_3   0.178060 0.276797 0.323135 0.099492
H39   H     H_    0.258203 0.302331 0.385943 0.154326
H40   H     H_    0.191161 0.300861 0.238194 0.133247
C47   C     C_3   0.172116 0.158307 0.303398 -0.779296
H41   H     H_    0.093147 0.128984 0.239394 0.246190
H42   H     H_    0.258970 0.128248 0.269603 0.193489
H43   H     H_    0.160384 0.128603 0.385687 0.268163

loop_
_geom_bond_atom_site_label_1
_geom_bond_atom_site_label_2
_ccdc_geom_bond_type
C35   H25   S    
C35   H24   S    
Cu2   O6    S    
C19   C20   A    
C36   H28   S    
Cu1   O5    S    
C18   N2    A    
C43   C44   S    
C6    C9    A    
C43   H34   S    
C31   H14   S    
C7    C8    A    
C7    C11   A    
C26   C27   S    
C32   H18   S    
C3    C28   S    
C36   H27   S    
C10   C15   A    
C18   H10   S    
C37   N3    T    
C39   H32   S    
C31   H15   S    
O14   C46   S    
O9    C31   S    
C32   H17   S    
C18   C19   A    
C47   H41   S    
C41   N5    T    
Cu1   Cu2   S    
C34   H21   S    
C33   H20   S    
Cu1   N1    S    
C46   H39   S    
C2    C27   S    
C14   C37   S    
C9    C10   A    
Cu2   O8    S    
C5    C13   A    
C4    C29   S    
C12   C30   S    
C46   H40   S    
C27   O13   S    
C45   N7    T    
C43   H35   S    
C23   O6    A    
C47   H42   S    
C4    H13   S    
C3    H12   S    
C35   C36   S    
C1    C6    S    
C17   N2    A    
Cu2   N2    S    
C36   H26   S    
C39   H31   S    
C16   C17   A    
C31   C32   S    
C6    C8    A    
C3    H2    S    
O12   C38   S    
C44   H38   S    
C29   C45   S    
C32   H16   S    
C23   O5    A    
C2    C4    S    
Cu2   O4    S    
C29   C30   S    
C38   H29   S    
C5    C23   S    
C16   C20   A    
C33   C34   S    
O13   C43   S    
C44   H37   S    
C25   O7    A    
C47   H43   S    
C5    C14   A    
C28   O10   S    
C22   N1    A    
C26   C30   S    
Cu1   O1    S    
C46   C47   S    
C22   C24   A    
C29   O14   S    
C8    H5    S    
Cu1   O3    S    
C15   H4    S    
C12   O4    A    
C21   N1    A    
C4    H1    S    
C38   H30   S    
C7    H3    S    
C25   O8    A    
O11   C35   S    
C39   H33   S    
C26   O9    S    
C12   O3    A    
C1    O1    A    
C13   O11   S    
C26   C40   S    
C28   H11   S    
O10   C33   S    
C28   C30   S    
C19   C24   A    
C21   O12   S    
C11   C13   A    
C40   N4    T    
C34   H23   S    
C9    H6    S    
C24   H8    S    
C2    C3    S    
C2    C25   S    
Cu1   O7    S    
C42   N6    T    
C17   H9    S    
Cu2   O2    S    
C10   C11   A    
C16   H7    S    
C38   C39   S    
C20   C21   A    
C34   H22   S    
C33   H19   S    
C22   C41   S    
C14   C15   A    
C27   C42   S    
C44   H36   S    
C1    O2    A    
