data_mof_unit_8302.cif
_audit_creation_date              2012-12-10T19:45:43-0500
_audit_creation_method            fapswitch 2.2
_symmetry_space_group_name_H-M    P1
_symmetry_Int_Tables_number       1
_space_group_crystal_system       triclinic
_cell_length_a                    10.799165
_cell_length_b                    14.679187
_cell_length_c                    14.481479
_cell_angle_alpha                 65.737625
_cell_angle_beta                  103.178429
_cell_angle_gamma                 102.510464
_cell_volume                      2018.12647983

loop_
_atom_site_label
_atom_site_type_symbol
_atom_type_description
_atom_site_fract_x
_atom_site_fract_y
_atom_site_fract_z
_atom_type_partial_charge
C1    C     C_R   0.476957 0.119218 0.310995 0.832601
C2    C     C_R   0.631202 0.779407 0.977859 -0.173382
C3    C     C_R   0.404474 0.151493 0.120045 0.400954
C4    C     C_R   0.601924 0.849493 0.878726 0.400065
C5    C     C_R   0.493450 0.289838 0.177100 -0.179380
C6    C     C_R   0.505137 0.710750 0.823907 -0.203730
C7    C     C_R   0.479753 0.360698 0.076019 0.095462
C8    C     C_R   0.521351 0.640485 0.925360 0.074491
C9    C     C_R   0.410681 0.325662 0.998910 -0.028194
C10   C     C_R   0.593990 0.675862 0.001131 0.003403
C11   C     C_R   0.523139 0.465967 0.051044 -0.075598
C12   C     C_R   0.523411 0.880844 0.688954 0.836455
C13   C     C_R   0.476818 0.535441 0.951719 -0.113024
C14   C     C_R   0.386771 0.496729 0.882824 0.502007
C15   C     C_R   0.611697 0.503673 0.121372 0.504130
C16   C     C_R   0.262780 0.000240 0.500907 0.902788
C17   C     C_R   0.737242 0.999637 0.499248 0.900064
C18   C     C_R   0.366095 0.394016 0.903076 -0.248015
C19   C     C_R   0.638756 0.607964 0.097176 -0.282525
C20   C     C_R   0.688117 0.273829 0.685713 -0.277978
C21   C     C_R   0.276590 0.712353 0.335959 -0.273468
C22   C     C_R   0.667620 0.197768 0.648159 0.086831
C23   C     C_R   0.870948 0.997961 0.499775 -0.177437
C24   C     C_R   0.316100 0.796056 0.362644 0.091304
C25   C     C_R   0.521076 0.286399 0.506671 0.074406
C26   C     C_R   0.479265 0.713605 0.491584 0.132756
C27   C     C_R   0.531547 0.364368 0.543808 0.004967
C28   C     C_R   0.437475 0.622611 0.473414 0.007986
C29   C     C_R   0.619829 0.356604 0.634574 0.081609
C30   C     C_R   0.337145 0.625760 0.390727 0.079632
C31   C     C_R   0.460279 0.449307 0.494832 -0.036782
C32   C     C_R   0.492948 0.530617 0.531582 -0.022884
C33   C     C_R   0.572865 0.514203 0.628364 0.420412
C34   C     C_R   0.129058 0.001487 0.500725 -0.170550
C35   C     C_R   0.353325 0.454113 0.414799 0.415475
C36   C     C_R   0.636841 0.429146 0.676534 -0.280991
C37   C     C_R   0.295269 0.542198 0.363976 -0.277431
C38   C     C_R   0.312955 0.956473 0.838649 -0.134175
C39   C     C_R   0.692446 0.039087 0.160265 -0.131719
C40   C     C_R   0.229878 0.942157 0.754746 0.399596
C41   C     C_R   0.773590 0.054719 0.244266 0.393743
C42   C     C_R   0.190243 0.027705 0.667930 -0.105412
C43   C     C_R   0.809805 0.969921 0.333454 -0.098010
C44   C     C_R   0.238881 0.126313 0.667369 0.451933
C45   C     C_R   0.907590 0.984437 0.419225 -0.209547
C46   C     C_R   0.759150 0.870746 0.336484 0.443107
C47   C     C_R   0.323075 0.137266 0.752355 -0.132769
C48   C     C_R   0.677051 0.858507 0.251235 -0.144987
C49   C     C_R   0.358986 0.053111 0.837675 -0.317814
C50   C     C_R   0.644860 0.941882 0.163481 -0.313398
C51   C     C_R   0.961434 0.011863 0.581301 0.393270
C52   C     C_R   0.038526 0.987179 0.419430 0.398372
C53   C     C_3   0.208492 0.574341 0.826820 -0.264872
C54   C     C_3   0.691552 0.454184 0.295242 -0.337835
C55   C     C_R   0.092377 0.014278 0.581677 -0.211577
C56   C     C_R   0.460094 0.185894 0.200892 -0.158346
C57   C     C_R   0.541582 0.814588 0.799043 -0.163747
C58   C     C_R   0.376508 0.222113 0.020829 -0.168799
Cu1   Cu    Cu3+1 0.466270 0.918260 0.475690 0.987070
Cu2   Cu    Cu3+1 0.533730 0.081740 0.524310 0.982925
H1    H     H_    0.423678 0.062802 0.903125 0.186585
H2    H     H_    0.716061 0.131881 0.690039 0.185783
H3    H     H_    0.754626 0.266628 0.756029 0.156781
H4    H     H_    0.198151 0.714953 0.273427 0.154883
H5    H     H_    0.342641 0.891805 0.905285 0.168303
H6    H     H_    0.665429 0.103154 0.091816 0.173244
H7    H     H_    0.360419 0.211948 0.752421 0.166394
H8    H     H_    0.638398 0.783408 0.252906 0.156884
H9    H     H_    0.304262 0.367252 0.846335 0.172302
H10   H     H_    0.704948 0.637019 0.150339 0.151209
H11   H     H_    0.472635 0.685111 0.761722 0.252799
H12   H     H_    0.581715 0.931174 0.097906 0.185307
H13   H     H_    0.520573 0.315294 0.239508 0.204164
H14   H     H_    0.241066 0.616632 0.878582 0.183997
H15   H     H_    0.146744 0.502520 0.864152 0.156086
H16   H     H_    0.148811 0.621453 0.757398 0.207916
H17   H     H_    0.597791 0.469397 0.301810 0.140469
H18   H     H_    0.769595 0.515195 0.302367 0.186116
H19   H     H_    0.714287 0.383788 0.361083 0.204397
H20   H     H_    0.634564 0.552280 0.747527 0.324503
H21   H     H_    0.224150 0.386078 0.336224 0.328690
H22   H     H_    0.134788 0.842385 0.697767 0.327182
H23   H     H_    0.325708 0.195632 0.960758 0.160516
H24   H     H_    0.866767 0.155860 0.299897 0.334344
H25   H     H_    0.152901 0.197685 0.528789 0.351862
H26   H     H_    0.838625 0.801203 0.477880 0.335884
H27   H     H_    0.988030 0.027473 0.713834 0.339511
H28   H     H_    0.011712 0.969124 0.288066 0.338771
H29   H     H_    0.572372 0.987812 0.819660 0.335932
H30   H     H_    0.435614 0.013266 0.181231 0.339117
H31   H     H_    0.685062 0.806344 0.036887 0.160802
H32   H     H_    0.699395 0.418499 0.749285 0.141780
H33   H     H_    0.214633 0.545102 0.302882 0.144612
H34   H     H_    0.564507 0.722798 0.544153 0.194577
H35   H     H_    0.464885 0.288771 0.434748 0.194103
H36   H     H_    0.267966 0.862218 0.321663 0.184865
N1    N     N_R   0.584450 0.204570 0.560790 -0.211704
N2    N     N_R   0.415550 0.795430 0.439210 -0.216415
O1    O     O_R   0.455540 0.022090 0.338120 -0.584076
O2    O     O_3   0.687807 0.440094 0.203602 -0.568274
O3    O     O_3   0.577836 0.575845 0.680401 -0.761020
O4    O     O_3   0.297524 0.369805 0.392946 -0.748323
O5    O     O_3   0.189095 0.843715 0.762230 -0.750135
O6    O     O_3   0.816163 0.153597 0.234589 -0.716504
O7    O     O_3   0.206390 0.213733 0.586767 -0.693628
O8    O     O_3   0.787570 0.783971 0.419867 -0.744223
O9    O     O_3   0.916788 0.019965 0.659866 -0.713236
O10   O     O_3   0.083133 0.978978 0.340893 -0.717938
O11   O     O_3   0.643547 0.949557 0.862425 -0.732040
O12   O     O_R   0.544460 0.977910 0.661880 -0.585516
O13   O     O_3   0.365918 0.051393 0.134952 -0.731346
O14   O     O_R   0.512510 0.160150 0.379180 -0.603252
O15   O     O_R   0.487490 0.839850 0.620820 -0.583658
O16   O     O_R   0.291160 0.930970 0.479480 -0.542367
O17   O     O_R   0.708840 0.069030 0.520520 -0.538058
O18   O     O_R   0.348130 0.069020 0.520540 -0.585653
O19   O     O_R   0.651870 0.930980 0.479460 -0.605200
O20   O     O_3   0.313199 0.556460 0.796537 -0.581542

loop_
_geom_bond_atom_site_label_1
_geom_bond_atom_site_label_2
_ccdc_geom_bond_type
C26   H34   S    
C4    O11   S    
C8    C13   A    
C23   C45   A    
C27   C29   A    
Cu1   O1    S    
C14   C18   A    
C5    C56   A    
C53   H14   S    
C15   O2    S    
C35   O4    S    
C1    O1    A    
C12   O12   A    
C39   C41   A    
C38   C49   A    
C53   H15   S    
C44   O7    S    
C15   C19   A    
C29   C36   A    
C17   C23   S    
C33   O3    S    
C35   C37   A    
C1    C56   S    
C12   O15   A    
C24   H36   S    
C1    O14   A    
H28   O10   S    
H29   O11   S    
C33   C36   A    
C9    C58   A    
C50   H12   S    
C21   H4    S    
C16   C34   S    
C11   C15   A    
C3    O13   S    
C14   O20   S    
C4    C57   A    
H22   O5    S    
C44   C47   A    
C17   O19   A    
C20   C29   A    
C54   H17   S    
C36   H32   S    
C18   H9    S    
C40   C42   A    
Cu1   Cu2   S    
Cu1   O19   S    
C22   N1    A    
C13   C14   A    
C41   C43   A    
C6    C57   A    
C54   O2    S    
H26   O8    S    
C42   C44   A    
H30   O13   S    
H25   O7    S    
C16   O18   A    
C47   H7    S    
C7    C11   A    
H21   O4    S    
C6    H11   S    
C46   C48   A    
C49   H1    S    
C27   C31   A    
C28   C32   A    
C47   C49   A    
Cu2   N1    S    
C5    C7    A    
C53   O20   S    
C6    C8    A    
C45   C52   A    
C30   C37   A    
C2    C4    A    
Cu2   O14   S    
C42   C55   S    
C22   H2    S    
C3    C56   A    
C23   C51   A    
C31   C32   A    
C38   H5    S    
C10   C19   A    
Cu1   O15   S    
C37   H33   S    
C48   H8    S    
C43   C45   S    
C26   N2    A    
C12   C57   S    
C25   N1    A    
C20   C22   A    
C25   H35   S    
H24   O6    S    
C39   H6    S    
C24   N2    A    
Cu2   O18   S    
C53   H16   S    
C2    C10   A    
C17   O17   A    
C54   H19   S    
C7    C9    A    
C26   C28   A    
C8    C10   A    
C19   H10   S    
C16   O16   A    
C25   C27   A    
C21   C30   A    
C34   C52   A    
C41   O6    S    
H20   O3    S    
C32   C33   A    
C20   H3    S    
C28   C30   A    
C58   H23   S    
C40   O5    S    
C38   C40   A    
C11   C13   A    
Cu1   O16   S    
C46   O8    S    
C31   C35   A    
C48   C50   A    
C51   C55   A    
C5    H13   S    
C2    H31   S    
C43   C46   A    
Cu2   O12   S    
C3    C58   A    
C9    C18   A    
C34   C55   A    
C39   C50   A    
H27   O9    S    
C52   O10   S    
C51   O9    S    
C21   C24   A    
Cu1   N2    S    
Cu2   O17   S    
C54   H18   S    
