data_mof_unit_23165.cif
_audit_creation_date              2012-12-10T20:36:33-0500
_audit_creation_method            fapswitch 2.2
_symmetry_space_group_name_H-M    P1
_symmetry_Int_Tables_number       1
_space_group_crystal_system       triclinic
_cell_length_a                    10.504004
_cell_length_b                    10.675244
_cell_length_c                    9.873268
_cell_angle_alpha                 90.044247
_cell_angle_beta                  90.774454
_cell_angle_gamma                 90.077016
_cell_volume                      1107.01476072

loop_
_atom_site_label
_atom_site_type_symbol
_atom_type_description
_atom_site_fract_x
_atom_site_fract_y
_atom_site_fract_z
_atom_type_partial_charge
C1    C     C_R   0.503033 0.260096 0.500137 0.873139
C2    C     C_3   0.957492 0.603859 0.440123 0.036662
C3    C     C_3   0.037977 0.503364 0.370366 -0.242200
C4    C     C_3   0.122466 0.501049 0.497927 0.005032
C5    C     C_R   0.501132 0.064071 0.622623 0.123385
C6    C     C_R   0.519576 0.128570 0.502100 -0.087035
C7    C     C_R   0.558501 0.064740 0.385715 -0.232067
C8    C     C_R   0.558007 0.935174 0.385707 -0.129637
C9    C     C_R   0.518577 0.871575 0.502083 -0.086891
C10   C     C_R   0.500502 0.936231 0.622727 0.032665
C11   C     C_3   0.391570 0.930180 0.718953 -0.191354
C12   C     C_R   0.257362 0.500320 0.499155 0.870696
C13   C     C_3   0.393489 0.072550 0.719924 -0.569309
C14   C     C_R   0.429785 0.413770 0.070047 0.209925
C15   C     C_R   0.578294 0.577235 0.073169 -0.105250
C16   C     C_R   0.578481 0.577061 0.929218 -0.077638
C17   C     C_R   0.429835 0.413740 0.927552 0.210430
C18   C     C_3   0.288999 0.397649 0.919444 -0.494280
C19   C     C_3   0.288830 0.398397 0.073141 -0.501180
C20   C     C_R   0.502599 0.739942 0.500156 0.895875
C21   C     C_R   0.742590 0.500072 0.500978 0.897465
C22   C     C_3   0.043585 0.396698 0.561752 -0.162941
C23   C     C_3   0.956360 0.399020 0.434467 -0.184855
C24   C     C_3   0.877523 0.500806 0.502817 -0.006155
C25   C     C_3   0.962335 0.498637 0.630271 -0.151848
C26   C     C_3   0.044246 0.603194 0.566680 -0.170917
H1    H     H_    0.916167 0.315896 0.381354 0.146864
H2    H     H_    0.306559 0.114883 0.673573 0.195915
H3    H     H_    0.639710 0.641330 0.875875 0.134623
H4    H     H_    0.239716 0.479970 0.874061 0.239141
H5    H     H_    0.261312 0.305719 0.875009 0.190535
H6    H     H_    0.240712 0.481886 0.115659 0.221678
H7    H     H_    0.083955 0.311987 0.611330 0.131778
H8    H     H_    0.084611 0.686481 0.619394 0.149297
H9    H     H_    0.070665 0.506453 0.264195 0.143283
H10   H     H_    0.581975 0.114046 0.293466 0.164421
H11   H     H_    0.581411 0.885675 0.293499 0.166289
H12   H     H_    0.303544 0.889699 0.672364 0.170358
N1    N     N_R   0.499140 0.499140 0.142800 -0.105959
N2    N     N_R   0.499140 0.499180 0.857150 -0.097613
O1    O     O_R   0.500020 0.316790 0.614690 -0.617724
O2    O     O_R   0.500000 0.316760 0.385350 -0.627681
O3    O     O_R   0.313960 0.499990 0.614650 -0.619361
O4    O     O_R   0.313940 0.499950 0.385310 -0.622276
O5    O     O_R   0.500000 0.683240 0.614650 -0.609369
O6    O     O_R   0.499980 0.683210 0.385310 -0.619313
O7    O     O_R   0.686060 0.500050 0.614690 -0.630247
O8    O     O_R   0.686040 0.500010 0.385350 -0.631449
Zn1   Zn    Zn3+2 0.500010 0.500020 0.653130 0.964677
Zn2   Zn    Zn3+2 0.499990 0.499980 0.346870 0.951549
C27   C     C_2   0.428972 0.872915 0.852607 0.479632
H13   H     H_    0.516343 0.901337 0.904125 0.042318
O9    O     O_2   0.361053 0.793872 0.904178 -0.582645
H14   H     H_    0.424047 0.115474 0.817845 0.196594
H15   H     H_    0.639462 0.641578 0.128380 0.136946
H16   H     H_    0.260212 0.307219 0.117776 0.199589
H17   H     H_    0.927704 0.496419 0.735998 0.148035
C28   C     C_2   0.905958 0.718969 0.372712 0.355521
H18   H     H_    0.920744 0.733900 0.265434 0.058221
O10   O     O_2   0.846055 0.795531 0.437799 -0.585343

loop_
_geom_bond_atom_site_label_1
_geom_bond_atom_site_label_2
_ccdc_geom_bond_type
C19   H16   S    
C11   H12   S    
C4    C26   S    
C23   C24   S    
C2    C28   S    
C13   H2    S    
C6    C7    A    
C18   H4    S    
C3    H9    S    
C8    H11   S    
C4    C12   S    
C4    C22   S    
C9    C10   A    
O6    Zn2   S    
C9    C20   S    
C5    C13   S    
C20   O5    A    
O5    Zn1   S    
C21   O8    A    
O8    Zn2   S    
C17   C18   S    
C25   C26   S    
C7    C8    A    
O7    Zn1   S    
C11   C13   S    
C14   C17   A    
C15   N1    A    
C27   H13   S    
C25   H17   S    
O2    Zn2   S    
C19   H6    S    
C1    O1    A    
C22   C25   S    
C16   N2    A    
C2    C3    S    
C12   O3    A    
C23   H1    S    
C2    C24   S    
C5    C6    A    
C14   N1    A    
C20   O6    A    
C11   C27   S    
C10   C11   S    
C28   O10   D    
N2    Zn1   S    
C1    O2    A    
C5    C10   A    
N1    Zn2   S    
C18   C19   S    
C24   C25   S    
C16   H3    S    
C2    C26   S    
C13   H14   S    
C7    H10   S    
C21   C24   S    
O1    Zn1   S    
C22   H7    S    
C22   C23   S    
C12   O4    A    
O4    Zn2   S    
C18   H5    S    
C21   O7    A    
C28   H18   S    
C3    C23   S    
C14   C19   S    
C26   H8    S    
C15   C16   A    
O3    Zn1   S    
C3    C4    S    
C1    C6    S    
C8    C9    A    
C27   O9    D    
C17   N2    A    
C15   H15   S    
