data_mof_unit_36797.cif
_audit_creation_date              2012-12-10T17:15:48-0500
_audit_creation_method            fapswitch 2.2
_symmetry_space_group_name_H-M    P1
_symmetry_Int_Tables_number       1
_space_group_crystal_system       triclinic
_cell_length_a                    10.182494
_cell_length_b                    10.678852
_cell_length_c                    10.8774
_cell_angle_alpha                 90.411951
_cell_angle_beta                  95.840316
_cell_angle_gamma                 79.596519
_cell_volume                      1157.22122757

loop_
_atom_site_label
_atom_site_type_symbol
_atom_type_description
_atom_site_fract_x
_atom_site_fract_y
_atom_site_fract_z
_atom_type_partial_charge
C1    C     C_R   0.442756 0.510366 0.267398 0.940518
C2    C     C_2   0.489870 0.524582 0.933468 -0.125271
C3    C     C_2   0.069656 0.496057 0.485772 0.090747
C4    C     C_R   0.504895 0.258499 0.508363 0.878494
C5    C     C_2   0.923883 0.513678 0.507574 -0.178361
C6    C     C_R   0.556787 0.493124 0.732343 0.930647
C7    C     C_R   0.493335 0.740015 0.483530 0.898893
C8    C     C_R   0.750635 0.061817 0.468774 -0.205181
C9    C     C_R   0.844170 0.987212 0.401998 -0.165482
C10   C     C_R   0.809286 0.886570 0.330853 0.168487
C11   C     C_R   0.681355 0.853340 0.337343 -0.094168
C12   C     C_R   0.619256 0.036411 0.467951 0.116316
C13   C     C_R   0.593394 0.920472 0.419954 -0.045845
C14   C     C_3   0.267698 0.596731 0.086636 -0.803523
C15   C     C_2   0.113360 0.413374 0.383011 0.946486
C16   C     C_3   0.116312 0.638112 0.648874 -0.631175
C17   C     C_3   0.908528 0.818643 0.247685 -0.777026
C18   C     C_2   0.632246 0.763017 0.246009 0.941848
C19   C     C_2   0.238992 0.931132 0.514967 0.946379
C20   C     C_R   0.511426 0.122106 0.512050 -0.146421
C21   C     C_R   0.393170 0.081606 0.533565 -0.226736
C22   C     C_R   0.374448 0.960588 0.503989 -0.034203
C23   C     C_R   0.481357 0.875323 0.458858 -0.205555
C24   C     C_2   0.407445 0.530204 0.135673 0.046426
C25   C     C_2   0.507150 0.497410 0.063636 -0.086707
C26   C     C_2   0.589791 0.487042 0.864271 -0.365034
H1    H     H_    0.311578 0.146681 0.569009 0.236587
H2    H     H_    0.273155 0.686458 0.038035 0.246435
H3    H     H_    0.219604 0.533340 0.022152 0.236762
H4    H     H_    0.174652 0.234975 0.324274 0.335635
H5    H     H_    0.204282 0.676765 0.690844 0.243759
H6    H     H_    0.077579 0.587388 0.722328 0.186089
H7    H     H_    0.039533 0.719779 0.610976 0.200597
H8    H     H_    0.998791 0.863528 0.248624 0.255589
H9    H     H_    0.942162 0.718181 0.278864 0.278944
H10   H     H_    0.861745 0.821954 0.150735 0.233945
H11   H     H_    0.451179 0.876743 0.203912 0.305359
H12   H     H_    0.883222 0.582609 0.573703 0.181831
H13   H     H_    0.077725 0.952148 0.611928 0.330028
H14   H     H_    0.878625 0.381284 0.386608 0.189050
H15   H     H_    0.784812 0.136539 0.523662 0.183488
H16   H     H_    0.942404 0.012380 0.401665 0.188276
H17   H     H_    0.391646 0.570175 0.891791 0.190691
H18   H     H_    0.606097 0.448873 0.101746 0.176079
H19   H     H_    0.690328 0.445154 0.903988 0.164056
H20   H     H_    0.202421 0.623668 0.161642 0.287823
N1    N     N_2   0.157290 0.551390 0.551110 -0.084539
N2    N     N_2   0.842740 0.448550 0.448960 -0.183398
O1    O     O_R   0.568950 0.489660 0.307530 -0.601132
O2    O     O_R   0.150952 0.282211 0.402478 -0.830434
O3    O     O_2   0.706617 0.665270 0.221048 -0.574564
O4    O     O_R   0.502124 0.789226 0.185650 -0.802344
O5    O     O_2   0.186362 0.870834 0.434177 -0.643152
O6    O     O_R   0.169344 0.977281 0.615136 -0.816082
O7    O     O_R   0.348880 0.522640 0.340350 -0.591226
O8    O     O_R   0.610060 0.300270 0.483590 -0.635159
O9    O     O_R   0.389990 0.333260 0.516410 -0.596936
O10   O     O_R   0.651120 0.477360 0.659650 -0.613452
O11   O     O_R   0.431050 0.510340 0.692470 -0.619799
O12   O     O_R   0.610010 0.666740 0.483590 -0.615199
O13   O     O_R   0.389940 0.699730 0.516410 -0.588796
O14   O     O_2   0.103692 0.458356 0.278897 -0.647077
Zn1   Zn    Zn3+2 0.646940 0.477980 0.478090 0.972540
Zn2   Zn    Zn3+2 0.353060 0.522020 0.521910 1.005176

loop_
_geom_bond_atom_site_label_1
_geom_bond_atom_site_label_2
_ccdc_geom_bond_type
C4    O9    A    
C8    C9    A    
O13   Zn2   S    
C24   C25   D    
C11   C18   S    
O1    Zn1   S    
C17   H10   S    
C16   H7    S    
C16   H6    S    
C9    C10   A    
C6    O10   A    
C2    H17   S    
C8    C12   A    
O7    Zn2   S    
C19   O5    D    
C21   H1    S    
O8    Zn1   S    
C18   O4    S    
C14   H20   S    
C21   C22   A    
C20   C21   A    
C16   H5    S    
C12   C13   A    
C11   C13   A    
C12   C20   A    
C9    H16   S    
C6    C26   S    
C1    C24   S    
O12   Zn1   S    
C7    C23   S    
C19   O6    S    
C3    N1    D    
C15   O14   D    
C18   O3    D    
C1    O7    A    
C2    C25   S    
C25   H18   S    
H4    O2    S    
C5    N2    D    
H13   O6    S    
C17   H8    S    
C10   C17   S    
C4    C20   S    
O11   Zn2   S    
C7    O12   A    
O10   Zn1   S    
C19   C22   S    
C3    C15   S    
C8    H15   S    
C13   C23   A    
O9    Zn2   S    
C2    C26   D    
C10   C11   A    
C15   O2    S    
C14   C24   S    
N1    Zn2   S    
H14   N2    S    
H11   O4    S    
C16   N1    S    
C22   C23   A    
C7    O13   A    
N2    Zn1   S    
C17   H9    S    
C26   H19   S    
C14   H2    S    
C5    H12   S    
C1    O1    A    
C6    O11   A    
C4    O8    A    
C14   H3    S    
C3    C5    S    
