data_mof_unit_44065.cif
_audit_creation_date              2012-12-10T18:59:18-0500
_audit_creation_method            fapswitch 2.2
_symmetry_space_group_name_H-M    P1
_symmetry_Int_Tables_number       1
_space_group_crystal_system       triclinic
_cell_length_a                    10.864319
_cell_length_b                    10.874825
_cell_length_c                    9.56783
_cell_angle_alpha                 90.956933
_cell_angle_beta                  90.401411
_cell_angle_gamma                 91.194982
_cell_volume                      1129.98179073

loop_
_atom_site_label
_atom_site_type_symbol
_atom_type_description
_atom_site_fract_x
_atom_site_fract_y
_atom_site_fract_z
_atom_type_partial_charge
C1    C     C_R   0.495177 0.262405 0.498714 0.905131
C2    C     C_R   0.466657 0.933288 0.370099 0.561418
C3    C     C_R   0.477948 0.870658 0.497908 -0.331762
C4    C     C_R   0.261797 0.504676 0.500278 0.811732
C5    C     C_R   0.466740 0.938973 0.621676 -0.050271
C6    C     C_3   0.542011 0.938311 0.752144 0.399187
C7    C     C_3   0.541136 0.077255 0.752168 0.504874
C8    C     C_R   0.538076 0.601864 0.076149 0.153956
C9    C     C_R   0.448243 0.405357 0.072085 0.085069
C10   C     C_R   0.448326 0.405279 0.923394 0.032914
C11   C     C_R   0.536977 0.602683 0.929138 0.145093
C12   C     C_R   0.060679 0.505748 0.630193 -0.153632
C13   C     C_3   0.659382 0.668219 0.928496 0.390369
C14   C     C_3   0.660145 0.665939 0.086471 0.407521
C15   C     C_R   0.495312 0.737749 0.500231 0.854824
C16   C     C_R   0.736584 0.485833 0.500694 0.885853
C17   C     C_R   0.112523 0.546253 0.759200 -0.313030
C18   C     C_R   0.057540 0.513749 0.884387 0.528881
C19   C     C_R   0.951380 0.439782 0.882677 0.603901
C20   C     C_R   0.889798 0.415437 0.756085 0.591035
C21   C     C_R   0.937786 0.462297 0.630027 -0.142800
C22   C     C_R   0.126329 0.503745 0.502194 -0.163596
C23   C     C_R   0.061133 0.480726 0.376694 0.656825
C24   C     C_R   0.934047 0.469762 0.377126 -0.174330
C25   C     C_R   0.870184 0.466805 0.503279 -0.146242
C26   C     C_R   0.467099 0.065858 0.620588 -0.182310
C27   C     C_R   0.478090 0.129365 0.495772 -0.255625
C28   C     C_R   0.467368 0.061783 0.369087 0.547116
Cu1   Cu    Cu3+1 0.499990 0.499980 0.640670 1.061030
Cu2   Cu    Cu3+1 0.500010 0.500020 0.359330 1.103306
F1    F     F_    0.119529 0.469072 0.252850 -0.561092
F2    F     F_    0.475677 0.890217 0.862305 -0.642561
F3    F     F_    0.657312 0.127503 0.730247 -0.594830
F4    F     F_    0.750212 0.598945 0.869826 -0.612974
F5    F     F_    0.751045 0.591958 0.138010 -0.573763
F6    F     F_    0.109797 0.551894 0.006664 -0.542236
F7    F     F_    0.903874 0.397784 0.003994 -0.538444
F8    F     F_    0.787613 0.341736 0.757021 -0.537691
F9    F     F_    0.465283 0.118470 0.243811 -0.614133
F10   F     F_    0.461842 0.871988 0.245325 -0.601438
H1    H     H_    0.407581 0.328008 0.125590 0.193710
H2    H     H_    0.634597 0.899832 0.735038 0.096540
H3    H     H_    0.490744 0.119692 0.840689 0.131266
H4    H     H_    0.407509 0.327948 0.866404 0.122973
H5    H     H_    0.658280 0.762131 0.889145 0.076842
H6    H     H_    0.656782 0.758232 0.137637 0.109883
H7    H     H_    0.193974 0.604823 0.765308 0.239465
H8    H     H_    0.885904 0.461881 0.278143 0.287652
N1    N     N_R   0.500790 0.500930 0.147930 -0.179497
N2    N     N_R   0.500790 0.500890 0.852020 -0.163922
O1    O     O_R   0.500000 0.319640 0.618810 -0.562487
O2    O     O_R   0.500010 0.319680 0.381230 -0.556066
O3    O     O_R   0.319640 0.499980 0.618820 -0.619124
O4    O     O_R   0.319650 0.500020 0.381230 -0.515614
O5    O     O_R   0.499990 0.680320 0.618770 -0.584697
O6    O     O_R   0.500000 0.680360 0.381190 -0.537817
O7    O     O_R   0.680350 0.499980 0.618770 -0.487399
O8    O     O_R   0.680360 0.500020 0.381180 -0.548983

loop_
_geom_bond_atom_site_label_1
_geom_bond_atom_site_label_2
_ccdc_geom_bond_type
C12   C17   A    
C6    F2    S    
C23   C24   A    
C6    C7    S    
C7    H3    S    
C4    O3    A    
C20   F8    S    
C9    C10   A    
C9    H1    S    
C19   C20   A    
C1    O1    A    
C16   O7    A    
C15   O6    A    
Cu2   O4    S    
C2    C3    A    
C3    C5    A    
C3    C15   S    
C13   F4    S    
C14   H6    S    
C11   N2    A    
C16   O8    A    
C13   C14   S    
C24   C25   A    
C13   H5    S    
C7    F3    S    
C18   F6    S    
C26   C27   A    
Cu1   Cu2   S    
C7    C26   S    
Cu1   O3    S    
C8    C11   A    
Cu2   O8    S    
Cu2   N1    S    
Cu1   O7    S    
C17   C18   A    
Cu1   N2    S    
C12   C22   A    
C5    C6    S    
C1    O2    A    
C8    N1    A    
C2    C28   A    
Cu1   O1    S    
C10   H4    S    
C5    C26   A    
C24   H8    S    
C2    F10   S    
C11   C13   S    
C9    N1    A    
C20   C21   A    
C21   C25   A    
C18   C19   A    
C6    H2    S    
C16   C25   S    
C1    C27   S    
C4    C22   S    
C22   C23   A    
C8    C14   S    
C19   F7    S    
C28   F9    S    
C4    O4    A    
Cu1   O5    S    
Cu2   O6    S    
C12   C21   A    
C14   F5    S    
C17   H7    S    
C15   O5    A    
Cu2   O2    S    
C27   C28   A    
C23   F1    S    
C10   N2    A    
