data_mof_unit_15688.cif
_audit_creation_date              2012-12-10T20:34:51-0500
_audit_creation_method            fapswitch 2.2
_symmetry_space_group_name_H-M    P1
_symmetry_Int_Tables_number       1
_space_group_crystal_system       triclinic
_cell_length_a                    10.654676
_cell_length_b                    10.635348
_cell_length_c                    9.946679
_cell_angle_alpha                 90.60772
_cell_angle_beta                  88.009266
_cell_angle_gamma                 92.096148
_cell_volume                      1125.63653983

loop_
_atom_site_label
_atom_site_type_symbol
_atom_type_description
_atom_site_fract_x
_atom_site_fract_y
_atom_site_fract_z
_atom_type_partial_charge
Br1   Br    Br    0.125087 0.665343 0.751776 -0.402566
Br2   Br    Br    0.691746 0.857629 0.846981 -0.378628
C1    C     C_R   0.515185 0.261220 0.497438 0.892739
C2    C     C_R   0.584147 0.939827 0.604464 0.118290
C3    C     C_3   0.559464 0.938314 0.753371 0.057953
C4    C     C_R   0.258186 0.503730 0.501750 0.870104
C5    C     C_3   0.567411 0.082900 0.747364 -0.333418
C6    C     C_R   0.395301 0.461921 0.076079 0.205419
C7    C     C_R   0.599737 0.549070 0.065819 -0.004523
C8    C     C_R   0.599974 0.545390 0.923168 -0.075259
C9    C     C_R   0.394142 0.461282 0.933457 0.201508
C10   C     C_3   0.334933 0.330037 0.940121 -0.271955
C11   C     C_3   0.332899 0.337095 0.092138 -0.506601
C12   C     C_3   0.879087 0.509018 0.499880 0.001462
C13   C     C_R   0.506991 0.740375 0.500114 0.922017
C14   C     C_R   0.742204 0.504676 0.498967 0.849026
C15   C     C_3   0.066669 0.516724 0.649503 0.145213
C16   C     C_3   0.923994 0.509057 0.647851 -0.358394
C17   C     C_3   0.081655 0.624017 0.423382 -0.416377
C18   C     C_3   0.069614 0.386207 0.435567 -0.445053
C19   C     C_3   0.121918 0.508704 0.503486 0.042119
C20   C     C_2   0.565693 0.117009 0.227357 0.966056
C21   C     C_2   0.677402 0.152732 0.810352 1.026875
C22   C     C_2   0.708587 0.614912 0.124391 0.962480
C23   C     C_3   0.936733 0.626480 0.423199 -0.191903
C24   C     C_2   0.204730 0.314650 0.887954 0.965986
C25   C     C_2   0.890394 0.752650 0.473125 0.933862
C26   C     C_3   0.926214 0.388257 0.429662 -0.396778
C27   C     C_R   0.590250 0.068392 0.600295 0.018937
C28   C     C_R   0.554859 0.132334 0.487078 -0.196813
C29   C     C_R   0.553056 0.062929 0.363869 -0.068826
C30   C     C_R   0.537003 0.932896 0.370922 -0.172364
C31   C     C_R   0.537011 0.872441 0.495466 -0.158009
H1    H     H_    0.898420 0.384750 0.322720 0.225439
H2    H     H_    0.238943 0.343694 0.142732 0.221000
H3    H     H_    0.393456 0.269252 0.138894 0.232115
H4    H     H_    0.889762 0.420554 0.698393 0.169945
H5    H     H_    0.883468 0.586818 0.708484 0.258296
H6    H     H_    0.123759 0.712296 0.466259 0.203310
H7    H     H_    0.109551 0.376383 0.331539 0.207774
H8    H     H_    0.096520 0.302428 0.492740 0.202513
H9    H     H_    0.883456 0.302962 0.479677 0.197228
H10   H     H_    0.516425 0.101599 0.033459 0.355595
H11   H     H_    0.735283 0.295645 0.930571 0.356511
H12   H     H_    0.118702 0.617975 0.317489 0.196156
H13   H     H_    0.893136 0.663673 0.098694 0.369131
H14   H     H_    0.021609 0.356731 0.910740 0.350399
H15   H     H_    0.816399 0.917566 0.425452 0.356454
H16   H     H_    0.909618 0.616665 0.317162 0.170498
H17   H     H_    0.521810 0.879720 0.279028 0.239596
H18   H     H_    0.463555 0.900039 0.780833 0.159770
H19   H     H_    0.475068 0.122917 0.770198 0.148841
H20   H     H_    0.096824 0.433861 0.702884 0.159718
H21   H     H_    0.680626 0.581228 0.864653 0.198885
H22   H     H_    0.399507 0.259364 0.900373 0.173009
N1    N     N_R   0.499150 0.499140 0.142800 -0.137125
N2    N     N_R   0.499150 0.499180 0.857150 -0.117846
O1    O     O_R   0.500020 0.316790 0.614690 -0.611136
O2    O     O_R   0.499819 0.059070 0.122883 -0.812090
O3    O     O_2   0.785554 0.124849 0.781467 -0.549839
O4    O     O_R   0.654949 0.254407 0.896667 -0.824454
O5    O     O_2   0.693171 0.692122 0.214139 -0.565040
O6    O     O_R   0.828234 0.600011 0.064999 -0.803749
O7    O     O_2   0.183555 0.236567 0.799776 -0.619666
O8    O     O_R   0.106839 0.383773 0.945557 -0.782711
O9    O     O_2   0.902637 0.786000 0.589974 -0.541726
O10   O     O_R   0.839344 0.834325 0.382362 -0.754492
O11   O     O_R   0.500000 0.316760 0.385350 -0.606537
O12   O     O_R   0.314800 0.500000 0.614670 -0.598268
O13   O     O_R   0.314790 0.499960 0.385330 -0.631320
O14   O     O_R   0.500000 0.683240 0.614650 -0.601555
O15   O     O_R   0.499980 0.683210 0.385310 -0.588717
O16   O     O_R   0.685210 0.500040 0.614670 -0.633423
O17   O     O_R   0.685200 0.500000 0.385330 -0.599989
O18   O     O_2   0.638873 0.206007 0.204021 -0.593289
Zn1   Zn    Zn3+2 0.500010 0.500020 0.653130 1.006603
Zn2   Zn    Zn3+2 0.499990 0.499980 0.346870 1.011608

loop_
_geom_bond_atom_site_label_1
_geom_bond_atom_site_label_2
_ccdc_geom_bond_type
C4    O12   A    
C6    C11   S    
C5    C27   S    
C12   C16   S    
C1    O11   A    
C6    N1    A    
C18   H8    S    
O1    Zn1   S    
C13   O15   A    
O15   Zn2   S    
C14   O17   A    
N2    Zn1   S    
C17   C19   S    
C16   H4    S    
C5    H19   S    
C11   H2    S    
C28   C29   A    
C18   H7    S    
O12   Zn1   S    
C24   O7    D    
O17   Zn2   S    
C7    C8    A    
C2    C27   A    
H10   O2    S    
C26   H1    S    
H15   O10   S    
O13   Zn2   S    
C20   O18   D    
C17   C23   S    
C21   O3    D    
C20   C29   S    
C14   O16   A    
C8    N2    A    
C11   H3    S    
C20   O2    S    
C3    C5    S    
C18   C26   S    
C4    C19   S    
C15   C19   S    
N1    Zn2   S    
C10   C24   S    
C1    C28   S    
C27   C28   A    
C29   C30   A    
C15   C16   S    
C7    N1    A    
C10   C11   S    
C30   H17   S    
C17   H6    S    
C22   O6    S    
O16   Zn1   S    
C12   C14   S    
Br2   C3    S    
C15   H20   S    
O11   Zn2   S    
C4    O13   A    
C2    C31   A    
C22   O5    D    
C24   O8    S    
C2    C3    S    
C9    C10   S    
C17   H12   S    
C7    C22   S    
H11   O4    S    
C23   C25   S    
C13   O14   A    
Br1   C15   S    
H13   O6    S    
C30   C31   A    
C16   H5    S    
C25   O9    D    
O14   Zn1   S    
C6    C9    A    
C5    C21   S    
C26   H9    S    
H14   O8    S    
C12   C23   S    
C8    H21   S    
C23   H16   S    
C10   H22   S    
C25   O10   S    
C1    O1    A    
C21   O4    S    
C18   C19   S    
C3    H18   S    
C12   C26   S    
C9    N2    A    
C13   C31   S    
