data_mof_unit_32624.cif
_audit_creation_date              2012-12-10T19:31:20-0500
_audit_creation_method            fapswitch 2.2
_symmetry_space_group_name_H-M    P1
_symmetry_Int_Tables_number       1
_space_group_crystal_system       triclinic
_cell_length_a                    19.172159
_cell_length_b                    15.73581
_cell_length_c                    14.957147
_cell_angle_alpha                 89.251008
_cell_angle_beta                  89.820322
_cell_angle_gamma                 90.207161
_cell_volume                      4511.97556393

loop_
_atom_site_label
_atom_site_type_symbol
_atom_type_description
_atom_site_fract_x
_atom_site_fract_y
_atom_site_fract_z
_atom_type_partial_charge
C1    C     C_R   0.498796 0.337600 0.500651 0.903168
C2    C     C_R   0.500432 0.662557 0.499510 0.897306
C3    C     C_3   0.561124 0.974948 0.511449 -0.221658
C4    C     C_3   0.427224 0.026127 0.496492 -0.218628
C5    C     C_3   0.532292 0.032769 0.435603 -0.208897
C6    C     C_3   0.456082 0.967971 0.572367 -0.210904
C7    C     C_1   0.494715 0.248980 0.502741 -0.185039
C8    C     C_1   0.499881 0.751530 0.498737 -0.207874
C9    C     C_3   0.520357 0.026634 0.581028 0.163150
C10   C     C_3   0.468008 0.974487 0.426869 0.168783
C11   C     C_3   0.491840 0.083172 0.505918 0.147556
C12   C     C_3   0.496545 0.917635 0.501775 0.151432
C13   C     C_1   0.492057 0.173870 0.504969 -0.090055
C14   C     C_1   0.498735 0.826798 0.499581 -0.082807
C15   C     C_3   0.548731 0.448113 0.971247 0.431720
C16   C     C_3   0.449963 0.551322 0.028868 0.508412
C17   C     C_3   0.562603 0.527077 0.030105 -0.526913
C18   C     C_3   0.435737 0.472650 0.970081 -0.411720
C19   C     C_3   0.486555 0.421577 0.030738 0.431963
C20   C     C_3   0.511617 0.577551 0.968377 0.436879
C21   C     C_3   0.499357 0.499638 0.090153 -0.145200
C22   C     C_3   0.498740 0.499216 0.909826 -0.143346
C23   C     C_R   0.365696 0.500771 0.500191 0.849226
C24   C     C_R   0.634376 0.498370 0.499893 0.850134
C25   C     C_1   0.499704 0.499475 0.190000 0.136021
C26   C     C_1   0.499455 0.499529 0.810006 0.154583
C27   C     C_R   0.255393 0.572913 0.534862 0.071189
C28   C     C_R   0.747216 0.426981 0.475081 0.068943
C29   C     C_R   0.183393 0.569147 0.545573 -0.194292
C30   C     C_R   0.819063 0.425946 0.487056 -0.193212
C31   C     C_R   0.146345 0.495885 0.522872 0.018827
C32   C     C_R   0.853821 0.496091 0.522438 0.018179
C33   C     C_R   0.181445 0.425515 0.488313 -0.166936
C34   C     C_R   0.816588 0.569126 0.545058 -0.172411
C35   C     C_R   0.253870 0.426912 0.476892 0.052461
C36   C     C_R   0.744275 0.572688 0.533368 0.062301
C37   C     C_R   0.290442 0.501095 0.501602 -0.085924
C38   C     C_R   0.709747 0.499843 0.500676 -0.083016
C39   C     C_R   0.929662 0.494378 0.530871 0.308598
C40   C     C_R   0.070416 0.494252 0.530863 0.308816
H1    H     H_    0.156349 0.624113 0.571196 0.154269
H2    H     H_    0.847849 0.369811 0.468077 0.156123
H3    H     H_    0.151709 0.370013 0.470149 0.147460
H4    H     H_    0.844428 0.622795 0.571940 0.147336
H5    H     H_    0.563058 0.060862 0.379502 0.139267
H6    H     H_    0.425521 0.939576 0.628493 0.140048
H7    H     H_    0.616080 0.954413 0.517775 0.143693
H8    H     H_    0.372454 0.047862 0.490443 0.137560
H9    H     H_    0.614266 0.548618 0.054432 0.165520
H10   H     H_    0.383655 0.451500 0.946795 0.172850
N1    N     N_R   0.034407 0.422157 0.513469 -0.187270
N2    N     N_R   0.965625 0.566047 0.550393 -0.185924
N3    N     N_R   0.965281 0.422226 0.513467 -0.185023
N4    N     N_R   0.034827 0.565973 0.550408 -0.183501
N5    N     N_1   0.500020 0.500000 0.268010 -0.103369
N6    N     N_1   0.499980 0.500000 0.731990 -0.101473
O1    O     O_R   0.500000 0.376780 0.574460 -0.611019
O2    O     O_R   0.500000 0.623220 0.425540 -0.611478
O3    O     O_R   0.500010 0.376780 0.425520 -0.607960
O4    O     O_R   0.499990 0.623220 0.574480 -0.611959
O5    O     O_R   0.398130 0.499990 0.574490 -0.611710
O6    O     O_R   0.601870 0.500010 0.425510 -0.620143
O7    O     O_R   0.398140 0.499990 0.425550 -0.621184
O8    O     O_R   0.601860 0.500010 0.574450 -0.613462
Zn1   Zn    Zn3+2 0.499990 0.500000 0.599450 0.966381
Zn2   Zn    Zn3+2 0.500010 0.500000 0.400550 0.958546
C41   C     C_3   0.292871 0.655038 0.557267 -0.430249
C42   C     C_3   0.303501 0.662745 0.658409 -0.300409
C43   C     C_3   0.344299 0.743158 0.680803 -0.868608
H11   H     H_    0.397056 0.741410 0.650083 0.270704
H12   H     H_    0.316280 0.800399 0.655955 0.252326
H13   H     H_    0.350217 0.747663 0.754415 0.258511
H14   H     H_    0.251983 0.664654 0.692625 0.215645
H15   H     H_    0.332578 0.606719 0.684390 0.246671
H16   H     H_    0.344035 0.659630 0.522509 0.194684
H17   H     H_    0.261737 0.709860 0.532225 0.195675
C44   C     C_3   0.712971 0.348816 0.436029 -0.439910
C45   C     C_3   0.697434 0.281907 0.508823 -0.335755
C46   C     C_3   0.674406 0.198098 0.467733 -0.887547
H18   H     H_    0.628853 0.208241 0.423281 0.267218
H19   H     H_    0.717687 0.170517 0.428148 0.259128
H20   H     H_    0.659682 0.152156 0.521501 0.250173
H21   H     H_    0.744826 0.270116 0.549751 0.228472
H22   H     H_    0.655480 0.305418 0.553519 0.225093
H23   H     H_    0.664207 0.364901 0.400055 0.219439
H24   H     H_    0.748350 0.321421 0.384884 0.205479
O9    O     O_3   0.519812 0.661362 0.935062 -0.642537
C47   C     C_3   0.588741 0.672808 0.903721 0.094584
H25   H     H_    0.604784 0.620414 0.858641 0.147712
H26   H     H_    0.625099 0.675567 0.961483 0.142602
C48   C     C_3   0.593910 0.756592 0.851355 -0.326157
H27   H     H_    0.558883 0.754333 0.792310 0.227524
H28   H     H_    0.577003 0.809676 0.894589 0.227223
C49   C     C_3   0.668588 0.773086 0.819768 -0.993216
H29   H     H_    0.704347 0.776658 0.877893 0.268002
H30   H     H_    0.671298 0.834338 0.782430 0.271473
H31   H     H_    0.686040 0.721520 0.774983 0.273193
O10   O     O_3   0.476046 0.339595 0.067806 -0.646564
C50   C     C_3   0.453810 0.283547 0.000735 0.091459
H32   H     H_    0.485898 0.290235 0.938704 0.165266
H33   H     H_    0.398153 0.296116 0.984497 0.146256
C51   C     C_3   0.460789 0.192284 0.035581 -0.323860
H34   H     H_    0.516599 0.178808 0.049744 0.222150
H35   H     H_    0.430765 0.184589 0.098905 0.231202
C52   C     C_3   0.433810 0.128625 0.967662 -0.991147
H36   H     H_    0.377097 0.138000 0.956398 0.269263
H37   H     H_    0.442243 0.062934 0.993315 0.270918
H38   H     H_    0.461968 0.136494 0.903061 0.263587
C53   C     C_3   0.293846 0.350923 0.440379 -0.396153
C54   C     C_3   0.250292 0.271929 0.417993 -0.354862
C55   C     C_3   0.296587 0.201450 0.381863 -0.895261
H39   H     H_    0.321842 0.222224 0.318254 0.268989
H40   H     H_    0.337601 0.184771 0.431195 0.261066
H41   H     H_    0.264521 0.144029 0.368967 0.248604
H42   H     H_    0.223391 0.247817 0.479253 0.224970
H43   H     H_    0.210850 0.288263 0.366289 0.227033
H44   H     H_    0.321537 0.371841 0.378455 0.226439
H45   H     H_    0.333700 0.331768 0.490559 0.192765
C56   C     C_3   0.702511 0.652723 0.553460 -0.404896
C57   C     C_3   0.745286 0.733717 0.569912 -0.352834
C58   C     C_3   0.698028 0.811455 0.572094 -0.908594
H46   H     H_    0.674642 0.822211 0.505081 0.262378
H47   H     H_    0.655461 0.802272 0.621818 0.270936
H48   H     H_    0.728924 0.868480 0.590181 0.250086
H49   H     H_    0.772943 0.728026 0.634910 0.222987
H50   H     H_    0.784146 0.743418 0.515363 0.230275
H51   H     H_    0.667896 0.665596 0.495293 0.199894
H52   H     H_    0.668832 0.640207 0.612841 0.216361
C59   C     C_3   0.438082 0.943304 0.338762 -0.440868
C60   C     C_3   0.416795 0.017941 0.278017 -0.340054
C61   C     C_3   0.385891 0.986857 0.190422 -0.895173
H53   H     H_    0.424942 0.949036 0.153187 0.260719
H54   H     H_    0.338850 0.947214 0.203737 0.263856
H55   H     H_    0.370453 0.042250 0.148345 0.258275
H56   H     H_    0.377331 0.057313 0.312603 0.230165
H57   H     H_    0.463029 0.058464 0.262693 0.223351
H58   H     H_    0.478137 0.904333 0.304685 0.208884
H59   H     H_    0.391808 0.902902 0.353962 0.209774
C62   C     C_3   0.549278 0.059784 0.669086 -0.423834
C63   C     C_3   0.576359 0.987045 0.728341 -0.346796
C64   C     C_3   0.605616 0.020541 0.815921 -0.883190
H60   H     H_    0.649830 0.064750 0.802460 0.262883
H61   H     H_    0.564491 0.054308 0.853715 0.264243
H62   H     H_    0.624682 0.966734 0.857746 0.254062
H63   H     H_    0.533343 0.941507 0.743614 0.225220
H64   H     H_    0.618293 0.952625 0.692540 0.222236
H65   H     H_    0.592339 0.105240 0.654154 0.202519
H66   H     H_    0.507164 0.094242 0.704549 0.204837
O11   O     O_3   0.598653 0.391934 0.936049 -0.648698
C65   C     C_3   0.642607 0.362200 0.005027 0.097531
H67   H     H_    0.612449 0.341396 0.065309 0.172873
H68   H     H_    0.679826 0.413285 0.023933 0.141592
C66   C     C_3   0.683670 0.286041 0.971149 -0.328553
H69   H     H_    0.646669 0.235441 0.950436 0.225275
H70   H     H_    0.715301 0.305708 0.911943 0.231044
C67   C     C_3   0.731931 0.250318 0.043226 -0.977854
H71   H     H_    0.770011 0.299511 0.064168 0.266946
H72   H     H_    0.761060 0.195318 0.016414 0.269323
H73   H     H_    0.701156 0.228509 0.102316 0.264611
O12   O     O_3   0.394727 0.604424 0.055514 -0.632715
C68   C     C_3   0.418611 0.669754 0.111870 0.119196
H74   H     H_    0.409406 0.731678 0.077422 0.171450
H75   H     H_    0.475404 0.667048 0.127835 0.127434
C69   C     C_3   0.376375 0.666804 0.198816 -0.338743
H76   H     H_    0.320210 0.676093 0.183421 0.230329
H77   H     H_    0.382298 0.603641 0.231833 0.237565
C70   C     C_3   0.400070 0.735442 0.262964 -0.970799
H78   H     H_    0.456022 0.727252 0.279932 0.279316
H79   H     H_    0.368849 0.731381 0.325559 0.266617
H80   H     H_    0.392365 0.798929 0.231607 0.264907

loop_
_geom_bond_atom_site_label_1
_geom_bond_atom_site_label_2
_ccdc_geom_bond_type
C7    C13   T    
O9    C47   S    
C16   C21   S    
C16   O12   S    
C9    C62   S    
C55   H39   S    
C15   O11   S    
C61   H55   S    
N5    Zn2   S    
C6    C9    S    
C68   H74   S    
C53   H44   S    
C69   H77   S    
C70   H79   S    
C44   C45   S    
C15   C19   S    
C52   H37   S    
C62   H65   S    
C67   H71   S    
C35   C37   A    
C5    C11   S    
C64   H61   S    
O3    Zn2   S    
C6    C12   S    
C2    O4    A    
C27   C29   A    
C42   H15   S    
N6    Zn1   S    
C20   O9    S    
C62   C63   S    
C17   C20   S    
C31   C40   S    
C51   C52   S    
C18   C19   S    
C32   C39   S    
C43   H12   S    
C36   C56   S    
C54   C55   S    
C58   H48   S    
C3    C12   S    
C64   H60   S    
C45   H21   S    
O2    Zn2   S    
C15   C22   S    
C59   H59   S    
C60   H56   S    
C42   C43   S    
C65   C66   S    
C24   C38   S    
C31   C33   A    
C66   H70   S    
C34   C36   A    
C35   C53   S    
C56   H52   S    
C23   O7    A    
C39   N2    A    
O7    Zn2   S    
C44   H23   S    
C24   O8    A    
C1    C7    S    
C24   O6    A    
C43   H11   S    
C68   H75   S    
C19   O10   S    
N2    N4    A    
C53   H45   S    
C70   H80   S    
C69   C70   S    
C52   H38   S    
C2    C8    S    
C62   H66   S    
O6    Zn2   S    
C41   C42   S    
C33   H3    S    
C34   H4    S    
C63   C64   S    
C4    C6    S    
C64   H62   S    
C17   H9    S    
C48   H27   S    
C46   H19   S    
C45   C46   S    
C49   H31   S    
C3    C5    S    
C42   H14   S    
C23   C37   S    
C5    H5    S    
C45   H22   S    
C17   C21   S    
N1    N3    A    
C32   C34   A    
C43   H13   S    
C49   H30   S    
C19   C21   S    
C3    C9    S    
C1    O1    A    
C48   H28   S    
C50   H32   S    
C67   H72   S    
C47   C48   S    
C28   C38   A    
C16   C20   S    
O1    Zn1   S    
C49   H29   S    
C55   H40   S    
C4    C11   S    
C51   H35   S    
C28   C44   S    
C9    C11   S    
C58   H46   S    
C10   C12   S    
C50   H33   S    
C47   H26   S    
C44   H24   S    
C40   N4    A    
C65   H68   S    
C41   H16   S    
C20   C22   S    
C63   H64   S    
C61   H53   S    
C54   H43   S    
C70   H78   S    
C68   C69   S    
C57   C58   S    
C18   H10   S    
C59   C60   S    
C4    H8    S    
C15   C17   S    
C21   C25   S    
C69   H76   S    
C8    C14   T    
C6    H6    S    
C29   H1    S    
C18   C22   S    
C67   H73   S    
C60   H57   S    
C25   N5    T    
C12   C14   S    
C61   H54   S    
C26   N6    T    
C63   H63   S    
O4    Zn1   S    
C46   H20   S    
C56   C57   S    
C2    O2    A    
C40   N1    A    
C52   H36   S    
O12   C68   S    
C1    O3    A    
C60   C61   S    
C10   C59   S    
C5    C10   S    
C29   C31   A    
O11   C65   S    
O8    Zn1   S    
C36   C38   A    
C30   C32   A    
C11   C13   S    
C66   C67   S    
C39   N3    A    
C27   C37   A    
C3    H7    S    
C33   C35   A    
C28   C30   A    
C55   H41   S    
C57   H50   S    
C57   H49   S    
C51   H34   S    
C58   H47   S    
C27   C41   S    
C46   H18   S    
O5    Zn1   S    
C23   O5    A    
C50   C51   S    
C59   H58   S    
C47   H25   S    
C16   C18   S    
O10   C50   S    
C22   C26   S    
C65   H67   S    
C30   H2    S    
C41   H17   S    
C66   H69   S    
C53   C54   S    
C4    C10   S    
C54   H42   S    
C48   C49   S    
C56   H51   S    
