data_mof_unit_23161.cif
_audit_creation_date              2012-12-11T14:48:09-0500
_audit_creation_method            fapswitch 2.2
_symmetry_space_group_name_H-M    P1
_symmetry_Int_Tables_number       1
_space_group_crystal_system       triclinic
_cell_length_a                    11.538699
_cell_length_b                    11.542071
_cell_length_c                    19.621231
_cell_angle_alpha                 90.53553
_cell_angle_beta                  90.066625
_cell_angle_gamma                 59.92815
_cell_volume                      2261.30954109

loop_
_atom_site_label
_atom_site_type_symbol
_atom_type_description
_atom_site_fract_x
_atom_site_fract_y
_atom_site_fract_z
_atom_type_partial_charge
C1    C     C_R   0.640243 0.117147 0.599438 0.540531
C2    C     C_1   0.652725 0.149431 0.668800 0.010332
C3    C     C_R   0.605682 0.608724 0.309054 0.171915
C4    C     C_R   0.612245 0.746519 0.598814 0.542011
C5    C     C_R   0.585617 0.615160 0.239676 -0.054687
C6    C     C_R   0.657592 0.656459 0.196587 -0.039342
C7    C     C_R   0.728388 0.713442 0.224288 0.225504
C8    C     C_R   0.739830 0.716782 0.294636 0.199796
C9    C     C_R   0.668511 0.673658 0.337096 -0.005358
C10   C     C_R   0.103884 0.293258 0.312223 -0.070389
C11   C     C_R   0.095314 0.317075 0.242620 -0.098939
C12   C     C_1   0.640946 0.704595 0.668156 0.011404
C13   C     C_R   0.133747 0.209393 0.195609 -0.032108
C14   C     C_R   0.199187 0.077481 0.218835 0.230119
C15   C     C_R   0.216643 0.053043 0.288740 0.219094
C16   C     C_R   0.241453 0.145154 0.598364 0.535312
C17   C     C_R   0.176688 0.161390 0.335385 -0.034188
C18   C     C_R   0.782967 0.091199 0.307368 -0.140234
C19   C     C_R   0.799440 0.096196 0.238637 -0.036482
C20   C     C_R   0.687814 0.183032 0.197049 -0.031455
C21   C     C_R   0.559255 0.250612 0.225122 -0.024372
C22   C     C_R   0.543255 0.244870 0.295248 0.238936
C23   C     C_1   0.126107 0.199207 0.859106 0.010066
C24   C     C_R   0.656657 0.158985 0.335895 0.035983
C25   C     C_R   0.081246 0.231567 0.928390 0.551913
C26   C     C_R   0.684053 0.604082 0.929274 0.555205
C27   C     C_R   0.708550 0.207056 0.929926 0.550593
C28   C     C_R   0.642836 0.114058 0.402620 0.577823
C29   C     C_R   0.082196 0.238042 0.125820 0.576022
C30   C     C_R   0.681211 0.611121 0.126107 0.591314
C31   C     C_R   0.711065 0.210758 0.127552 0.541351
C32   C     C_R   0.620667 0.735997 0.403440 0.612557
C33   C     C_R   0.242169 0.139834 0.401878 0.566640
C34   C     C_1   0.171760 0.170431 0.727749 -0.026030
C35   C     C_1   0.670550 0.645939 0.859924 0.010872
C36   C     C_1   0.654523 0.684073 0.728464 -0.026369
C37   C     C_1   0.663435 0.666431 0.799614 -0.026488
C38   C     C_1   0.930095 0.996977 0.213187 0.340757
C39   C     C_1   0.443259 0.311649 0.180948 0.294636
C40   C     C_1   0.474673 0.600337 0.215949 0.411046
C41   C     C_1   0.041299 0.404409 0.360491 0.280100
C42   C     C_1   0.066799 0.448483 0.221141 0.314074
C43   C     C_1   0.149844 0.182651 0.798869 -0.026190
C44   C     C_1   0.195824 0.160867 0.667541 0.010084
C45   C     C_1   0.678910 0.191604 0.860588 0.009785
C46   C     C_1   0.658503 0.167062 0.729074 -0.026023
C47   C     C_1   0.665929 0.181018 0.800270 -0.025947
Cl1   Cl    Cl    0.543768 0.526854 0.361409 -0.506305
Cl2   Cl    Cl    0.379893 0.348324 0.328750 -0.476895
Cl3   Cl    Cl    0.784933 0.798324 0.170912 -0.501083
Cl4   Cl    Cl    0.848480 0.771082 0.326249 -0.479410
Cl5   Cl    Cl    0.276927 0.942588 0.159774 -0.504425
Cl6   Cl    Cl    0.284964 0.885844 0.315503 -0.467674
Cr1   Cr    Cr6+3 0.404720 0.198220 0.499960 1.129503
Cr2   Cr    Cr6+3 0.698290 0.897110 0.500380 1.112302
Cr3   Cr    Cr6+3 0.396970 0.904720 0.499610 1.127115
Cr4   Cr    Cr6+3 0.926180 0.152240 0.028110 1.107055
Cr5   Cr    Cr6+3 0.921340 0.452070 0.027460 1.102217
Cr6   Cr    Cr6+3 0.626260 0.447120 0.028700 1.082349
H1    H     H_    0.868782 0.024751 0.338223 0.186779
N1    N     N_1   0.033605 0.915169 0.193148 -0.106113
N2    N     N_1   0.351226 0.359115 0.145280 -0.226957
N3    N     N_1   0.383816 0.592258 0.197342 -0.138599
N4    N     N_1   0.992183 0.491522 0.399650 -0.204367
N5    N     N_1   0.048365 0.551980 0.204164 -0.106098
O1    O     O_R   0.267740 0.231990 0.575440 -0.500777
O2    O     O_R   0.596140 0.579600 0.952720 -0.493441
O3    O     O_R   0.639070 0.321380 0.958660 -0.492431
O4    O     O_R   0.527280 0.186680 0.570530 -0.493206
O5    O     O_R   0.821240 0.124490 0.104360 -0.492188
O6    O     O_R   0.036900 0.167320 0.097830 -0.461066
O7    O     O_R   0.056190 0.349890 0.102870 -0.501639
O8    O     O_R   0.797670 0.565150 0.097930 -0.459929
O9    O     O_R   0.595880 0.584540 0.104260 -0.507993
O10   O     O_R   0.638830 0.325960 0.099140 -0.504158
O11   O     O_3   0.824590 0.350480 0.028090 -0.298994
O12   O     O_R   0.685970 0.784630 0.430010 -0.459449
O13   O     O_R   0.728090 0.003480 0.576380 -0.504246
O14   O     O_R   0.682970 0.789220 0.570490 -0.498051
O15   O     O_R   0.499290 0.771920 0.575530 -0.497374
O16   O     O_R   0.285330 0.030900 0.569730 -0.501805
O17   O     O_R   0.270980 0.227040 0.423900 -0.456145
O18   O     O_R   0.530280 0.182090 0.430050 -0.440442
O19   O     O_R   0.731330 0.998530 0.424830 -0.471771
O20   O     O_R   0.502530 0.766960 0.423990 -0.409319
O21   O     O_R   0.288330 0.026310 0.429250 -0.455726
O22   O     O_3   0.499990 0.000020 0.499980 -0.301238
O23   O     O_R   0.821500 0.119550 0.952820 -0.493997
O24   O     O_R   0.037130 0.162750 0.957360 -0.487376
O25   O     O_R   0.056440 0.344950 0.951330 -0.498541
O26   O     O_R   0.797900 0.560570 0.957460 -0.489268

loop_
_geom_bond_atom_site_label_1
_geom_bond_atom_site_label_2
_ccdc_geom_bond_type
C28   O19   A    
C19   C20   A    
Cr5   O11   S    
C7    C8    A    
C2    C46   T    
C25   O25   A    
C40   N3    T    
Cr4   O24   S    
C18   C24   A    
C26   O2    A    
C15   Cl6   S    
Cr4   O11   S    
C13   C29   S    
C36   C37   S    
C35   C37   T    
C4    O15   A    
Cr1   O22   S    
C30   O9    A    
C10   C17   A    
Cr6   O9    S    
C3    Cl1   S    
C23   C43   T    
C11   C42   S    
C18   C19   A    
C27   O3    A    
C9    C32   S    
Cr6   O2    S    
C32   O12   A    
Cr3   O21   S    
C31   O5    A    
C14   Cl5   S    
C8    C9    A    
C42   N5    T    
Cr4   O5    S    
C12   C36   T    
C33   O17   A    
C16   C44   S    
C38   N1    T    
C27   C45   S    
C21   C22   A    
C10   C41   S    
C1    O13   A    
C17   C33   S    
Cr1   O18   S    
C45   C47   T    
Cr3   O16   S    
C34   C44   T    
C4    O14   A    
C30   O8    A    
Cr3   O22   S    
C26   O26   A    
C1    O4    A    
C33   O21   A    
C3    C9    A    
C19   C38   S    
Cr6   O3    S    
Cr2   O14   S    
C31   O10   A    
C21   C39   S    
Cr4   O6    S    
Cr5   O25   S    
C8    Cl4   S    
C22   Cl2   S    
C18   H1    S    
C6    C30   S    
C22   C24   A    
C4    C12   S    
Cr6   O10   S    
Cr1   O17   S    
Cr5   O26   S    
C15   C17   A    
C39   N2    T    
C46   C47   S    
C34   C43   S    
C24   C28   S    
C7    Cl3   S    
C3    C5    A    
C6    C7    A    
Cr1   O1    S    
C25   O24   A    
Cr3   O15   S    
Cr4   O23   S    
C29   O7    A    
C11   C13   A    
Cr5   O7    S    
Cr3   O20   S    
C5    C6    A    
Cr1   O4    S    
Cr2   O12   S    
C32   O20   A    
C1    C2    S    
C16   O16   A    
C23   C25   S    
Cr2   O22   S    
C27   O23   A    
C10   C11   A    
Cr2   O13   S    
C26   C35   S    
C16   O1    A    
C20   C21   A    
C5    C40   S    
C14   C15   A    
C41   N4    T    
C29   O6    A    
Cr2   O19   S    
C13   C14   A    
Cr6   O11   S    
Cr5   O8    S    
C28   O18   A    
C20   C31   S    
