data_mof_unit_28643.cif
_audit_creation_date              2012-12-11T14:28:22-0500
_audit_creation_method            fapswitch 2.2
_symmetry_space_group_name_H-M    P1
_symmetry_Int_Tables_number       1
_space_group_crystal_system       triclinic
_cell_length_a                    11.288803
_cell_length_b                    19.101557
_cell_length_c                    18.492308
_cell_angle_alpha                 90.00918
_cell_angle_beta                  90.556719
_cell_angle_gamma                 90.138936
_cell_volume                      3987.36502808

loop_
_atom_site_label
_atom_site_type_symbol
_atom_type_description
_atom_site_fract_x
_atom_site_fract_y
_atom_site_fract_z
_atom_type_partial_charge
C1    C     C_R   0.319824 0.969318 0.646932 0.524905
C2    C     C_3   0.134486 0.686700 0.026838 -0.091315
C3    C     C_3   0.086564 0.194000 0.971061 -0.113242
C4    C     C_3   0.620211 0.314255 0.464169 -0.126050
C5    C     C_3   0.636298 0.288325 0.043985 -0.111559
C6    C     C_3   0.557560 0.688118 0.530250 -0.122525
C7    C     C_3   0.598889 0.692436 0.970628 -0.111503
C8    C     C_3   0.222177 0.784742 0.498053 -0.144308
C9    C     C_3   0.194602 0.755786 0.007033 -0.152704
C10   C     C_3   0.186793 0.192207 0.503373 -0.153283
C11   C     C_3   0.182118 0.229364 0.017436 -0.118599
C12   C     C_3   0.711415 0.271514 0.509486 -0.115428
C13   C     C_3   0.206183 0.261140 0.545687 -0.135641
C14   C     C_3   0.694205 0.232234 0.994666 -0.136039
C15   C     C_3   0.686644 0.689329 0.502146 -0.148438
C16   C     C_3   0.687108 0.731502 0.019830 -0.113254
C17   C     C_3   0.140845 0.763401 0.559866 0.054176
C18   C     C_3   0.124997 0.757298 0.935986 0.063617
C19   C     C_3   0.140091 0.235522 0.439086 0.055378
C20   C     C_3   0.088364 0.248471 0.072753 0.045700
C21   C     C_3   0.613717 0.256271 0.565156 0.053930
C22   C     C_3   0.614337 0.253522 0.932460 0.062338
C23   C     C_3   0.643662 0.735816 0.439459 0.055777
C24   C     C_3   0.159763 0.300569 0.979823 -0.106357
C25   C     C_3   0.586607 0.749056 0.071356 0.032853
C26   C     C_3   0.032345 0.797202 0.522908 -0.109099
C27   C     C_3   0.024427 0.798630 0.970114 -0.104935
C28   C     C_3   0.012243 0.230015 0.466110 -0.111277
C29   C     C_3   0.992609 0.211540 0.028359 -0.119991
C30   C     C_3   0.523618 0.299545 0.521401 -0.118380
C31   C     C_3   0.555535 0.309748 0.978999 -0.119473
C32   C     C_3   0.515923 0.733839 0.466572 -0.114674
C33   C     C_3   0.497785 0.709253 0.023252 -0.110707
C34   C     C_3   0.007381 0.725665 0.486423 -0.113592
C35   C     C_3   0.676724 0.203308 0.469705 -0.096682
C36   C     C_3   0.964360 0.728660 0.990607 -0.157933
C37   C     C_3   0.032219 0.298731 0.508485 -0.112096
C38   C     C_3   0.968905 0.282747 0.990065 -0.122769
C39   C     C_3   0.489441 0.231010 0.482295 -0.114272
C40   C     C_3   0.462614 0.254324 0.999916 -0.144346
C41   C     C_3   0.542656 0.800379 0.511019 -0.109449
C42   C     C_3   0.476329 0.779060 0.982487 -0.113056
C43   C     C_3   0.115462 0.692278 0.524778 -0.086117
C44   C     C_3   0.065203 0.688023 0.955028 -0.097587
C45   C     C_3   0.159767 0.303370 0.480894 -0.100913
C46   C     C_3   0.602717 0.177394 0.017072 -0.104721
C47   C     C_3   0.064899 0.318131 0.036447 -0.107607
C48   C     C_3   0.580470 0.188371 0.526326 -0.106455
C49   C     C_3   0.523424 0.198165 0.952245 -0.120998
C50   C     C_3   0.670308 0.801662 0.483321 -0.103194
C51   C     C_3   0.564521 0.817402 0.032016 -0.114752
C52   C     C_3   0.914861 0.961801 0.638499 -0.116943
C53   C     C_3   0.908828 0.987687 0.849735 -0.143010
C54   C     C_3   0.888370 0.050072 0.372242 -0.147860
C55   C     C_3   0.895164 0.037870 0.129571 -0.143622
C56   C     C_3   0.412609 0.463918 0.639838 -0.127658
C57   C     C_3   0.712506 0.756249 0.546852 -0.136501
C58   C     C_3   0.407455 0.491336 0.850509 -0.136762
C59   C     C_3   0.386769 0.552212 0.377163 -0.140053
C60   C     C_3   0.397451 0.541251 0.128988 -0.139168
C61   C     C_3   0.665424 0.800758 0.979400 -0.096396
C62   C     C_3   0.088130 0.747271 0.424012 0.054567
C63   C     C_3   0.034831 0.727985 0.062066 0.056449
C64   C     C_3   0.079212 0.255107 0.572231 0.052071
C65   C     C_R   0.320459 0.969715 0.852832 0.525147
C66   C     C_3   0.063421 0.263710 0.934481 0.052316
C67   C     C_3   0.585249 0.246214 0.425972 0.049625
C68   C     C_3   0.542507 0.233504 0.063982 0.068048
C69   C     C_3   0.584859 0.753416 0.573537 0.053522
C70   C     C_3   0.576277 0.760579 0.931258 0.050181
C71   C     C_R   0.314162 0.996167 0.424256 -0.023114
C72   C     C_R   0.320798 0.998750 0.074877 -0.022324
C73   C     C_R   0.325870 0.004409 0.575737 -0.029184
C74   C     C_R   0.327885 0.006351 0.923296 -0.029434
C75   C     C_R   0.814676 0.495818 0.424127 -0.026718
C76   C     C_R   0.317537 0.030872 0.353048 0.526018
C77   C     C_R   0.821197 0.497929 0.075262 -0.024350
C78   C     C_R   0.826075 0.504661 0.575781 -0.027355
C79   C     C_R   0.828172 0.505321 0.923713 -0.028935
C80   C     C_R   0.521060 0.967229 0.420803 -0.100873
C81   C     C_R   0.533920 0.982541 0.078470 -0.121505
C82   C     C_R   0.541808 0.002045 0.566600 -0.107965
C83   C     C_R   0.545416 0.005748 0.930437 -0.096609
C84   C     C_R   0.021249 0.468044 0.420880 -0.102459
C85   C     C_R   0.034590 0.482892 0.079020 -0.114150
C86   C     C_R   0.042066 0.504011 0.566547 -0.107219
C87   C     C_R   0.318343 0.031212 0.146786 0.526210
C88   C     C_R   0.046063 0.503538 0.930753 -0.101085
C89   C     C_R   0.630599 0.969955 0.453150 -0.108928
C90   C     C_R   0.639066 0.973577 0.042867 -0.118642
C91   C     C_R   0.641119 0.988428 0.525717 -0.104286
C92   C     C_R   0.645310 0.985783 0.969401 -0.083815
C93   C     C_R   0.130583 0.471902 0.452954 -0.111185
C94   C     C_R   0.140012 0.474177 0.043720 -0.113159
C95   C     C_R   0.141315 0.490612 0.525431 -0.108902
C96   C     C_R   0.146274 0.485006 0.970099 -0.081920
C97   C     C_R   0.429301 0.997701 0.534926 -0.001426
C98   C     C_R   0.819875 0.469364 0.646918 0.531495
C99   C     C_R   0.434117 0.004211 0.963661 0.001083
C100  C     C_R   0.420965 0.986308 0.459639 0.002178
C101  C     C_R   0.429534 0.996541 0.039388 0.005824
C102  C     C_R   0.929622 0.498601 0.534985 0.004389
C103  C     C_R   0.934591 0.502765 0.963999 0.002286
C104  C     C_R   0.921341 0.486844 0.459762 0.004220
C105  C     C_R   0.930018 0.495832 0.039784 0.009062
C106  C     C_R   0.217640 0.015037 0.539544 -0.050239
C107  C     C_R   0.220042 0.013941 0.960264 -0.044869
C108  C     C_R   0.208434 0.000592 0.465487 -0.040550
C109  C     C_R   0.820501 0.469529 0.852928 0.526237
C110  C     C_R   0.214611 0.997695 0.033582 -0.039332
C111  C     C_R   0.717991 0.514545 0.539227 -0.051165
C112  C     C_R   0.720324 0.512715 0.960739 -0.048497
C113  C     C_R   0.709154 0.499354 0.465345 -0.045625
C114  C     C_R   0.715058 0.496211 0.033967 -0.041742
C115  C     C_R   0.115807 0.033591 0.577293 -0.122790
C116  C     C_R   0.114929 0.030115 0.923113 -0.131283
C117  C     C_R   0.093450 0.995114 0.434581 -0.123625
C118  C     C_R   0.102168 0.985896 0.064264 -0.124897
C119  C     C_R   0.616031 0.533494 0.576732 -0.121947
C120  C     C_R   0.817587 0.530815 0.353036 0.525075
C121  C     C_R   0.615164 0.529606 0.923834 -0.130699
C122  C     C_R   0.594709 0.491989 0.434522 -0.119067
C123  C     C_R   0.602722 0.484152 0.064672 -0.121288
C124  C     C_R   0.004277 0.021688 0.547945 0.291970
C125  C     C_R   0.004608 0.021116 0.954315 0.304921
C126  C     C_R   0.992189 0.012444 0.473857 0.297590
C127  C     C_R   0.998328 0.005120 0.027456 0.304768
C128  C     C_R   0.504975 0.520230 0.547681 0.291413
C129  C     C_R   0.504946 0.521679 0.955326 0.303228
C130  C     C_R   0.493410 0.508461 0.473785 0.299471
C131  C     C_R   0.818399 0.531060 0.146896 0.525151
C132  C     C_R   0.499072 0.504594 0.028317 0.301154
C133  C     C_R   0.179002 0.770601 0.635776 0.566483
C134  C     C_R   0.174002 0.768992 0.864664 0.560140
C135  C     C_R   0.179017 0.229291 0.364355 0.559973
C136  C     C_R   0.129205 0.243189 0.146367 0.537930
C137  C     C_R   0.639839 0.259429 0.641660 0.547562
C138  C     C_R   0.664568 0.266044 0.863452 0.556806
C139  C     C_R   0.679974 0.729251 0.364243 0.563280
C140  C     C_R   0.627675 0.743643 0.146324 0.532100
C141  C     C_R   0.543211 0.769449 0.645682 0.539645
C142  C     C_3   0.195947 0.713628 0.461050 -0.106495
C143  C     C_R   0.544478 0.769675 0.854913 0.533690
C144  C     C_R   0.546791 0.231888 0.352719 0.543548
C145  C     C_R   0.505251 0.215532 0.136616 0.562858
C146  C     C_R   0.041202 0.270213 0.644916 0.544550
C147  C     C_R   0.038479 0.271877 0.857399 0.538312
C148  C     C_R   0.046530 0.731815 0.352429 0.546540
C149  C     C_R   0.000308 0.713090 0.136649 0.562809
C150  C     C_3   0.113581 0.818046 0.458564 -0.123153
C151  C     C_3   0.094710 0.797235 0.042687 -0.103762
C152  C     C_3   0.058213 0.187805 0.531376 -0.120248
Cr1   Cr    Cr6+3 0.488160 0.884660 0.750000 0.983222
Cr2   Cr    Cr6+3 0.333410 0.272740 0.250000 1.005451
Cr3   Cr    Cr6+3 0.833410 0.227260 0.750000 1.041728
Cr4   Cr    Cr6+3 0.833410 0.772740 0.250000 1.000540
Cr5   Cr    Cr6+3 0.488160 0.115340 0.250000 0.985335
Cr6   Cr    Cr6+3 0.988160 0.384660 0.750000 0.988803
Cr7   Cr    Cr6+3 0.988160 0.615340 0.250000 0.983383
Cr8   Cr    Cr6+3 0.173480 0.883120 0.750000 0.962574
Cr9   Cr    Cr6+3 0.173480 0.116880 0.250000 0.961674
Cr10  Cr    Cr6+3 0.673480 0.383120 0.750000 0.965362
Cr11  Cr    Cr6+3 0.673480 0.616880 0.250000 0.963552
Cr12  Cr    Cr6+3 0.333410 0.727260 0.750000 1.037526
H1    H     H_    0.307958 0.812191 0.502998 0.101504
H2    H     H_    0.115400 0.842341 0.078668 0.118408
H3    H     H_    0.010080 0.148230 0.562163 0.161568
H4    H     H_    0.101589 0.152206 0.932330 0.117428
H5    H     H_    0.642378 0.361862 0.432958 0.110161
H6    H     H_    0.683932 0.326650 0.079115 0.112815
H7    H     H_    0.505281 0.648178 0.558063 0.163100
H8    H     H_    0.626785 0.650632 0.935901 0.110150
H9    H     H_    0.962127 0.830316 0.546562 0.104770
H10   H     H_    0.977820 0.844770 0.947550 0.123799
H11   H     H_    0.933605 0.214610 0.433146 0.112479
H12   H     H_    0.282208 0.764160 0.030826 0.105435
H13   H     H_    0.932865 0.172078 0.052466 0.126725
H14   H     H_    0.460625 0.338528 0.543023 0.108799
H15   H     H_    0.527136 0.362879 0.961356 0.126261
H16   H     H_    0.437240 0.723082 0.432092 0.107828
H17   H     H_    0.427609 0.672650 0.040422 0.132166
H18   H     H_    0.921044 0.699063 0.477310 0.106238
H19   H     H_    0.882049 0.707904 0.966610 0.102989
H20   H     H_    0.972234 0.344282 0.512152 0.122850
H21   H     H_    0.889194 0.313204 0.974192 0.111394
H22   H     H_    0.401377 0.212036 0.465208 0.111756
H23   H     H_    0.249601 0.148117 0.500619 0.114556
H24   H     H_    0.373953 0.271324 0.982244 0.112963
H25   H     H_    0.489021 0.848207 0.517560 0.127352
H26   H     H_    0.400058 0.807578 0.958644 0.111588
H27   H     H_    0.115238 0.640046 0.552209 0.146838
H28   H     H_    0.048577 0.643365 0.917907 0.134031
H29   H     H_    0.204362 0.348699 0.456764 0.139752
H30   H     H_    0.046624 0.358327 0.076831 0.115807
H31   H     H_    0.565001 0.138217 0.555276 0.129598
H32   H     H_    0.479740 0.159659 0.915413 0.118536
H33   H     H_    0.717676 0.846943 0.460532 0.135209
H34   H     H_    0.259311 0.198860 0.038146 0.117159
H35   H     H_    0.536938 0.858550 0.068565 0.117347
H36   H     H_    0.258080 0.677612 0.433205 0.124357
H37   H     H_    0.180748 0.639678 0.047953 0.159553
H38   H     H_    0.283374 0.277401 0.579381 0.110326
H39   H     H_    0.223758 0.339224 0.958198 0.116659
H40   H     H_    0.739406 0.164302 0.447380 0.144196
H41   H     H_    0.632114 0.124351 0.034256 0.163740
H42   H     H_    0.792294 0.768431 0.580097 0.112169
H43   H     H_    0.734298 0.837666 0.960431 0.121450
H44   H     H_    0.706262 0.956494 0.421459 0.173107
H45   H     H_    0.801037 0.289583 0.525443 0.113189
H46   H     H_    0.710933 0.949559 0.072140 0.187369
H47   H     H_    0.725430 0.990997 0.550396 0.216325
H48   H     H_    0.725040 0.974901 0.941792 0.195495
H49   H     H_    0.205270 0.458057 0.420857 0.177902
H50   H     H_    0.211965 0.450875 0.073484 0.185824
H51   H     H_    0.225659 0.493487 0.549954 0.218198
H52   H     H_    0.226352 0.474040 0.942693 0.191895
H53   H     H_    0.514579 0.950682 0.364742 0.124722
H54   H     H_    0.531728 0.966437 0.134566 0.125149
H55   H     H_    0.553747 0.019051 0.622072 0.134974
H56   H     H_    0.785013 0.208598 0.984688 0.136090
H57   H     H_    0.555451 0.019126 0.874124 0.137914
H58   H     H_    0.014719 0.450861 0.365050 0.124024
H59   H     H_    0.032760 0.467402 0.135295 0.122955
H60   H     H_    0.053793 0.520818 0.622071 0.135252
H61   H     H_    0.056610 0.516388 0.874366 0.134669
H62   H     H_    0.080433 0.974787 0.380645 0.136573
H63   H     H_    0.094190 0.963183 0.117586 0.136096
H64   H     H_    0.121195 0.053609 0.632190 0.145729
H65   H     H_    0.117788 0.051195 0.868713 0.135639
H66   H     H_    0.582342 0.471282 0.380553 0.140136
H67   H     H_    0.746848 0.644419 0.496130 0.115996
H68   H     H_    0.594965 0.461129 0.117854 0.141202
H69   H     H_    0.621351 0.554226 0.631237 0.146474
H70   H     H_    0.618514 0.551317 0.869688 0.135510
H71   H     H_    0.939566 0.978992 0.694581 0.111956
H72   H     H_    0.981268 0.920772 0.621626 0.139835
H73   H     H_    0.825997 0.935352 0.640731 0.115080
H74   H     H_    0.973656 0.943510 0.852740 0.133104
H75   H     H_    0.930996 0.022867 0.804278 0.126097
H76   H     H_    0.821729 0.963396 0.837985 0.108386
H77   H     H_    0.907080 0.009277 0.330999 0.098447
H78   H     H_    0.763533 0.707348 0.048038 0.119346
H79   H     H_    0.955220 0.093126 0.369260 0.150598
H80   H     H_    0.801679 0.073455 0.357695 0.138236
H81   H     H_    0.957918 0.082808 0.132111 0.141570
H82   H     H_    0.919285 0.998472 0.171257 0.105071
H83   H     H_    0.806274 0.058518 0.142827 0.136551
H84   H     H_    0.419839 0.483349 0.695929 0.109538
H85   H     H_    0.486980 0.426482 0.631231 0.145848
H86   H     H_    0.329761 0.432930 0.635032 0.113758
H87   H     H_    0.463156 0.443076 0.855151 0.126033
H88   H     H_    0.440838 0.525146 0.806527 0.123467
H89   H     H_    0.118113 0.865121 0.423865 0.110133
H90   H     H_    0.317518 0.473415 0.834875 0.108272
H91   H     H_    0.416619 0.519436 0.331191 0.102799
H92   H     H_    0.443558 0.599803 0.382593 0.142110
H93   H     H_    0.296060 0.570190 0.363655 0.138473
H94   H     H_    0.457110 0.587669 0.127830 0.142678
H95   H     H_    0.425892 0.504633 0.172356 0.107872
H96   H     H_    0.307885 0.560493 0.142745 0.131293
O1    O     O_R   0.575450 0.828820 0.667950 -0.525133
O2    O     O_R   0.416860 0.942890 0.825320 -0.508214
O3    O     O_R   0.416860 0.057110 0.325320 -0.497714
O4    O     O_R   0.416860 0.057110 0.174680 -0.517330
O5    O     O_R   0.916860 0.442890 0.674680 -0.506958
O6    O     O_R   0.916860 0.442890 0.825320 -0.510762
O7    O     O_R   0.916860 0.557110 0.325320 -0.498227
O8    O     O_R   0.916860 0.557110 0.174680 -0.518886
O9    O     O_R   0.213790 0.953680 0.668330 -0.540610
O10   O     O_R   0.213790 0.953680 0.831670 -0.542555
O11   O     O_R   0.213790 0.046320 0.331670 -0.545770
O12   O     O_R   0.575450 0.828820 0.832050 -0.527447
O13   O     O_R   0.213790 0.046320 0.168330 -0.535012
O14   O     O_R   0.713790 0.453680 0.668330 -0.535828
O15   O     O_R   0.713790 0.453680 0.831670 -0.540494
O16   O     O_R   0.713790 0.546320 0.331670 -0.543442
O17   O     O_R   0.713790 0.546320 0.168330 -0.533969
O18   O     O_R   0.121360 0.817890 0.672660 -0.517858
O19   O     O_R   0.121360 0.817890 0.827340 -0.515223
O20   O     O_R   0.121360 0.182110 0.327340 -0.519300
O21   O     O_R   0.121360 0.182110 0.172660 -0.515389
O22   O     O_R   0.621360 0.317890 0.672660 -0.521584
O23   O     O_R   0.575450 0.171180 0.332050 -0.522016
O24   O     O_R   0.621360 0.317890 0.827340 -0.520091
O25   O     O_R   0.621360 0.682110 0.327340 -0.517705
O26   O     O_R   0.621360 0.682110 0.172660 -0.513730
O27   O     O_R   0.206850 0.711370 0.665820 -0.513383
O28   O     O_R   0.206850 0.711370 0.834180 -0.505898
O29   O     O_R   0.206850 0.288630 0.334180 -0.534245
O30   O     O_R   0.206850 0.288630 0.165820 -0.526828
O31   O     O_R   0.706850 0.211370 0.665820 -0.510381
O32   O     O_R   0.706850 0.211370 0.834180 -0.513044
O33   O     O_R   0.706850 0.788630 0.334180 -0.534400
O34   O     O_R   0.575450 0.171180 0.167950 -0.530844
O35   O     O_R   0.706850 0.788630 0.165820 -0.524846
O36   O     O_R   0.457710 0.733190 0.672630 -0.518690
O37   O     O_R   0.457710 0.733190 0.827370 -0.504036
O38   O     O_R   0.457710 0.266810 0.327370 -0.516712
O39   O     O_R   0.457710 0.266810 0.172630 -0.505244
O40   O     O_R   0.957710 0.233190 0.672630 -0.508785
O41   O     O_R   0.957710 0.233190 0.827370 -0.507688
O42   O     O_R   0.957710 0.766810 0.327370 -0.519448
O43   O     O_R   0.957710 0.766810 0.172630 -0.507556
O44   O     O_3   0.331690 0.831680 0.750000 -0.288409
O45   O     O_R   0.075450 0.328820 0.667950 -0.524990
O46   O     O_3   0.331690 0.168320 0.250000 -0.283841
O47   O     O_3   0.831690 0.331680 0.750000 -0.271145
O48   O     O_3   0.831690 0.668320 0.250000 -0.286203
O49   O     O_3   0.907516 0.020991 0.592679 -0.585266
O50   O     O_3   0.902100 0.028644 0.913801 -0.564607
O51   O     O_3   0.881431 0.020292 0.441740 -0.588243
O52   O     O_3   0.889169 0.006296 0.060365 -0.583110
O53   O     O_3   0.407969 0.521981 0.592002 -0.586496
O54   O     O_3   0.402213 0.531150 0.915259 -0.560130
O55   O     O_3   0.382919 0.512579 0.441735 -0.592342
O56   O     O_R   0.075450 0.328820 0.832050 -0.529178
O57   O     O_3   0.390533 0.506144 0.061704 -0.585101
O58   O     O_R   0.075450 0.671180 0.332050 -0.522804
O59   O     O_R   0.075450 0.671180 0.167950 -0.532337
O60   O     O_R   0.416860 0.942890 0.674680 -0.508906

loop_
_geom_bond_atom_site_label_1
_geom_bond_atom_site_label_2
_ccdc_geom_bond_type
C46   H41   S    
C6    C32   S    
Cr6   O6    S    
C65   O2    A    
C21   C137  S    
C110  C118  A    
C58   H87   S    
C129  O54   S    
C56   H84   S    
C64   C152  S    
C134  O19   A    
C72   C101  A    
C98   O5    A    
C9    H12   S    
C60   H94   S    
C54   O51   S    
C113  C122  A    
C134  O28   A    
C4    C12   S    
C117  C126  A    
Cr7   O48   S    
Cr5   O23   S    
C21   C48   S    
C119  C128  A    
C80   C89   A    
C120  O7    A    
C29   H13   S    
C7    H8    S    
C7    C33   S    
C14   H56   S    
C140  O35   A    
C53   H76   S    
Cr11  O16   S    
Cr2   O46   S    
C11   C20   S    
C94   H50   S    
C79   C109  S    
C59   H91   S    
C135  O20   A    
C25   C140  S    
Cr8   O18   S    
C4    H5    S    
C26   H9    S    
Cr3   O40   S    
C82   C91   A    
Cr5   O34   S    
C8    C150  S    
C55   O52   S    
C17   C43   S    
C18   C44   S    
C42   H26   S    
C90   C92   A    
C56   H85   S    
C124  O49   S    
C111  C113  A    
C94   C96   A    
C135  O29   A    
Cr7   O58   S    
Cr9   O13   S    
C22   C49   S    
C81   C90   A    
Cr5   O3    S    
Cr3   O47   S    
C137  O22   A    
C17   C133  S    
C118  H63   S    
C107  C110  A    
C36   C44   S    
C37   C45   S    
C152  H3    S    
C52   H72   S    
C41   C69   S    
C21   C30   S    
C16   C25   S    
C9    C151  S    
C97   C100  A    
C62   C150  S    
Cr12  O27   S    
C64   C146  S    
Cr9   O46   S    
C50   C57   S    
C141  O1    A    
Cr9   O20   S    
C145  O39   A    
C28   H11   S    
C146  O40   A    
C8    C17   S    
C96   H52   S    
C41   H25   S    
C106  C115  A    
C60   H96   S    
C44   H28   S    
C13   C45   S    
Cr1   O44   S    
C58   H90   S    
C84   C93   A    
C20   C47   S    
C3    C11   S    
C86   C95   A    
C83   H57   S    
C121  H70   S    
C125  C127  A    
C32   H16   S    
C43   C142  S    
C69   C141  S    
C16   H78   S    
C6    C69   S    
C147  O41   A    
C123  C132  A    
C112  C114  A    
C81   C101  A    
C13   H38   S    
C70   C143  S    
Cr4   O33   S    
C33   C42   S    
C12   H45   S    
Cr12  O44   S    
C1    O9    A    
C128  O53   S    
C76   O11   A    
C42   C70   S    
C111  C119  A    
C77   C131  S    
C3    C29   S    
C98   O14   A    
C74   C107  A    
C119  H69   S    
C148  O42   A    
C123  H68   S    
C146  O45   A    
C2    C44   S    
C149  O43   A    
C29   C38   S    
C5    H6    S    
C78   C111  A    
C75   C113  A    
C89   C91   A    
Cr1   O1    S    
Cr11  O26   S    
C93   C95   A    
C62   C148  S    
C79   C103  A    
Cr10  O47   S    
C62   C142  S    
C27   H10   S    
C120  O16   A    
C117  H62   S    
C90   H46   S    
C91   H47   S    
C80   H53   S    
C141  O36   A    
Cr11  O17   S    
Cr7   O8    S    
C57   H42   S    
C65   C74   S    
C46   C68   S    
C65   O10   A    
C35   C67   S    
Cr3   O41   S    
C144  O23   A    
C99   C101  A    
C30   H14   S    
C103  C105  A    
C36   H19   S    
C20   C136  S    
C12   C35   S    
C19   C28   S    
Cr12  O37   S    
C114  C123  A    
C116  C125  A    
C48   H31   S    
C84   C104  A    
C92   H48   S    
C16   C61   S    
C86   C102  A    
Cr7   O59   S    
C72   C87   S    
C2    C63   S    
C124  C126  A    
Cr4   O35   S    
C15   H67   S    
C108  C117  A    
C75   C120  S    
Cr1   O60   S    
C19   C45   S    
C40   H24   S    
Cr2   O29   S    
C54   H79   S    
C14   C22   S    
C11   H34   S    
C112  C121  A    
C136  O30   A    
Cr10  O14   S    
C106  C108  A    
C28   C37   S    
C30   C39   S    
C18   C134  S    
C107  C116  A    
C8    H1    S    
C9    C18   S    
Cr2   O38   S    
C118  C127  A    
C138  O24   A    
C87   O13   A    
C140  O26   A    
C71   C108  A    
C2    C9    S    
C25   C33   S    
C61   C70   S    
C88   C96   A    
C24   H39   S    
Cr3   O32   S    
C78   C102  A    
Cr4   O42   S    
C53   H75   S    
C7    C70   S    
C14   C46   S    
C127  O52   S    
C46   C49   S    
Cr8   O9    S    
C79   C112  A    
C145  O34   A    
C148  O58   A    
C71   C76   S    
C116  H65   S    
Cr9   O21   S    
C35   H40   S    
C149  O59   A    
C67   C144  S    
C19   C135  S    
C34   C62   S    
C31   C40   S    
Cr11  O48   S    
C138  O32   A    
C10   C152  S    
C39   H22   S    
C55   H82   S    
C56   H86   S    
C58   O54   S    
C24   C66   S    
C129  C132  A    
Cr6   O5    S    
C83   C99   A    
C2    H37   S    
C5    C68   S    
C35   C48   S    
C50   H33   S    
C45   H29   S    
Cr12  O28   S    
C93   H49   S    
C54   H77   S    
C26   C150  S    
C150  H89   S    
C131  O8    A    
C133  O18   A    
C31   H15   S    
Cr6   O56   S    
C10   C19   S    
C53   O50   S    
C136  O21   A    
Cr8   O44   S    
C63   C151  S    
C5    C14   S    
C61   H43   S    
C7    C16   S    
Cr5   O46   S    
C33   H17   S    
C75   C104  A    
C82   C97   A    
C3    C66   S    
C77   C114  A    
C38   H21   S    
C41   C50   S    
Cr12  O36   S    
C37   C64   S    
C56   O53   S    
C143  O37   A    
C27   C151  S    
C115  C124  A    
C59   H92   S    
C142  H36   S    
C121  C129  A    
C23   C50   S    
C128  C130  A    
C74   C99   A    
C49   H32   S    
Cr10  O24   S    
C27   C36   S    
C71   C100  A    
C22   C138  S    
C1    C73   S    
C23   C32   S    
C77   C105  A    
C115  H64   S    
C13   C64   S    
C131  O17   A    
Cr5   O4    S    
C40   C68   S    
C59   H93   S    
C8    C142  S    
C125  O50   S    
C68   C145  S    
C40   C49   S    
C52   H71   S    
C39   C48   S    
Cr11  O25   S    
C147  O56   A    
C95   H51   S    
C47   H30   S    
C58   H88   S    
C51   C61   S    
Cr9   O11   S    
C73   C97   A    
C83   C92   A    
Cr4   O48   S    
C20   C29   S    
C17   C26   S    
C60   H95   S    
C23   C139  S    
C89   H44   S    
Cr7   O7    S    
C1    O60   A    
C11   C24   S    
C52   O49   S    
C139  O25   A    
C137  O31   A    
C63   C149  S    
C6    C15   S    
C26   C34   S    
C38   C66   S    
C133  O27   A    
C78   C98   S    
Cr6   O47   S    
Cr4   O43   S    
C36   C63   S    
C42   C51   S    
C85   C94   A    
C15   C23   S    
C43   H27   S    
C55   H83   S    
C80   C100  A    
C15   C57   S    
Cr8   O19   S    
C86   H60   S    
C85   C105  A    
C3    H4    S    
C6    H7    S    
Cr10  O22   S    
C122  H66   S    
C72   C110  A    
C22   C31   S    
C82   H55   S    
C143  O12   A    
C139  O33   A    
C37   H20   S    
C12   C21   S    
Cr2   O30   S    
C54   H80   S    
C25   C51   S    
C59   O55   S    
C85   H59   S    
Cr10  O15   S    
C88   H61   S    
C32   C41   S    
C38   C47   S    
C10   H23   S    
C66   C147  S    
C102  C104  A    
Cr1   O2    S    
C126  O51   S    
C109  O15   A    
C51   H35   S    
C52   H73   S    
C76   O3    A    
Cr2   O39   S    
C28   C152  S    
C88   C103  A    
C130  O55   S    
Cr3   O31   S    
C24   C47   S    
C39   C67   S    
C132  O57   S    
C18   C27   S    
C109  O6    A    
C10   C13   S    
C53   H74   S    
C4    C67   S    
C151  H2    S    
Cr8   O10   S    
C73   C106  A    
C84   H58   S    
C81   H54   S    
Cr6   O45   S    
C34   H18   S    
Cr1   O12   S    
C144  O38   A    
C55   H81   S    
C57   C69   S    
C34   C43   S    
C87   O4    A    
C122  C130  A    
C4    C30   S    
C60   O57   S    
C5    C31   S    
