data_mof_unit_67158.cif
_audit_creation_date              2013-03-05T15:58:58-0500
_audit_creation_method            fapswitch 2.2
_symmetry_space_group_name_H-M    P1
_symmetry_Int_Tables_number       1
_space_group_crystal_system       triclinic
_cell_length_a                    8.271545
_cell_length_b                    12.850184
_cell_length_c                    15.080982
_cell_angle_alpha                 97.377383
_cell_angle_beta                  97.602515
_cell_angle_gamma                 98.790401
_cell_volume                      1552.03907147

loop_
_atom_site_label
_atom_site_type_symbol
_atom_site_description
_atom_site_fract_x
_atom_site_fract_y
_atom_site_fract_z
_atom_type_partial_charge
P1    P     P_3+3 0.998730 0.403530 0.291970 0.489067
O1    O     O_2   0.827880 0.435260 0.277750 -0.348051
O2    O     O_3   0.100280 0.438960 0.391170 -0.398876
O3    O     O_3   0.625580 0.634130 0.333250 -0.335222
O4    O     O_2   0.699489 0.557669 0.176964 -0.380066
O5    O     O_3   0.939900 0.265393 0.265905 -0.588828
O6    O     O_3   0.650604 0.754048 0.192901 -0.520118
H1    H     H_    0.642263 0.895946 0.269875 0.115049
C1    C     C_3   0.454380 0.864950 0.152255 -0.912371
H2    H     H_    0.381234 0.923154 0.180467 0.250631
H3    H     H_    0.536919 0.903095 0.108887 0.314855
P2    P     P_3+3 0.687380 0.751030 0.571310 0.490960
P3    P     P_3+3 0.105822 0.826752 0.378936 0.434413
O7    O     O_2   0.857130 0.766340 0.543890 -0.394151
O8    O     O_3   0.056550 0.691050 0.379010 -0.405703
O9    O     O_2   0.991501 0.879987 0.436405 -0.411502
O10   O     O_3   0.710757 0.795895 0.687178 -0.542727
O11   O     O_3   0.043453 0.850503 0.269296 -0.490194
C2    C     C_3   0.057041 0.760567 0.209211 0.453524
H4    H     H_    0.969775 0.689745 0.218604 0.151434
H5    H     H_    0.185230 0.743551 0.218533 -0.018157
C3    C     C_3   0.012834 0.780001 0.113083 -0.775959
H6    H     H_    0.881448 0.789640 0.098887 0.290812
H7    H     H_    0.092554 0.852797 0.101100 0.303779
C4    C     C_3   0.261011 0.771042 0.643079 0.303977
H8    H     H_    0.358711 0.736819 0.612279 0.055270
H9    H     H_    0.142802 0.749686 0.595739 0.108730
C5    C     C_3   0.306133 0.891901 0.661672 -0.156396
H10   H     H_    0.441255 0.914982 0.683735 0.107965
H11   H     H_    0.274956 0.925617 0.598817 0.107765
Ba1   Ba    Ba6+2 0.843750 0.550210 0.455600 1.625545
C6    C     C_3   0.035931 0.216125 0.324782 0.201137
H12   H     H_    0.022806 0.242571 0.396205 0.070132
H13   H     H_    0.165677 0.235088 0.314021 0.182543
C7    C     C_3   0.977198 0.096139 0.303555 -0.058611
H14   H     H_    0.845598 0.077351 0.313093 0.059529
H15   H     H_    0.049955 0.056560 0.351769 0.104926
C8    C     C_3   0.813892 0.742022 0.737771 0.307553
H16   H     H_    0.929169 0.735908 0.708976 0.104830
H17   H     H_    0.746474 0.661260 0.740962 0.081867
C9    C     C_3   0.856952 0.808054 0.832050 -0.436586
H18   H     H_    0.924011 0.888526 0.828760 0.292261
H19   H     H_    0.742636 0.820667 0.859641 0.241169
P4    P     P_3+3 0.190990 0.596560 0.708040 0.512230
O12   O     O_2   0.361830 0.564780 0.722310 -0.314037
O13   O     O_3   0.089430 0.561130 0.608830 -0.428953
O14   O     O_3   0.564130 0.365960 0.666760 -0.327767
O15   O     O_3   0.245702 0.734256 0.725289 -0.485381
P5    P     P_3+3 0.090516 0.170864 0.615374 0.531493
O16   O     O_3   0.601940 0.368240 0.453770 -0.337235
O17   O     O_3   0.133170 0.309040 0.621000 -0.400818
O18   O     O_2   0.233136 0.125064 0.576149 -0.416434
O19   O     O_3   0.113928 0.146622 0.728081 -0.442369
Ba2   Ba    Ba6+2 0.346090 0.449880 0.544410 1.643393
P6    P     P_3+3 0.581988 0.626673 0.217194 0.508771
C10   C     C_3   0.555940 0.826464 0.229136 0.395261
H20   H     H_    0.472460 0.794657 0.275004 0.030418
H21   H     H_    0.368124 0.797083 0.109881 0.254918
O20   O     O_3   0.587780 0.631850 0.546230 -0.384463
C11   C     C_3   0.554607 0.232350 0.255718 0.763088
H22   H     H_    0.677400 0.255936 0.297546 0.038907
C12   C     C_3   0.568047 0.145216 0.179806 -0.812838
H23   H     H_    0.448713 0.119678 0.133252 0.289285
H24   H     H_    0.666562 0.174357 0.141513 0.286950
H25   H     H_    0.602270 0.075997 0.209834 0.210279
P7    P     P_3+3 0.503728 0.232269 0.421972 0.448402
O21   O     O_2   0.332590 0.233690 0.456160 -0.381047
O22   O     O_3   0.435823 0.192603 0.305835 -0.617461
H26   H     H_    0.032248 0.710181 0.067211 0.180642
C13   C     C_3   0.155449 0.243657 0.787817 0.442700
H27   H     H_    0.281498 0.281703 0.782718 0.127897
H28   H     H_    0.069612 0.299664 0.773067 0.110520
C14   C     C_3   0.148153 0.223970 0.884698 -0.771988
H29   H     H_    0.205570 0.297498 0.932402 0.217167
H30   H     H_    0.017515 0.202438 0.894576 0.291173
H31   H     H_    0.214461 0.158419 0.900376 0.272208
P8    P     P_3+3 0.612626 0.387197 0.786247 0.504881
C15   C     C_3   0.582216 0.173890 0.784755 0.552407
O23   O     O_2   0.486769 0.451267 0.823223 -0.394726
O24   O     O_3   0.574354 0.271667 0.836572 -0.600378
H32   H     H_    0.477418 0.154220 0.727737 0.036529
H33   H     H_    0.552596 0.009877 0.811623 0.138976
C16   C     C_3   0.562229 0.090526 0.849403 -0.054821
H34   H     H_    0.448283 0.095364 0.879461 0.145868
C17   C     C_R   0.824858 0.456676 0.834317 0.294621
C18   C     C_R   0.894235 0.461106 0.926210 -0.066214
C19   C     C_R   0.035591 0.462115 0.110528 -0.078555
C20   C     C_R   0.871756 0.414469 0.077081 0.000573
C21   C     C_R   0.800100 0.420423 0.989251 -0.054808
C22   C     C_R   0.104309 0.469714 0.204160 0.225436
H35   H     H_    0.793845 0.375294 0.119028 0.196256
H36   H     H_    0.668755 0.392160 0.972216 0.208394
C23   C     C_R   0.262333 0.529693 0.233569 -0.381354
C24   C     C_R   0.087395 0.544593 0.800624 0.193172
C25   C     C_R   0.160339 0.553978 0.894480 -0.185940
C26   C     C_R   0.062954 0.506671 0.956005 -0.030007
C27   C     C_R   0.324082 0.607600 0.931480 0.462842
C28   C     C_R   0.390867 0.602679 0.020059 -0.290035
C29   C     C_R   0.297032 0.558186 0.080334 -0.067381
C30   C     C_R   0.131798 0.508911 0.048966 0.035157
C31   C     C_R   0.362576 0.567924 0.172661 0.253862
C32   C     C_R   0.922963 0.495133 0.773573 -0.506238
H37   H     H_    0.517051 0.642470 0.042456 0.205015
H38   H     H_    0.312103 0.541713 0.304871 0.183045
H39   H     H_    0.868428 0.487637 0.703220 0.182297
C33   C     C_R   0.783241 0.174150 0.511413 -0.414561
C34   C     C_R   0.423383 0.807522 0.459323 -0.534278
C35   C     C_R   0.390389 0.983294 0.426706 -0.213189
C36   C     C_R   0.325302 0.876352 0.423674 0.197384
C37   C     C_R   0.583770 0.845722 0.506003 0.299448
C38   C     C_R   0.652012 0.956610 0.508843 -0.096811
C39   C     C_R   0.552995 0.025431 0.468547 -0.048800
C40   C     C_R   0.618735 0.135283 0.472575 0.194809
C41   C     C_R   0.882223 0.108929 0.551023 0.299259
C42   C     C_R   0.815503 0.001447 0.550064 -0.089556
H40   H     H_    0.311822 0.032959 0.396713 0.179742
H41   H     H_    0.893099 0.953273 0.580361 0.222466
H42   H     H_    0.833633 0.257450 0.513479 0.164856
H43   H     H_    0.370220 0.724456 0.455573 0.167773
N1    N     N_R   0.215239 0.934272 0.730620 0.275550
O25   O     O_R   0.061027 0.939250 0.706856 -0.380454
O26   O     O_R   0.264962 0.930611 0.815323 -0.318268
N2    N     N_R   0.996200 0.056054 0.211121 0.309923
O27   O     O_R   0.867541 0.009494 0.152613 -0.340703
O28   O     O_R   0.142716 0.062807 0.187645 -0.366816
C43   C     C_2   0.958538 0.755549 0.895170 0.526691
H44   H     H_    0.905388 0.680816 0.913881 0.027650
O29   O     O_2   0.099872 0.797566 0.927405 -0.491994
N3    N     N_R   0.505239 0.325116 0.221096 0.233167
O30   O     O_R   0.462543 0.326568 0.135038 -0.430556
O31   O     O_R   0.494063 0.405983 0.279399 -0.384215
N4    N     N_R   0.738445 0.171999 0.749265 0.197670
O32   O     O_R   0.785898 0.240708 0.698089 -0.468446
O33   O     O_R   0.802259 0.085318 0.745869 -0.394845
N5    N     N_R   0.701853 0.107558 0.922943 0.282710
O34   O     O_R   0.724786 0.190288 0.985218 -0.399002
O35   O     O_R   0.790537 0.033427 0.933259 -0.323882
N6    N     N_R   0.424398 0.677270 0.886271 0.256000
O36   O     O_R   0.407272 0.776673 0.894881 -0.297555
O37   O     O_R   0.569660 0.655948 0.875475 -0.461155

loop_
_geom_bond_atom_site_label_1
_geom_bond_atom_site_label_2
_geom_bond_distance
_ccdc_geom_bond_type
P7    O22   1.750955 S    
C19   C20   1.397141 A    
P1    C22   1.899438 S    
P7    C40   1.858781 S    
C14   H30   1.108236 S    
C14   H29   1.110744 S    
O5    C6    1.389831 S    
C25   C26   1.439549 A    
O6    P6    1.749436 S    
O7    Ba1   2.901031 S    
H1    C10   1.110268 S    
P2    C37   1.894278 S    
C41   C42   1.404339 A    
N2    O27   1.300158 A    
C17   C18   1.418604 A    
C10   H20   1.111348 S    
C4    C5    1.520927 S    
O16   Ba2   2.919500 S    
P3    O11   1.745083 S    
C33   C41   1.392285 A    
C5    H10   1.105800 S    
C7    H15   1.105562 S    
O11   C2    1.402518 S    
C8    H16   1.107989 S    
O2    Ba2   2.842655 S    
C15   O24   1.407062 S    
N2    O28   1.300346 A    
C28   H37   1.078968 S    
P1    Ba1   3.415646 S    
C35   C36   1.389839 A    
C32   H39   1.082731 S    
C11   C12   1.522901 S    
P1    O1    1.525691 D    
C9    H18   1.106625 S    
Ba1   O20   2.920257 S    
C15   N4    1.465007 S    
C37   C38   1.443255 A    
P3    C36   1.835509 S    
P2    O20   1.596994 S    
C15   C16   1.543426 S    
C38   C39   1.431743 A    
P4    O13   1.589700 S    
N4    O32   1.295556 A    
P5    O17   1.745365 S    
Ba1   O13   2.841902 S    
P2    O10   1.743851 S    
C12   H24   1.106581 S    
C13   H27   1.098663 S    
C1    H2    1.109596 S    
C3    H26   1.106063 S    
C16   N5    1.460548 S    
P7    O21   1.571188 D    
P8    C17   1.849974 S    
C33   H42   1.082651 S    
C9    H19   1.107765 S    
O6    C10   1.408195 S    
O19   C13   1.408227 S    
C23   H38   1.081838 S    
C34   H43   1.081853 S    
C39   C40   1.423606 A    
N1    O26   1.298247 A    
C27   C28   1.389523 A    
Ba2   O20   2.829390 S    
P8    O23   1.539553 D    
C33   C40   1.396547 A    
P1    O5    1.745973 S    
C6    C7    1.522802 S    
N5    O34   1.297314 A    
C2    C3    1.509414 S    
C8    C9    1.527159 S    
C5    N1    1.459271 S    
C23   C31   1.401976 A    
Ba2   O21   2.901352 S    
C42   H41   1.058494 S    
C4    H8    1.103509 S    
C35   C39   1.401961 A    
C11   H22   1.099402 S    
P1    O2    1.589544 S    
C7    H14   1.110811 S    
C6    H13   1.101724 S    
C12   H23   1.110581 S    
O16   P7    1.786258 S    
C16   H34   1.105171 S    
C20   H35   1.076761 S    
P5    O18   1.547713 D    
O13   Ba2   2.934492 S    
C13   C14   1.521826 S    
C1    C10   1.520226 S    
C21   H36   1.076953 S    
O2    Ba1   2.933642 S    
C1    H3    1.110107 S    
C4    O15   1.396555 S    
C11   O22   1.392753 S    
C18   C26   1.417425 A    
O14   Ba2   2.836397 S    
C29   C31   1.408218 A    
P2    O7    1.507077 D    
O12   Ba2   2.868185 S    
C28   C29   1.392895 A    
P3    O8    1.729256 S    
P2    Ba1   3.440687 S    
C34   C37   1.400583 A    
C3    H7    1.108574 S    
P3    O9    1.541302 D    
O14   P8    1.769605 S    
Ba1   O16   2.829935 S    
C27   N6    1.426275 S    
N1    O25   1.292082 A    
C22   C23   1.396482 A    
C19   C30   1.431599 A    
P8    O24   1.757701 S    
N5    O35   1.300447 A    
C1    H21   1.106368 S    
C43   O29   1.218126 D    
C12   H25   1.105831 S    
C2    H5    1.109584 S    
C9    C43   1.481205 S    
O4    P6    1.542804 D    
P4    O12   1.525927 D    
C18   C21   1.408030 A    
C11   N3    1.453469 S    
C38   C42   1.412317 A    
C25   C27   1.427103 A    
O8    Ba1   2.794458 S    
N6    O37   1.298542 A    
C4    H9    1.106355 S    
P6    C31   1.855602 S    
C29   C30   1.407189 A    
O17   Ba2   2.795039 S    
C6    H12   1.111616 S    
C35   H40   1.075806 S    
C2    H4    1.108472 S    
C5    H11   1.108024 S    
N3    O30   1.302465 A    
O3    P6    1.726828 S    
C8    H17   1.110576 S    
C15   H32   1.111172 S    
C34   C36   1.398395 A    
C43   H44   1.080984 S    
P5    O19   1.758112 S    
C26   C30   1.436640 A    
C7    N2    1.459997 S    
C14   H31   1.106484 S    
P5    C41   1.866490 S    
O10   C8    1.390352 S    
Ba1   Ba2   4.547649 S    
C24   C25   1.445685 A    
O3    Ba1   2.837050 S    
P4    C24   1.873728 S    
N6    O36   1.298503 A    
P4    Ba2   3.416198 S    
C20   C21   1.394188 A    
C24   C32   1.393787 A    
N4    O33   1.301599 A    
H33   C16   1.102777 S    
C19   C22   1.435889 A    
C3    H6    1.108435 S    
O1    Ba1   2.867613 S    
C13   H28   1.107726 S    
C17   C32   1.390063 A    
P4    O15   1.734708 S    
N3    O31   1.295268 A    
