data_mof_unit_45953.cif
_audit_creation_date              2012-12-10T17:45:28-0500
_audit_creation_method            fapswitch 2.2
_symmetry_space_group_name_H-M    P1
_symmetry_Int_Tables_number       1
_space_group_crystal_system       triclinic
_cell_length_a                    11.509317
_cell_length_b                    10.608121
_cell_length_c                    9.960026
_cell_angle_alpha                 88.544001
_cell_angle_beta                  88.651791
_cell_angle_gamma                 91.955615
_cell_volume                      1214.57885675

loop_
_atom_site_label
_atom_site_type_symbol
_atom_type_description
_atom_site_fract_x
_atom_site_fract_y
_atom_site_fract_z
_atom_type_partial_charge
C1    C     C_R   0.518329 0.262536 0.502200 0.984829
C2    C     C_R   0.496445 0.040660 0.871884 -0.136323
C3    C     C_R   0.417187 0.940456 0.855760 -0.149697
C4    C     C_R   0.402338 0.889612 0.728948 0.420087
C5    C     C_R   0.469121 0.940165 0.616911 -0.077997
C6    C     C_R   0.523632 0.058927 0.629084 -0.025778
C7    C     C_R   0.545078 0.130479 0.509273 -0.156956
C8    C     C_R   0.559167 0.071228 0.387836 -0.154314
C9    C     C_R   0.531420 0.945115 0.378656 0.424994
C10   C     C_R   0.487848 0.877001 0.494538 -0.169534
C11   C     C_R   0.302483 0.404689 0.145120 0.418682
C12   C     C_R   0.282215 0.500632 0.501059 0.979320
C13   C     C_R   0.197849 0.434491 0.086746 -0.411183
C14   C     C_R   0.192789 0.432613 0.946929 0.362871
C15   C     C_R   0.297015 0.416039 0.873063 0.356896
C16   C     C_R   0.402951 0.453815 0.932316 -0.012523
C17   C     C_R   0.404490 0.450759 0.076048 -0.037558
C18   C     C_R   0.591286 0.548819 0.065849 0.462928
C19   C     C_R   0.591659 0.546440 0.923732 -0.054324
C20   C     C_R   0.492515 0.740755 0.498184 0.921693
C21   C     C_R   0.717871 0.500577 0.498624 0.882443
C22   C     C_1   0.161717 0.501086 0.501833 -0.048648
C23   C     C_1   0.059503 0.501237 0.498834 0.114131
C24   C     C_1   0.940810 0.501043 0.496057 0.102669
C25   C     C_1   0.838481 0.500791 0.495904 -0.063261
C26   C     C_R   0.549603 0.101381 0.759401 0.426115
H1    H     H_    0.586784 0.124814 0.297987 0.215600
H2    H     H_    0.665868 0.585867 0.866468 0.194758
H3    H     H_    0.514649 0.073016 0.971567 0.242610
H4    H     H_    0.368951 0.900725 0.942343 0.228239
H5    H     H_    0.118163 0.424561 0.146542 0.200872
N1    N     N_R   0.498930 0.498800 0.142780 -0.143950
N2    N     N_R   0.498900 0.498720 0.857170 -0.110274
O1    O     O_R   0.500000 0.316780 0.614690 -0.551280
O2    O     O_R   0.499990 0.316750 0.385360 -0.569349
O3    O     O_R   0.334450 0.500030 0.614670 -0.565271
O4    O     O_R   0.334440 0.500000 0.385330 -0.636529
O5    O     O_R   0.500010 0.683250 0.614640 -0.612206
O6    O     O_R   0.500000 0.683220 0.385310 -0.551268
O7    O     O_R   0.665560 0.500000 0.614670 -0.594263
O8    O     O_R   0.665550 0.499970 0.385330 -0.580263
Zn1   Zn    Zn3+2 0.500010 0.500020 0.653130 1.065404
Zn2   Zn    Zn3+2 0.499990 0.499980 0.346870 1.081164
S1    S     S_3+6 0.055572 0.432825 0.870570 0.104748
O9    O     O_2   0.041990 0.559653 0.803419 -0.226078
O10   O     O_2   0.045682 0.332855 0.766849 -0.234174
O11   O     O_3   0.947655 0.409012 0.986257 -0.489063
H6    H     H_    0.951208 0.318891 0.013944 0.369787
Cl1   Cl    Cl    0.296171 0.281501 0.773151 -0.476217
Cl2   Cl    Cl    0.662435 0.213902 0.787517 -0.534095
Cl3   Cl    Cl    0.286394 0.778495 0.711886 -0.550461
Cl4   Cl    Cl    0.546918 0.883703 0.216117 -0.537510
Cl5   Cl    Cl    0.711367 0.623941 0.138463 -0.466302
S2    S     S_3+6 0.297886 0.247123 0.208757 0.065811
O12   O     O_2   0.410436 0.186404 0.175818 -0.279837
O13   O     O_2   0.275409 0.241943 0.358050 -0.295365
O14   O     O_3   0.190653 0.163708 0.135630 -0.486773
H7    H     H_    0.118711 0.182530 0.186755 0.361972

loop_
_geom_bond_atom_site_label_1
_geom_bond_atom_site_label_2
_ccdc_geom_bond_type
O4    Zn2   S    
C3    H4    S    
C23   C24   S    
C6    C7    A    
C16   N2    A    
C12   O3    A    
O2    Zn2   S    
C9    C10   A    
O3    Zn1   S    
O11   H6    S    
O1    Zn1   S    
S1    O11   S    
O7    Zn1   S    
C2    C3    A    
C7    C8    A    
C2    C26   A    
C13   C14   A    
C24   C25   T    
C15   Cl1   S    
C19   H2    S    
O8    Zn2   S    
O14   H7    S    
C6    C26   A    
C9    Cl4   S    
C2    H3    S    
C21   O8    A    
N2    Zn1   S    
C11   S2    S    
N1    Zn2   S    
S1    O10   D    
C1    O1    A    
O5    Zn1   S    
C26   Cl2   S    
C5    C6    A    
S2    O13   D    
C18   N1    A    
C15   C16   A    
C4    Cl3   S    
C5    C10   A    
C3    C4    A    
C12   C22   S    
C11   C13   A    
C20   O5    A    
S1    O9    D    
C1    O2    A    
C14   S1    S    
C18   C19   A    
C19   N2    A    
C12   O4    A    
C20   O6    A    
C17   N1    A    
C21   C25   S    
S2    O12   D    
C8    H1    S    
O6    Zn2   S    
C18   Cl5   S    
C1    C7    S    
C4    C5    A    
C13   H5    S    
C22   C23   T    
C11   C17   A    
C14   C15   A    
C16   C17   A    
C10   C20   S    
C8    C9    A    
S2    O14   S    
C21   O7    A    
