data_mof_unit_59449.cif
_audit_creation_date              2013-03-05T16:09:16-0500
_audit_creation_method            fapswitch 2.2
_symmetry_space_group_name_H-M    P1
_symmetry_Int_Tables_number       1
_space_group_crystal_system       triclinic
_cell_length_a                    8.592951
_cell_length_b                    10.704488
_cell_length_c                    9.883516
_cell_angle_alpha                 90.385176
_cell_angle_beta                  98.808334
_cell_angle_gamma                 90.559541
_cell_volume                      898.320920799

loop_
_atom_site_label
_atom_site_type_symbol
_atom_site_description
_atom_site_fract_x
_atom_site_fract_y
_atom_site_fract_z
_atom_type_partial_charge
O1    O     O_R   0.499990 0.316750 0.614620 -0.635973
O2    O     O_R   0.500010 0.683250 0.385380 -0.635982
O3    O     O_R   0.499990 0.316780 0.385290 -0.582126
O4    O     O_R   0.500010 0.683220 0.614710 -0.581968
C1    C     C_R   0.499520 0.260024 0.499604 0.876541
C2    C     C_R   0.500480 0.739976 0.500396 0.876693
O5    O     O_R   0.271750 0.499990 0.587840 -0.632877
O6    O     O_R   0.728250 0.500010 0.412160 -0.632877
O7    O     O_R   0.271750 0.500010 0.358510 -0.574581
O8    O     O_R   0.728250 0.499990 0.641490 -0.574592
C3    C     C_R   0.201175 0.499870 0.464039 0.975534
C4    C     C_R   0.798825 0.500131 0.535961 0.975611
Zn1   Zn    Zn3+2 0.500000 0.499980 0.653120 1.016907
Zn2   Zn    Zn3+2 0.500000 0.500020 0.346880 1.016944
N1    N     N_R   0.499960 0.499970 0.857200 -0.159106
N2    N     N_R   0.500040 0.500030 0.142800 -0.159200
C5    C     C_2   0.035871 0.499852 0.444845 -0.356042
C6    C     C_2   0.964128 0.500151 0.555155 -0.356232
H1    H     H_    0.973702 0.499606 0.340303 0.211473
H2    H     H_    0.026298 0.500397 0.659698 0.211339
C7    C     C_R   0.539447 0.063565 0.386413 -0.130518
C8    C     C_R   0.460561 0.936435 0.613589 -0.130671
H3    H     H_    0.571492 0.112083 0.298649 0.182082
H4    H     H_    0.428519 0.887916 0.701355 0.181990
C9    C     C_R   0.540418 0.935590 0.387047 -0.177379
C10   C     C_R   0.459588 0.064410 0.612955 -0.177404
H5    H     H_    0.573020 0.886419 0.299540 0.171449
H6    H     H_    0.426986 0.113581 0.700462 0.171473
C11   C     C_R   0.500851 0.872487 0.500600 -0.020242
C12   C     C_R   0.499154 0.127513 0.499401 -0.020251
C13   C     C_R   0.617914 0.557843 0.088757 -0.199428
C14   C     C_R   0.382094 0.442138 0.911256 -0.199486
H7    H     H_    0.711406 0.604913 0.156570 0.182446
H8    H     H_    0.288607 0.395045 0.843460 0.182268
C15   C     C_R   0.618249 0.558718 0.945328 0.380386
C16   C     C_R   0.381801 0.441235 0.054694 0.380660
N3    N     N_R   0.743226 0.622883 0.894059 0.219153
O9    O     O_R   0.715465 0.729037 0.832526 -0.385596
O10   O     O_R   0.888227 0.593505 0.939417 -0.361936
N4    N     N_R   0.257022 0.376891 0.106039 0.219204
O11   O     O_R   0.111954 0.406703 0.061488 -0.361733
O12   O     O_R   0.284852 0.270359 0.166786 -0.385953

loop_
_geom_bond_atom_site_label_1
_geom_bond_atom_site_label_2
_geom_bond_distance
_ccdc_geom_bond_type
O7    Zn2   1.982199 S    
C13   H7    1.082189 S    
N3    O9    1.299294 A    
C8    C11   1.395810 A    
C9    H5    1.083741 S    
C7    C12   1.395812 A    
C10   H6    1.083741 S    
C16   N4    1.427749 S    
O6    C4    1.279712 A    
Zn1   N1    2.017082 S    
C5    C6    1.332117 D    
N1    C14   1.361028 A    
N3    O10   1.300312 A    
N2    C16   1.376906 A    
N2    C13   1.360921 A    
O5    C3    1.279713 A    
O7    C3    1.284267 A    
O2    C2    1.284613 A    
O3    Zn2   2.000394 S    
O8    C4    1.284267 A    
O1    C1    1.284614 A    
C14   C16   1.418159 A    
C13   C15   1.418126 A    
N1    C15   1.377070 A    
N4    O11   1.300457 A    
C15   N3    1.427855 S    
C10   C12   1.397865 A    
C6    H2    1.088065 S    
C7    H3    1.083694 S    
C9    C11   1.397864 A    
O2    Zn2   1.995437 S    
C8    H4    1.083694 S    
O1    Zn1   1.995436 S    
O5    Zn1   1.968652 S    
C2    C11   1.418422 S    
O4    C2    1.286938 A    
C1    C12   1.418422 S    
C8    C10   1.370065 A    
C4    C6    1.403965 S    
O4    Zn1   2.000395 S    
C7    C9    1.370064 A    
C3    C5    1.403966 S    
O6    Zn2   1.968651 S    
C5    H1    1.088065 S    
Zn2   N2    2.017081 S    
N4    O12   1.299485 A    
O3    C1    1.286938 A    
O8    Zn1   1.982199 S    
C14   H8    1.082190 S    
