data_mof_unit_50467.cif
_audit_creation_date              2012-12-11T15:55:55-0500
_audit_creation_method            fapswitch 2.2
_symmetry_space_group_name_H-M    P1
_symmetry_Int_Tables_number       1
_space_group_crystal_system       triclinic
_cell_length_a                    11.02733
_cell_length_b                    11.035928
_cell_length_c                    18.688188
_cell_angle_alpha                 90.162398
_cell_angle_beta                  90.428216
_cell_angle_gamma                 59.219988
_cell_volume                      1953.87679177

loop_
_atom_site_label
_atom_site_type_symbol
_atom_type_description
_atom_site_fract_x
_atom_site_fract_y
_atom_site_fract_z
_atom_type_partial_charge
C1    C     C_R   0.356638 0.775174 0.398684 0.544687
C2    C     C_R   0.237896 0.411235 0.205060 -0.163923
C3    C     C_R   0.237398 0.438312 0.277443 -0.040646
C4    C     C_R   0.380741 0.351893 0.390510 0.528287
C5    C     C_R   0.946600 0.857885 0.354867 -0.086988
C6    C     C_R   0.961159 0.741121 0.391200 -0.090668
C7    C     C_R   0.053028 0.605555 0.365555 -0.055543
C8    C     C_R   0.133311 0.584192 0.303480 0.038845
C9    C     C_R   0.338444 0.327154 0.321054 -0.000122
C10   C     C_R   0.918449 0.314480 0.191431 0.031030
C11   C     C_R   0.870334 0.232142 0.220735 0.025101
C12   C     C_R   0.557846 0.024616 0.195959 0.050338
C13   C     C_R   0.842151 0.235805 0.292518 -0.049549
C14   C     C_R   0.909412 0.410198 0.308271 -0.169778
C15   C     C_R   0.943437 0.400204 0.236438 -0.179945
C16   C     C_R   0.777215 0.378250 0.403165 0.544758
C17   C     C_3   0.751045 0.215623 0.197248 0.145943
C18   C     C_3   0.718663 0.217781 0.276224 -0.189468
C19   C     C_R   0.852829 0.332611 0.336619 0.005332
C20   C     C_R   0.309054 0.925539 0.186206 0.025114
C21   C     C_R   0.413667 0.790817 0.205593 0.022724
C22   C     C_R   0.433699 0.747425 0.275303 -0.012700
C23   C     C_R   0.331365 0.278290 0.175685 0.011607
C24   C     C_R   0.250972 0.977211 0.312735 -0.162072
C25   C     C_R   0.236110 0.022812 0.241245 -0.174983
C26   C     C_3   0.460614 0.648363 0.177228 -0.220928
C27   C     C_3   0.485097 0.598707 0.254893 -0.232525
C28   C     C_R   0.343946 0.771078 0.603471 0.551234
C29   C     C_R   0.344698 0.834664 0.328832 0.024613
C30   C     C_R   0.269080 0.271829 0.802169 0.006463
C31   C     C_R   0.369338 0.160898 0.760240 0.008522
C32   C     C_R   0.389786 0.180326 0.689756 0.009271
C33   C     C_R   0.190276 0.416152 0.693654 -0.170110
C34   C     C_R   0.428726 0.193743 0.292276 -0.150450
C35   C     C_R   0.170116 0.396329 0.766244 -0.164007
C36   C     C_3   0.521582 0.053331 0.772173 -0.247572
C37   C     C_3   0.544691 0.075265 0.694501 -0.243722
C38   C     C_R   0.311704 0.312981 0.657452 0.010202
C39   C     C_R   0.810328 0.329621 0.837141 -0.026407
C40   C     C_R   0.368367 0.348486 0.595241 0.531162
C41   C     C_R   0.745086 0.460262 0.803158 0.008041
C42   C     C_R   0.740247 0.467862 0.730348 0.009647
C43   C     C_R   0.840644 0.215983 0.720001 -0.002811
C44   C     C_R   0.844220 0.209332 0.795519 -0.175832
C45   C     C_R   0.435996 0.167222 0.219565 -0.010493
C46   C     C_3   0.755200 0.590557 0.809574 -0.260594
C47   C     C_3   0.751321 0.597096 0.728456 -0.252491
C48   C     C_R   0.795699 0.348385 0.686685 -0.010438
C49   C     C_R   0.290911 0.860914 0.823742 0.035201
C50   C     C_R   0.380970 0.724789 0.799937 -0.018582
C51   C     C_R   0.397460 0.699108 0.727275 0.015457
C52   C     C_R   0.763193 0.376368 0.610779 0.572924
C53   C     C_R   0.248789 0.947427 0.701154 -0.137318
C54   C     C_R   0.228227 0.973370 0.774495 -0.124195
C55   C     C_3   0.371519 0.596615 0.813386 -0.279358
C56   C     C_R   0.112542 0.703797 0.265688 -0.094913
C57   C     C_3   0.387780 0.569863 0.733659 -0.243956
C58   C     C_R   0.329165 0.808479 0.677627 0.032050
C59   C     C_R   0.963805 0.293833 0.118347 0.504676
C60   C     C_R   0.304828 0.256622 0.101946 0.523063
C61   C     C_R   0.271712 0.962912 0.111899 0.532545
C62   C     C_R   0.879398 0.310747 0.905980 0.534727
C63   C     C_R   0.268302 0.253462 0.879960 0.559362
C64   C     C_R   0.799782 0.760827 0.162334 -0.094623
C65   C     C_R   0.275522 0.893970 0.898390 0.544226
C66   C     C_R   0.719963 0.774244 0.222411 -0.105037
C67   C     C_R   0.020341 0.839493 0.291457 -0.091110
C68   C     C_R   0.602024 0.904516 0.239470 -0.106099
C69   C     C_3   0.657450 0.330842 0.086702 0.020722
C70   C     C_3   0.514133 0.408453 0.048467 -0.272188
C71   C     C_3   0.522502 0.351354 0.973172 -0.426082
C72   C     C_2   0.898425 0.081257 0.679574 0.561729
C73   C     C_R   0.647096 0.008844 0.138641 -0.055596
C74   C     C_R   0.764142 0.878679 0.120889 -0.131762
Cr1   Cr    Cr6+3 0.601740 0.606840 0.505840 1.001862
Cr2   Cr    Cr6+3 0.291500 0.601560 0.495070 1.022496
Cr3   Cr    Cr6+3 0.606780 0.291630 0.499130 1.034089
Cr4   Cr    Cr6+3 0.062440 0.063060 0.008240 0.969453
Cr5   Cr    Cr6+3 0.062950 0.375000 0.998920 0.976002
Cr6   Cr    Cr6+3 0.374550 0.061770 0.992470 0.985271
H1    H     H_    0.506311 0.112170 0.326909 0.133342
H2    H     H_    0.187213 0.050828 0.354127 0.126161
H3    H     H_    0.829642 0.870422 0.076093 0.096556
H4    H     H_    0.165965 0.131722 0.228825 0.104256
H5    H     H_    0.559711 0.607459 0.146381 0.172177
H6    H     H_    0.373635 0.642137 0.150619 0.142514
H7    H     H_    0.415188 0.560430 0.273366 0.149295
H8    H     H_    0.598471 0.530205 0.268413 0.164382
H9    H     H_    0.121096 0.517948 0.669240 0.125078
H10   H     H_    0.085779 0.482711 0.795305 0.128185
H11   H     H_    0.538270 0.946791 0.782938 0.138233
H12   H     H_    0.879708 0.962028 0.376782 0.116903
H13   H     H_    0.575837 0.088718 0.809811 0.167400
H14   H     H_    0.610940 0.123812 0.688716 0.186093
H15   H     H_    0.008392 0.930003 0.262833 0.117230
H16   H     H_    0.575887 0.980875 0.660666 0.140654
H17   H     H_    0.891412 0.106952 0.821142 0.184992
H18   H     H_    0.856443 0.572958 0.831636 0.162456
H19   H     H_    0.659742 0.679450 0.834497 0.138983
H20   H     H_    0.654688 0.690540 0.706805 0.154017
H21   H     H_    0.852100 0.577101 0.704715 0.139883
H22   H     H_    0.198979 0.033959 0.663413 0.145771
H23   H     H_    0.903711 0.755368 0.440230 0.095814
H24   H     H_    0.162056 0.080785 0.792983 0.111809
H25   H     H_    0.266806 0.621452 0.833904 0.152896
H26   H     H_    0.891217 0.660867 0.148556 0.125922
H27   H     H_    0.463638 0.516022 0.844323 0.135954
H28   H     H_    0.486726 0.471968 0.718690 0.137887
H29   H     H_    0.290808 0.584844 0.707368 0.157687
H30   H     H_    0.748651 0.684455 0.256268 0.125039
H31   H     H_    0.544963 0.910275 0.287204 0.115782
H32   H     H_    0.170053 0.692586 0.217165 0.104722
H33   H     H_    0.632764 0.098128 0.109143 0.147968
H34   H     H_    0.067444 0.516431 0.396619 0.103503
H35   H     H_    0.160950 0.495833 0.171382 0.125112
H36   H     H_    0.721062 0.221718 0.065426 0.137063
H37   H     H_    0.710408 0.389536 0.072662 0.185808
H38   H     H_    0.434398 0.399785 0.079696 0.218072
H39   H     H_    0.477687 0.522384 0.043851 0.137620
H40   H     H_    0.596728 0.367435 0.940600 0.124282
H41   H     H_    0.416333 0.407729 0.947729 0.178410
H42   H     H_    0.560282 0.236927 0.974878 0.189507
H43   H     H_    0.947636 0.878033 0.679758 0.336398
H44   H     H_    0.910771 0.490742 0.339459 0.135995
H45   H     H_    0.981474 0.464895 0.215565 0.124466
H46   H     H_    0.793530 0.111883 0.171385 0.095597
H47   H     H_    0.616437 0.309947 0.292695 0.169890
H48   H     H_    0.733986 0.115651 0.294586 0.097503
O1    O     O_R   0.748670 0.497520 0.427970 -0.528987
O2    O     O_R   0.417470 0.174910 0.067830 -0.538705
O3    O     O_R   0.375160 0.946380 0.070880 -0.494492
O4    O     O_R   0.476470 0.723930 0.429450 -0.505084
O5    O     O_R   0.160500 0.919670 0.926690 -0.508198
O6    O     O_R   0.933140 0.190380 0.936050 -0.513788
O7    O     O_R   0.909010 0.403210 0.925030 -0.521895
O8    O     O_R   0.179590 0.361290 0.918480 -0.502359
O9    O     O_R   0.391360 0.170840 0.907510 -0.533741
O10   O     O_R   0.350950 0.942600 0.922260 -0.513599
O11   O     O_3   0.166650 0.166610 0.999880 -0.302867
O12   O     O_R   0.300170 0.471020 0.567120 -0.513514
O13   O     O_R   0.264730 0.744140 0.416740 -0.494923
O14   O     O_R   0.309440 0.472410 0.418220 -0.500383
O15   O     O_R   0.501630 0.260530 0.414310 -0.538957
O16   O     O_R   0.727920 0.305730 0.428950 -0.497631
O17   O     O_R   0.738670 0.496020 0.588600 -0.525300
O18   O     O_R   0.467190 0.722540 0.578350 -0.513614
O19   O     O_R   0.254720 0.742640 0.577370 -0.497158
O20   O     O_3   0.639262 0.335299 0.161912 -0.587922
O21   O     O_2   0.946660 0.069879 0.619592 -0.517282
O22   O     O_R   0.903444 0.964399 0.711712 -0.731244
O23   O     O_R   0.491630 0.259030 0.574940 -0.519553
O24   O     O_R   0.718640 0.304340 0.577850 -0.465087
O25   O     O_3   0.500010 0.500010 0.500020 -0.257935
O26   O     O_R   0.186620 0.923750 0.087000 -0.522480
O27   O     O_R   0.957350 0.194160 0.084660 -0.538349
O28   O     O_R   0.935120 0.407280 0.085350 -0.534419
O29   O     O_R   0.203800 0.365060 0.067090 -0.518995

loop_
_geom_bond_atom_site_label_1
_geom_bond_atom_site_label_2
_ccdc_geom_bond_type
C66   C68   A    
C21   C26   S    
C69   H36   S    
C52   O17   A    
C23   C45   A    
C22   C29   A    
C73   C74   A    
C71   H42   S    
Cr5   O11   S    
C74   H3    S    
C5    C67   A    
C1    O4    A    
C61   O26   A    
C8    C56   A    
C4    O15   A    
C7    C8    A    
C39   C41   A    
C53   C54   A    
Cr1   O17   S    
Cr5   O8    S    
C12   C68   A    
C26   C27   S    
C43   C72   S    
C49   C65   S    
C71   H40   S    
C55   H25   S    
C47   H21   S    
C7    H34   S    
C54   H24   S    
C36   C37   S    
C16   O16   A    
C10   C15   A    
C26   H5    S    
C4    O14   A    
C30   C31   A    
C17   H46   S    
C2    H35   S    
C20   C25   A    
Cr6   O9    S    
Cr2   O25   S    
C73   H33   S    
C41   C42   A    
C20   C61   S    
C24   H2    S    
C24   C29   A    
Cr3   O25   S    
Cr5   O28   S    
C36   H13   S    
C57   H29   S    
Cr2   O19   S    
C25   H4    S    
C41   C46   S    
C70   C71   S    
C51   C57   S    
C34   H1    S    
C32   C38   A    
C43   C48   A    
C53   H22   S    
C26   H6    S    
C18   H48   S    
Cr2   O13   S    
C46   H18   S    
H43   O22   S    
Cr6   O3    S    
C30   C63   S    
Cr4   O11   S    
C67   H15   S    
C63   O9    A    
Cr3   O23   S    
C27   H8    S    
Cr3   O24   S    
C21   C22   A    
C50   C51   A    
Cr2   O12   S    
Cr1   O18   S    
C23   C60   S    
Cr6   O2    S    
C13   C19   A    
C17   O20   S    
C14   H44   S    
C24   C25   A    
C3    C8    S    
C60   O2    A    
C51   C58   A    
C59   O27   A    
Cr4   O26   S    
C32   C37   S    
C66   H30   S    
C47   H20   S    
C37   H16   S    
C55   H27   S    
C68   H31   S    
C64   C66   A    
C62   O7    A    
C43   C44   A    
Cr3   O15   S    
C3    C9    A    
C33   H9    S    
C18   H47   S    
C44   H17   S    
Cr1   O25   S    
C31   C32   A    
C70   H39   S    
C52   O24   A    
C1    C29   S    
C17   C18   S    
C34   C45   A    
C42   C48   A    
C6    H23   S    
C60   O29   A    
C27   H7    S    
C16   O1    A    
Cr4   O6    S    
C6    C7    A    
C53   C58   A    
C65   O10   A    
C13   C18   S    
C36   H11   S    
C49   C50   A    
C72   O22   S    
C22   C27   S    
C55   C57   S    
C9    C34   A    
C56   C67   A    
Cr5   O7    S    
Cr1   O4    S    
C39   C62   S    
C46   C47   S    
C11   C17   S    
C28   O19   A    
C31   C36   S    
C14   C19   A    
C71   H41   S    
C50   C55   S    
C12   C45   S    
Cr5   O29   S    
C59   O28   A    
C64   H26   S    
C39   C44   A    
C28   C58   S    
Cr6   O11   S    
C30   C35   A    
C28   O18   A    
C33   C38   A    
C63   O8    A    
C62   O6    A    
C46   H19   S    
C2    C3    A    
Cr3   O16   S    
C38   C40   S    
C11   C13   A    
C5    C6    A    
C70   H38   S    
C16   C19   S    
Cr6   O10   S    
C40   O12   A    
C69   H37   S    
C33   C35   A    
C37   H14   S    
C10   C59   S    
C42   C47   S    
C69   C70   S    
Cr4   O27   S    
Cr4   O5    S    
C5    H12   S    
C1    O13   A    
C10   C11   A    
C61   O3    A    
C35   H10   S    
Cr1   O1    S    
C48   C52   S    
C57   H28   S    
C20   C21   A    
C40   O23   A    
C72   O21   D    
C15   H45   S    
C2    C23   A    
C69   O20   S    
C64   C74   A    
C14   C15   A    
C4    C9    S    
C12   C73   A    
C56   H32   S    
C65   O5    A    
C49   C54   A    
Cr2   O14   S    
