data_mof_unit_7632.cif
_audit_creation_date              2012-12-10T19:55:02-0500
_audit_creation_method            fapswitch 2.2
_symmetry_space_group_name_H-M    P1
_symmetry_Int_Tables_number       1
_space_group_crystal_system       triclinic
_cell_length_a                    14.139386
_cell_length_b                    15.012431
_cell_length_c                    15.655235
_cell_angle_alpha                 90.059169
_cell_angle_beta                  86.866256
_cell_angle_gamma                 90.686956
_cell_volume                      3317.87492255

loop_
_atom_site_label
_atom_site_type_symbol
_atom_type_description
_atom_site_fract_x
_atom_site_fract_y
_atom_site_fract_z
_atom_type_partial_charge
C1    C     C_R   0.500556 0.671802 0.499024 0.881089
C2    C     C_R   0.416004 0.181143 0.489198 0.325512
C3    C     C_R   0.553674 0.909483 0.442919 0.406390
C4    C     C_R   0.420765 0.087871 0.488043 0.305590
C5    C     C_R   0.503965 0.950020 0.512688 0.043514
C6    C     C_R   0.502530 0.046393 0.514889 0.084292
C7    C     C_R   0.898068 0.568191 0.533817 0.017407
C8    C     C_R   0.100438 0.434003 0.546441 -0.095987
C9    C     C_R   0.797672 0.565690 0.539999 0.519564
C10   C     C_R   0.201849 0.439170 0.549138 0.569852
C11   C     C_R   0.794749 0.435748 0.454022 -0.212957
C12   C     C_R   0.499268 0.327283 0.501559 0.964600
C13   C     C_R   0.209588 0.553535 0.444360 -0.249455
C14   C     C_R   0.895090 0.432945 0.448710 0.325746
C15   C     C_R   0.110464 0.550876 0.437893 0.338029
C16   C     C_R   0.488416 0.500755 0.656484 0.935578
C17   C     C_R   0.512003 0.499536 0.342751 0.914228
C18   C     C_R   0.947779 0.498406 0.490911 0.067062
C19   C     C_R   0.054463 0.493044 0.491111 0.106997
C20   C     C_R   0.487492 0.483359 0.749047 -0.157523
C21   C     C_R   0.522670 0.490260 0.247602 -0.206168
C22   C     C_R   0.539441 0.539884 0.801581 0.062832
C23   C     C_R   0.448449 0.899715 0.573604 0.162729
C24   C     C_R   0.461100 0.437390 0.198929 0.054188
C25   C     C_R   0.583941 0.502925 0.872908 0.116642
C26   C     C_R   0.494976 0.404684 0.117099 0.139015
C27   C     C_R   0.573607 0.409598 0.890248 -0.030294
C28   C     C_R   0.592019 0.418667 0.089451 -0.028414
C29   C     C_R   0.510148 0.357025 0.842182 0.068393
C30   C     C_R   0.648951 0.478344 0.136303 0.069007
C31   C     C_R   0.462131 0.397213 0.775441 0.362603
C32   C     C_R   0.608017 0.522462 0.208646 0.375375
C33   C     C_2   0.643252 0.360269 0.940700 0.288495
C34   C     C_R   0.584274 0.095968 0.534057 0.151754
C35   C     C_2   0.642753 0.356132 0.028692 0.288861
C36   C     C_3   0.547500 0.638449 0.777132 -0.388565
C37   C     C_3   0.451646 0.683931 0.789548 -0.889411
C38   C     C_3   0.362873 0.411095 0.236425 -0.412401
C39   C     C_3   0.365729 0.325727 0.289168 -0.715468
C40   C     C_3   0.949953 0.646538 0.572796 -0.308889
C41   C     C_3   0.983027 0.625139 0.661394 -0.890128
C42   C     C_3   0.042923 0.365289 0.599860 -0.369955
C43   C     C_3   0.038719 0.386812 0.695487 -0.887953
C44   C     C_3   0.501208 0.255997 0.854517 -0.373047
C45   C     C_R   0.448787 0.807867 0.566139 -0.310267
C46   C     C_3   0.544863 0.205107 0.777763 -0.797764
C47   C     C_3   0.755921 0.488924 0.116361 -0.395787
C48   C     C_3   0.812885 0.452085 0.188556 -0.723676
C49   C     C_3   0.429897 0.349994 0.062830 -0.389001
C50   C     C_3   0.367500 0.409881 0.010922 -0.883240
C51   C     C_3   0.649038 0.560757 0.924153 -0.388225
C52   C     C_3   0.593283 0.620969 0.987288 -0.859793
C53   C     C_3   0.384768 0.940888 0.644158 -0.352818
C54   C     C_3   0.440539 0.982273 0.714887 -0.931629
C55   C     C_3   0.678168 0.053599 0.553375 -0.354506
C56   C     C_R   0.580647 0.188093 0.528675 -0.345151
C57   C     C_3   0.675875 0.008070 0.640433 -0.895170
C58   C     C_R   0.501383 0.766903 0.499766 -0.196091
C59   C     C_R   0.498045 0.230665 0.506154 -0.153030
C60   C     C_R   0.553245 0.816517 0.436350 0.331289
H1    H     H_    0.754121 0.386131 0.421179 0.166540
H2    H     H_    0.382126 0.267676 0.247273 0.232984
H3    H     H_    0.420676 0.330485 0.336701 0.260764
H4    H     H_    0.295726 0.314040 0.323191 0.272159
H5    H     H_    0.330996 0.465992 0.274991 0.225231
H6    H     H_    0.311075 0.401276 0.186942 0.211330
H7    H     H_    0.923849 0.596429 0.702554 0.273973
H8    H     H_    0.042891 0.578150 0.656412 0.264059
H9    H     H_    0.008384 0.687182 0.691833 0.253272
H10   H     H_    0.011360 0.668440 0.530783 0.220876
H11   H     H_    0.903700 0.705778 0.578197 0.252758
H12   H     H_    0.253131 0.597930 0.404004 0.162272
H13   H     H_    0.108643 0.408444 0.717484 0.273542
H14   H     H_    0.986585 0.440038 0.709866 0.267892
H15   H     H_    0.014812 0.326715 0.732301 0.261273
H16   H     H_    0.968958 0.359044 0.580854 0.231930
H17   H     H_    0.072535 0.297930 0.588197 0.203554
H18   H     H_    0.689331 0.607633 0.606387 0.365506
H19   H     H_    0.213874 0.334313 0.622567 0.333626
H20   H     H_    0.896027 0.326839 0.377462 0.333170
H21   H     H_    0.115604 0.640936 0.348453 0.334577
H22   H     H_    0.694223 0.624426 0.206269 0.343479
H23   H     H_    0.408191 0.767381 0.612705 0.170640
H24   H     H_    0.365462 0.305659 0.762774 0.334093
H25   H     H_    0.762758 0.294005 0.034918 0.345183
H26   H     H_    0.709001 0.248502 0.917963 0.345590
H27   H     H_    0.617462 0.230417 0.760339 0.291024
H28   H     H_    0.501152 0.210672 0.721367 0.272540
H29   H     H_    0.549416 0.133693 0.794946 0.231254
H30   H     H_    0.536675 0.232148 0.911250 0.207902
H31   H     H_    0.426028 0.235661 0.866977 0.177384
H32   H     H_    0.800843 0.491195 0.248232 0.283116
H33   H     H_    0.792894 0.381429 0.201553 0.272881
H34   H     H_    0.642972 0.227086 0.542568 0.191520
H35   H     H_    0.889655 0.455564 0.169531 0.240140
H36   H     H_    0.780889 0.454181 0.057188 0.207747
H37   H     H_    0.775498 0.559719 0.104288 0.185325
H38   H     H_    0.328815 0.368693 0.964977 0.250391
H39   H     H_    0.314822 0.445761 0.052582 0.256500
H40   H     H_    0.410902 0.460532 0.974721 0.263399
H41   H     H_    0.470768 0.306371 0.018944 0.189440
H42   H     H_    0.385277 0.302586 0.101845 0.215135
H43   H     H_    0.538947 0.581938 0.025447 0.258539
H44   H     H_    0.642465 0.652620 0.031498 0.245888
H45   H     H_    0.399977 0.654385 0.746360 0.253807
H46   H     H_    0.556922 0.674663 0.954087 0.267819
H47   H     H_    0.696974 0.519930 0.959905 0.190888
H48   H     H_    0.698317 0.600572 0.881432 0.201066
H49   H     H_    0.489304 0.932848 0.740738 0.268234
H50   H     H_    0.480956 0.041158 0.690195 0.272286
H51   H     H_    0.390852 0.004715 0.767725 0.261610
H52   H     H_    0.338252 0.991662 0.617715 0.240247
H53   H     H_    0.336284 0.889562 0.674153 0.202183
H54   H     H_    0.652746 0.055382 0.691590 0.265588
H55   H     H_    0.628482 0.948771 0.641603 0.271755
H56   H     H_    0.423439 0.676770 0.856825 0.271208
H57   H     H_    0.748136 0.985243 0.653288 0.261285
H58   H     H_    0.700042 0.004986 0.503061 0.243691
H59   H     H_    0.735662 0.104846 0.552496 0.203934
H60   H     H_    0.579176 0.715195 0.360056 0.365532
H61   H     H_    0.278562 0.186262 0.492460 0.338244
H62   H     H_    0.630702 0.926647 0.335881 0.389103
H63   H     H_    0.313507 0.070010 0.416699 0.351050
H64   H     H_    0.459869 0.755962 0.774424 0.253549
H65   H     H_    0.598944 0.676774 0.813319 0.225578
H66   H     H_    0.573123 0.645987 0.709389 0.197039
N1    N     N_R   0.747530 0.500020 0.500000 -0.150876
N2    N     N_R   0.252470 0.499980 0.500000 -0.119553
O1    O     O_R   0.420520 0.630930 0.499990 -0.623973
O2    O     O_3   0.253140 0.384348 0.599656 -0.675727
O3    O     O_3   0.942869 0.367010 0.403167 -0.755836
O4    O     O_3   0.066753 0.604412 0.380523 -0.757709
O5    O     O_3   0.655033 0.590294 0.249306 -0.752673
O6    O     O_3   0.400222 0.350234 0.726404 -0.732293
O7    O     O_3   0.701592 0.297987 0.068652 -0.759327
O8    O     O_3   0.704058 0.307642 0.890610 -0.767629
O9    O     O_3   0.601472 0.777300 0.367025 -0.752230
O10   O     O_3   0.333183 0.224611 0.473364 -0.757655
O11   O     O_3   0.598201 0.963395 0.380738 -0.771615
O12   O     O_R   0.579480 0.369070 0.500010 -0.650804
O13   O     O_3   0.348618 0.035273 0.458115 -0.785241
O14   O     O_R   0.579480 0.630940 0.499990 -0.591039
O15   O     O_R   0.420520 0.369060 0.500010 -0.493496
O16   O     O_R   0.411130 0.500010 0.615800 -0.525107
O17   O     O_R   0.588870 0.499990 0.384200 -0.549296
O18   O     O_R   0.570080 0.500020 0.615800 -0.655802
O19   O     O_R   0.429920 0.499980 0.384200 -0.631039
O20   O     O_3   0.751998 0.630993 0.587380 -0.780258
Zn1   Zn    Zn3+2 0.393860 0.499990 0.500000 1.009209
Zn2   Zn    Zn3+2 0.606140 0.500010 0.500000 0.970008

loop_
_geom_bond_atom_site_label_1
_geom_bond_atom_site_label_2
_ccdc_geom_bond_type
C43   H13   S    
C52   H43   S    
C34   C56   A    
C23   C45   A    
C40   H11   S    
C27   C29   A    
C14   C18   A    
C17   O17   A    
C36   H65   S    
C25   C51   S    
C57   H55   S    
C37   H56   S    
C55   H59   S    
C53   C54   S    
C27   C33   S    
C56   H34   S    
C39   H4    S    
H24   O6    S    
C50   H39   S    
C9    N1    A    
C40   H10   S    
C41   H9    S    
C36   C37   S    
C17   O19   A    
C24   C26   A    
H62   O11   S    
C15   C19   A    
C1    O1    A    
C39   H3    S    
N1    Zn2   S    
C49   H41   S    
C32   O5    S    
C11   C14   A    
C58   C60   A    
C54   H50   S    
C16   O18   A    
C18   C19   S    
C1    O14   A    
O18   Zn2   S    
C12   C59   S    
C15   O4    S    
C38   H6    S    
C28   C35   S    
C53   H53   S    
C51   H48   S    
C22   C25   A    
C24   C38   S    
C7    C40   S    
C12   O12   A    
C51   H47   S    
O17   Zn2   S    
H18   O20   S    
C60   O9    S    
C3    C60   A    
C43   H14   S    
C52   H46   S    
C34   C55   S    
H20   O3    S    
C13   N2    A    
C45   H23   S    
C31   O6    S    
C10   N2    A    
C44   C46   S    
C23   C53   S    
C41   H8    S    
C46   H28   S    
C14   O3    S    
C43   H15   S    
C38   C39   S    
C21   C32   A    
C45   C58   A    
C50   H38   S    
C8    C19   A    
C48   H33   S    
C51   C52   S    
C2    O10   S    
C30   C47   S    
C41   H7    S    
C26   C49   S    
C35   O7    S    
C4    O13   S    
C46   H29   S    
C2    C59   A    
H21   O4    S    
C3    C5    A    
C37   H45   S    
H19   O2    S    
C47   H36   S    
C17   C21   S    
C6    C34   A    
C54   H49   S    
H61   O10   S    
C11   N1    A    
C10   O2    S    
O1    Zn1   S    
O16   Zn1   S    
C37   H64   S    
C47   C48   S    
C5    C23   A    
C38   H5    S    
C16   C20   S    
C7    C18   A    
H63   O13   S    
C44   H31   S    
H25   O7    S    
C53   H52   S    
C4    C6    A    
C40   C41   S    
C20   C22   A    
C55   C57   S    
C29   C44   S    
C48   H35   S    
C3    O11   S    
C42   C43   S    
O12   Zn2   S    
C49   H42   S    
C44   H30   S    
C57   H57   S    
C46   H27   S    
H26   O8    S    
C7    C9    A    
C39   H2    S    
C52   H44   S    
C16   O16   A    
C42   H16   S    
C36   H66   S    
C8    C42   S    
C11   H1    S    
C12   O15   A    
C57   H54   S    
C13   H12   S    
C25   C27   A    
C22   C36   S    
C9    O20   S    
C26   C28   A    
C47   H37   S    
C56   C59   A    
O14   Zn2   S    
H22   O5    S    
C13   C15   A    
C29   C31   A    
C1    C58   S    
C30   C32   A    
C33   O8    S    
C5    C6    S    
C2    C4    A    
C28   C30   A    
C33   C35   D    
C54   H51   S    
O19   Zn1   S    
C50   H40   S    
N2    Zn1   S    
O15   Zn1   S    
C42   H17   S    
C8    C10   A    
C49   C50   S    
C48   H32   S    
C21   C24   A    
H60   O9    S    
C55   H58   S    
C20   C31   A    
