data_mof_unit_49695.cif
_audit_creation_date              2013-03-05T16:14:05-0500
_audit_creation_method            fapswitch 2.2
_symmetry_space_group_name_H-M    P1
_symmetry_Int_Tables_number       1
_space_group_crystal_system       triclinic
_cell_length_a                    9.874715
_cell_length_b                    10.66136
_cell_length_c                    16.693908
_cell_angle_alpha                 89.268722
_cell_angle_beta                  95.328907
_cell_angle_gamma                 88.635239
_cell_volume                      1749.20908873

loop_
_atom_site_label
_atom_site_type_symbol
_atom_site_description
_atom_site_fract_x
_atom_site_fract_y
_atom_site_fract_z
_atom_type_partial_charge
O1    O     O_R   0.614620 0.316750 0.500010 -0.587843
O2    O     O_R   0.385380 0.683250 0.499990 -0.588045
O3    O     O_R   0.385290 0.316780 0.500000 -0.606917
O4    O     O_R   0.614710 0.683220 0.500000 -0.606825
C1    C     C_R   0.500944 0.260311 0.497664 0.948220
C2    C     C_R   0.499055 0.739689 0.502341 0.948471
O5    O     O_R   0.627460 0.498830 0.616130 -0.523824
O6    O     O_R   0.372540 0.501170 0.383870 -0.523389
O7    O     O_R   0.398130 0.498850 0.616130 -0.644330
O8    O     O_R   0.601870 0.501150 0.383870 -0.644324
C3    C     C_R   0.518743 0.503478 0.653988 0.932138
C4    C     C_R   0.481257 0.496521 0.346012 0.932443
Zn1   Zn    Zn3+2 0.653130 0.499980 0.500000 1.074296
Zn2   Zn    Zn3+2 0.346870 0.500020 0.500000 1.074192
C5    C     C_R   0.529294 0.525309 0.740971 -0.178125
C6    C     C_R   0.470705 0.474707 0.259028 -0.178223
C7    C     C_R   0.408359 0.556221 0.775456 -0.219648
C8    C     C_R   0.591641 0.443820 0.224536 -0.219560
C9    C     C_R   0.408187 0.574068 0.857639 0.174891
C10   C     C_R   0.591809 0.425994 0.142352 0.174883
C11   C     C_R   0.531020 0.556770 0.906688 0.265546
C12   C     C_R   0.468971 0.443293 0.093306 0.265560
C13   C     C_R   0.652932 0.534444 0.872974 -0.270473
C14   C     C_R   0.347060 0.465595 0.127025 -0.270494
C15   C     C_R   0.654389 0.519970 0.790232 0.333547
C16   C     C_R   0.345607 0.480043 0.209769 0.333585
N1    N     N_2   0.531991 0.546638 0.990342 -0.162020
N2    N     N_2   0.467992 0.453432 0.009653 -0.162027
H1    H     H_    0.687640 0.433624 0.261464 0.207963
H2    H     H_    0.312363 0.566420 0.738527 0.207911
H3    H     H_    0.746819 0.523989 0.911870 0.187787
H4    H     H_    0.253169 0.476049 0.088133 0.187776
C17   C     C_R   0.410961 0.064919 0.441686 0.308649
C18   C     C_R   0.589020 0.935083 0.558333 0.308728
C19   C     C_R   0.407849 0.936047 0.447712 -0.214326
C20   C     C_R   0.592114 0.063958 0.552317 -0.213656
H5    H     H_    0.341259 0.885103 0.405176 0.239524
H6    H     H_    0.658675 0.114909 0.594865 0.239428
C21   C     C_R   0.496597 0.872198 0.504806 -0.208580
C22   C     C_R   0.503391 0.127803 0.495209 -0.208319
C23   C     C_R   0.062911 0.600471 0.469208 0.383217
C24   C     C_R   0.937067 0.399533 0.530764 0.383678
C25   C     C_R   0.919647 0.599883 0.469846 -0.141512
C26   C     C_R   0.080331 0.400111 0.530155 -0.141649
H7    H     H_    0.858364 0.678931 0.444856 0.196155
H8    H     H_    0.141571 0.321015 0.555112 0.195705
N3    N     N_R   0.857210 0.499970 0.500020 -0.156849
N4    N     N_R   0.142790 0.500030 0.499980 -0.156637
C27   C     C_3   0.724255 0.391486 0.109040 -0.772895
H9    H     H_    0.710449 0.367905 0.044318 0.248422
H10   H     H_    0.794966 0.470747 0.116985 0.258636
H11   H     H_    0.771322 0.307776 0.141883 0.255850
C28   C     C_3   0.275742 0.608595 0.890945 -0.772957
H12   H     H_    0.289545 0.632183 0.955666 0.248442
H13   H     H_    0.228686 0.692306 0.858097 0.255806
H14   H     H_    0.205022 0.529341 0.883002 0.258644
N5    N     N_R   0.782854 0.497763 0.758722 0.237871
O9    O     O_R   0.865506 0.410952 0.791692 -0.352753
O10   O     O_R   0.831250 0.583434 0.713887 -0.297845
N6    N     N_R   0.217145 0.502219 0.241286 0.237939
O11   O     O_R   0.134508 0.589078 0.208362 -0.352730
O12   O     O_R   0.168747 0.416512 0.286093 -0.297739
N7    N     N_R   0.325374 0.129579 0.379260 0.228401
O13   O     O_R   0.374730 0.217822 0.336942 -0.389270
O14   O     O_R   0.205455 0.087705 0.356301 -0.288793
N8    N     N_R   0.674616 0.870422 0.620755 0.228374
O15   O     O_R   0.625275 0.782160 0.663064 -0.389365
O16   O     O_R   0.794525 0.912313 0.643720 -0.289054
N9    N     N_R   0.122017 0.706818 0.434545 0.213425
O17   O     O_R   0.082289 0.819249 0.452957 -0.345661
O18   O     O_R   0.187909 0.692494 0.371345 -0.333561
N10   N     N_R   0.877869 0.293115 0.565241 0.213450
O19   O     O_R   0.915955 0.180787 0.545720 -0.345704
O20   O     O_R   0.813117 0.306931 0.628918 -0.333633

loop_
_geom_bond_atom_site_label_1
_geom_bond_atom_site_label_2
_geom_bond_distance
_ccdc_geom_bond_type
C17   C22   1.404935 A    
O5    Zn1   1.978293 S    
C19   C21   1.392730 A    
O7    Zn2   1.957446 S    
C14   H4    1.083965 S    
C5    C7    1.407110 A    
C10   C27   1.507483 S    
C25   H7    1.081813 S    
C23   C25   1.415876 A    
C28   H13   1.110640 S    
C8    C10   1.387632 A    
C17   N7    1.437308 S    
O6    C4    1.295635 A    
C27   H11   1.110639 S    
C18   N8    1.437307 S    
C27   H10   1.110399 S    
N7    O14   1.301427 A    
N8    O15   1.300202 A    
C11   N1    1.398427 S    
C8    H1    1.084109 S    
C12   N2    1.398427 S    
C28   H12   1.109240 S    
C20   H6    1.082473 S    
O5    C3    1.295631 A    
C7    H2    1.084109 S    
O7    C3    1.297756 A    
C9    C28   1.507487 S    
N5    O9    1.301248 A    
O2    C2    1.283831 A    
O3    Zn2   1.981196 S    
C24   C26   1.415833 A    
N10   O19   1.301182 A    
O1    C1    1.283841 A    
O8    C4    1.297752 A    
C6    C8    1.407101 A    
Zn1   N3    2.015198 S    
C9    C11   1.405959 A    
C23   N4    1.379571 A    
C14   C16   1.393190 A    
C18   C20   1.377643 A    
C24   N3    1.379280 A    
C11   C13   1.392225 A    
C6    C16   1.418516 A    
N9    O17   1.301765 A    
O2    Zn2   1.999020 S    
C12   C14   1.392221 A    
N5    O10   1.301010 A    
O4    C2    1.282352 A    
C16   N6    1.433431 S    
N8    O16   1.301423 A    
C7    C9    1.387633 A    
N7    O13   1.300207 A    
C15   N5    1.433451 S    
C4    C6    1.468077 S    
C20   C22   1.392717 A    
C13   C15   1.393197 A    
O1    Zn1   1.999022 S    
C19   H5    1.082459 S    
C5    C15   1.418521 A    
N10   O20   1.298582 A    
C27   H9    1.109239 S    
C28   H14   1.110401 S    
N1    N2    1.245120 D    
N9    O18   1.298731 A    
C2    C21   1.413547 S    
N6    O11   1.301245 A    
Zn2   N4    2.015198 S    
O6    Zn2   1.978293 S    
C17   C19   1.377635 A    
C24   N10   1.427459 S    
C1    C22   1.413529 S    
C23   N9    1.427777 S    
C3    C5    1.468080 S    
C18   C21   1.404939 A    
C26   H8    1.081817 S    
N6    O12   1.301004 A    
C26   N4    1.358029 A    
O4    Zn1   1.981194 S    
C10   C12   1.405965 A    
C25   N3    1.357879 A    
O3    C1    1.282331 A    
O8    Zn1   1.957446 S    
C13   H3    1.083967 S    
