data_mof_unit_58901.cif
_audit_creation_date              2012-12-10T17:21:16-0500
_audit_creation_method            fapswitch 2.2
_symmetry_space_group_name_H-M    P1
_symmetry_Int_Tables_number       1
_space_group_crystal_system       triclinic
_cell_length_a                    9.615926
_cell_length_b                    10.872658
_cell_length_c                    13.865684
_cell_angle_alpha                 94.110124
_cell_angle_beta                  85.198614
_cell_angle_gamma                 89.364754
_cell_volume                      1440.65132007

loop_
_atom_site_label
_atom_site_type_symbol
_atom_type_description
_atom_site_fract_x
_atom_site_fract_y
_atom_site_fract_z
_atom_type_partial_charge
C1    C     C_R   0.498870 0.737512 0.494646 0.822191
C2    C     C_1   0.464682 0.501437 0.785987 -0.188872
C3    C     C_R   0.231222 0.890100 0.496505 -0.158860
C4    C     C_R   0.110106 0.954602 0.533576 -0.175428
C5    C     C_R   0.119233 0.071620 0.579153 -0.138440
C6    C     C_R   0.248161 0.128442 0.579539 -0.131169
C7    C     C_R   0.370551 0.068021 0.534247 0.092271
C8    C     C_R   0.365322 0.941166 0.506071 0.038522
C9    C     C_R   0.493938 0.872370 0.488720 -0.230984
C10   C     C_R   0.620909 0.935778 0.476166 0.461317
C11   C     C_R   0.620720 0.063474 0.488254 -0.318444
C12   C     C_R   0.477665 0.500901 0.682819 0.812825
C13   C     C_R   0.497191 0.130342 0.514898 -0.189383
C14   C     C_R   0.864569 0.322603 0.383701 -0.106379
C15   C     C_R   0.932003 0.218274 0.341166 -0.277583
C16   C     C_R   0.072985 0.207672 0.342826 -0.224818
C17   C     C_R   0.149870 0.305378 0.381168 0.234783
C18   C     C_R   0.081121 0.407358 0.442441 0.168812
C19   C     C_R   0.931185 0.410985 0.442756 0.062400
C20   C     C_R   0.917326 0.583702 0.557422 0.569946
C21   C     C_R   0.067027 0.585225 0.554174 -0.220743
C22   C     C_R   0.499308 0.263669 0.507643 0.805613
C23   C     C_R   0.522435 0.500510 0.317250 0.795906
C24   C     C_1   0.535783 0.502123 0.214217 -0.187525
C25   C     C_2   0.558187 0.505329 0.023913 -0.168553
C26   C     C_2   0.443141 0.501980 0.976522 -0.160854
C27   C     C_1   0.454027 0.501827 0.872872 0.002534
C28   C     C_1   0.547040 0.503711 0.127461 -0.000608
Cu1   Cu    Cu3+1 0.359340 0.500010 0.500010 0.941369
Cu2   Cu    Cu3+1 0.640660 0.499990 0.499990 0.973383
H1    H     H_    0.340344 0.498566 0.015225 0.154816
H2    H     H_    0.759389 0.328685 0.367472 0.207286
H3    H     H_    0.875699 0.148991 0.300883 0.144280
H4    H     H_    0.125458 0.129537 0.301585 0.144713
H5    H     H_    0.120035 0.655299 0.595337 0.156160
H6    H     H_    0.661000 0.508529 0.985258 0.159607
H7    H     H_    0.215630 0.803601 0.456316 0.171568
H8    H     H_    0.009175 0.912860 0.528005 0.184102
H9    H     H_    0.025886 0.120040 0.611472 0.139662
H10   H     H_    0.250748 0.219098 0.616748 0.151662
H11   H     H_    0.718850 0.110021 0.475689 0.184985
N1    N     N_R   0.852210 0.498790 0.499090 -0.233307
N2    N     N_R   0.148080 0.498710 0.499060 -0.207070
O1    O     O_R   0.381190 0.680360 0.500010 -0.607239
O2    O     O_R   0.618760 0.680340 0.500000 -0.480541
O3    O     O_R   0.364420 0.499990 0.637850 -0.578576
O4    O     O_R   0.601990 0.499960 0.637840 -0.552405
O5    O     O_R   0.381240 0.319660 0.500000 -0.566067
O6    O     O_R   0.618810 0.319640 0.499990 -0.604899
O7    O     O_R   0.398010 0.500040 0.362160 -0.539574
O8    O     O_R   0.635580 0.500010 0.362150 -0.615921
N3    N     N_3   0.289841 0.304656 0.339101 -0.506361
H12   H     H_    0.335971 0.217728 0.343552 0.194303
H13   H     H_    0.287529 0.317477 0.265116 0.193669
O9    O     O_3   0.747392 0.873101 0.455832 -0.581696
C29   C     C_3   0.798994 0.883941 0.358048 0.009642
H14   H     H_    0.910596 0.909515 0.357527 0.162486
H15   H     H_    0.745249 0.956412 0.320810 0.114850
C30   C     C_3   0.788544 0.759734 0.300275 -0.278787
H16   H     H_    0.842509 0.687165 0.336552 0.241498
H17   H     H_    0.676816 0.735745 0.298301 0.203924
C31   C     C_3   0.853897 0.763474 0.196420 -0.944983
H18   H     H_    0.800090 0.834149 0.158230 0.255201
H19   H     H_    0.843483 0.672121 0.156648 0.263969
H20   H     H_    0.966509 0.785223 0.196305 0.254783
O10   O     O_3   0.832673 0.670758 0.613818 -0.559642
C32   C     C_3   0.878719 0.703349 0.706642 0.035413
H21   H     H_    0.801971 0.772207 0.743330 0.178051
H22   H     H_    0.979311 0.752372 0.702093 0.122278
C33   C     C_3   0.881966 0.593357 0.770506 -0.375449
H23   H     H_    0.778258 0.549311 0.775060 0.240851
H24   H     H_    0.960992 0.523467 0.738624 0.206580
C34   C     C_3   0.917982 0.634601 0.872845 -0.917457
H25   H     H_    0.021829 0.678575 0.870345 0.262141
H26   H     H_    0.921297 0.553328 0.916793 0.251867
H27   H     H_    0.837784 0.701106 0.908474 0.256399

loop_
_geom_bond_atom_site_label_1
_geom_bond_atom_site_label_2
_ccdc_geom_bond_type
C22   O5    A    
Cu2   O8    S    
C34   H25   S    
Cu2   O2    S    
O9    C29   S    
C2    C12   S    
C7    C8    A    
C25   C28   S    
C26   C27   S    
Cu1   Cu2   S    
C20   O10   S    
C5    C6    A    
C15   C16   A    
C29   H14   S    
C18   C19   A    
C31   H19   S    
C16   H4    S    
C21   N2    A    
C16   C17   A    
C23   C24   S    
C2    C27   T    
C9    C10   A    
C19   N1    A    
O10   C32   S    
C30   H16   S    
Cu1   N2    S    
C34   H26   S    
C12   O4    A    
C17   N3    S    
N3    H13   S    
Cu1   O7    S    
C30   H17   S    
Cu1   O5    S    
C32   H21   S    
Cu2   O4    S    
C1    C9    S    
C12   O3    A    
C3    C8    A    
C8    C9    A    
C23   O7    A    
C25   C26   D    
C32   H22   S    
C31   H18   S    
C1    O1    A    
C23   O8    A    
C33   C34   S    
C17   C18   A    
C10   O9    S    
C33   H23   S    
C22   O6    A    
Cu2   O6    S    
C4    H8    S    
C5    H9    S    
Cu1   O1    S    
C34   H27   S    
C6    H10   S    
C3    C4    A    
N3    H12   S    
C30   C31   S    
C31   H20   S    
C26   H1    S    
C14   C19   A    
C24   C28   T    
C14   H2    S    
C4    C5    A    
C20   N1    A    
C6    C7    A    
C21   H5    S    
C29   C30   S    
Cu1   O3    S    
C32   C33   S    
C18   N2    A    
C11   C13   A    
C1    O2    A    
C29   H15   S    
C13   C22   S    
C11   H11   S    
C10   C11   A    
C25   H6    S    
C7    C13   A    
C20   C21   A    
C3    H7    S    
C14   C15   A    
Cu2   N1    S    
C33   H24   S    
C15   H3    S    
