data_mof_unit_57382.cif
_audit_creation_date              2012-12-10T16:51:19-0500
_audit_creation_method            fapswitch 2.2
_symmetry_space_group_name_H-M    P1
_symmetry_Int_Tables_number       1
_space_group_crystal_system       triclinic
_cell_length_a                    27.743052
_cell_length_b                    8.80592
_cell_length_c                    7.418094
_cell_angle_alpha                 102.934001
_cell_angle_beta                  93.848755
_cell_angle_gamma                 92.953158
_cell_volume                      1758.16910112

loop_
_atom_site_label
_atom_site_type_symbol
_atom_type_description
_atom_site_fract_x
_atom_site_fract_y
_atom_site_fract_z
_atom_type_partial_charge
C1    C     C_R   0.498919 0.200322 0.453754 0.857255
C2    C     C_R   0.869201 0.365953 0.449707 -0.156629
C3    C     C_R   0.354483 0.497581 0.509045 -0.136918
C4    C     C_R   0.645527 0.504419 0.490698 -0.137151
C5    C     C_R   0.971491 0.365279 0.481652 -0.040161
C6    C     C_R   0.028138 0.643837 0.490685 -0.038363
C7    C     C_R   0.977499 0.648312 0.503468 0.099229
C8    C     C_R   0.022548 0.368760 0.510642 0.098580
C9    C     C_R   0.949105 0.507024 0.488779 0.075451
C10   C     C_R   0.050737 0.506069 0.504706 0.075767
C11   C     C_R   0.942088 0.224528 0.441881 -0.301481
C12   C     C_R   0.501081 0.799678 0.546246 0.857183
C13   C     C_R   0.056835 0.771260 0.460377 -0.299165
C14   C     C_R   0.891819 0.224439 0.422460 0.661589
C15   C     C_R   0.106812 0.766422 0.455199 0.662182
C16   C     C_R   0.407427 0.499166 0.502833 0.832191
C17   C     C_R   0.592574 0.501096 0.497161 0.832190
C18   C     C_R   0.046391 0.240703 0.549243 -0.207128
C19   C     C_R   0.954356 0.789622 0.534452 -0.206592
C20   C     C_2   0.502196 0.034450 0.427913 -0.034418
C21   C     C_2   0.497803 0.965549 0.572087 -0.034321
C22   C     C_R   0.175424 0.374164 0.549790 0.628224
C23   C     C_R   0.101882 0.505355 0.512395 -0.130664
C24   C     C_R   0.825070 0.649078 0.505691 0.606628
C25   C     C_R   0.180695 0.630580 0.492825 0.623583
C26   C     C_R   0.818542 0.370587 0.445730 0.645947
C27   C     C_R   0.283131 0.509653 0.683400 0.686828
C28   C     C_R   0.716629 0.494092 0.315221 0.687998
C29   C     C_R   0.333346 0.510198 0.678440 -0.289605
C30   C     C_R   0.666418 0.490500 0.320629 -0.288016
C31   C     C_R   0.324537 0.483237 0.344767 -0.174485
C32   C     C_R   0.675735 0.522864 0.655139 -0.171049
C33   C     C_R   0.274471 0.482671 0.349979 -0.147434
C34   C     C_R   0.897969 0.507651 0.482025 -0.132391
C35   C     C_R   0.725849 0.526669 0.649408 -0.154375
C36   C     C_R   0.253598 0.496351 0.518968 0.203290
C37   C     C_R   0.746374 0.512039 0.479771 0.209707
C38   C     C_R   0.124782 0.373573 0.544069 -0.018470
C39   C     C_R   0.875675 0.650239 0.508444 -0.010636
C40   C     C_R   0.096671 0.244372 0.568786 -0.085296
C41   C     C_R   0.904363 0.790457 0.539990 -0.078676
C42   C     C_R   0.130044 0.635888 0.487481 -0.148932
Cu1   Cu    Cu3+1 0.505380 0.517380 0.684380 0.969498
Cu2   Cu    Cu3+1 0.494620 0.482620 0.315620 0.969347
F1    F     F_    0.736381 0.479344 0.150249 -0.658967
F2    F     F_    0.263239 0.524401 0.848108 -0.656952
F3    F     F_    0.865606 0.084986 0.375443 -0.614782
F4    F     F_    0.132061 0.889300 0.415474 -0.616823
H1    H     H_    0.339722 0.473099 0.212170 0.193080
H2    H     H_    0.355586 0.521196 0.807012 0.179330
H3    H     H_    0.957447 0.112347 0.416984 0.159683
H4    H     H_    0.040958 0.873339 0.431279 0.158933
H5    H     H_    0.026708 0.138991 0.572612 0.129655
H6    H     H_    0.974547 0.901450 0.563407 0.129089
H7    H     H_    0.484252 0.959298 0.150933 0.234586
H8    H     H_    0.544454 0.996818 0.210975 0.217963
H9    H     H_    0.515747 0.040701 0.849066 0.234822
H10   H     H_    0.455545 0.003179 0.789022 0.217491
H11   H     H_    0.660721 0.534052 0.788181 0.193340
H12   H     H_    0.462062 0.379036 0.948383 0.237942
H13   H     H_    0.537938 0.620963 0.051617 0.238066
H14   H     H_    0.251768 0.472452 0.222679 0.218729
H15   H     H_    0.748825 0.539874 0.776612 0.215329
H16   H     H_    0.113438 0.145185 0.602850 0.232957
H17   H     H_    0.888287 0.901667 0.569840 0.232355
H18   H     H_    0.644001 0.476524 0.191930 0.179603
N1    N     N_R   0.202115 0.500939 0.522831 -0.466135
N2    N     N_R   0.797818 0.510653 0.474984 -0.466131
N3    N     N_2   0.486510 0.456430 0.038510 -0.211596
N4    N     N_2   0.513490 0.543570 0.961490 -0.211512
N5    N     N_3   0.512380 0.947832 0.247065 -0.576665
N6    N     N_3   0.487619 0.052167 0.752934 -0.576768
O1    O     O_R   0.503500 0.286120 0.619780 -0.554111
O2    O     O_2   0.803200 0.784859 0.533329 -0.459872
O3    O     O_2   0.790083 0.236967 0.415659 -0.413708
O4    O     O_2   0.208533 0.753909 0.469568 -0.416185
O5    O     O_R   0.496500 0.713880 0.380220 -0.554227
O6    O     O_R   0.494410 0.256780 0.308360 -0.599070
O7    O     O_R   0.505590 0.743220 0.691640 -0.599091
O8    O     O_R   0.434810 0.514700 0.655690 -0.592580
O9    O     O_R   0.565190 0.485300 0.344310 -0.592559
O10   O     O_R   0.425720 0.485350 0.344280 -0.585681
O11   O     O_R   0.574280 0.514650 0.655720 -0.585409
O12   O     O_2   0.197804 0.248230 0.578820 -0.454443

loop_
_geom_bond_atom_site_label_1
_geom_bond_atom_site_label_2
_ccdc_geom_bond_type
H13   N4    S    
Cu1   O1    S    
C12   O7    A    
C27   C29   A    
Cu1   O11   S    
C25   N1    A    
C24   O2    S    
C24   C39   A    
C36   N1    S    
C39   C41   A    
C23   C42   A    
H12   N3    S    
Cu2   O5    S    
C35   C37   A    
C5    C11   A    
Cu2   O10   S    
C11   C14   A    
Cu1   O7    S    
C22   C38   A    
C37   N2    S    
C33   C36   A    
C3    C29   A    
C18   C40   A    
C18   H5    S    
C14   F3    S    
C33   H14   S    
C31   C33   A    
C20   N5    S    
C2    C34   A    
C1    O6    A    
C15   F4    S    
C31   H1    S    
C29   H2    S    
C28   F1    S    
C21   N6    S    
C34   C39   A    
C32   C35   A    
Cu2   O9    S    
C41   H17   S    
Cu1   O8    S    
C12   C21   S    
C8    C18   A    
C16   O8    A    
C22   O12   S    
Cu1   Cu2   S    
C5    C9    A    
C13   H4    S    
H8    N5    S    
C12   O5    A    
C16   O10   A    
C26   O3    S    
Cu2   N3    S    
C2    C26   A    
C30   H18   S    
C3    C31   A    
C4    C32   A    
C4    C17   S    
C27   F2    S    
Cu1   N4    S    
C7    C19   A    
C13   C15   A    
C9    C34   A    
C10   C23   A    
C19   H6    S    
C7    C9    A    
C1    C20   S    
C15   C42   A    
C25   C42   A    
C6    C10   A    
C5    C8    A    
C6    C7    A    
C27   C36   A    
C23   C38   A    
C40   H16   S    
C25   O4    S    
C1    O1    A    
C28   C30   A    
C26   N2    A    
C6    C13   A    
C38   C40   A    
H10   N6    S    
C28   C37   A    
Cu2   O6    S    
C17   O9    A    
H9    N6    S    
N3    N4    D    
C2    C14   A    
H7    N5    S    
C22   N1    A    
C11   H3    S    
C24   N2    A    
C20   C21   D    
C8    C10   A    
C35   H15   S    
C32   H11   S    
C17   O11   A    
C4    C30   A    
C3    C16   S    
C19   C41   A    
