data_mof_unit_33949.cif
_audit_creation_date              2012-12-11T14:33:56-0500
_audit_creation_method            fapswitch 2.2
_symmetry_space_group_name_H-M    P1
_symmetry_Int_Tables_number       1
_space_group_crystal_system       triclinic
_cell_length_a                    13.891986
_cell_length_b                    14.020076
_cell_length_c                    27.444968
_cell_angle_alpha                 89.750464
_cell_angle_beta                  90.27599
_cell_angle_gamma                 119.687375
_cell_volume                      4643.67087094

loop_
_atom_site_label
_atom_site_type_symbol
_atom_type_description
_atom_site_fract_x
_atom_site_fract_y
_atom_site_fract_z
_atom_type_partial_charge
C1    C     C_R   0.235492 0.785312 0.569595 0.549134
C2    C     C_R   0.214255 0.449703 0.569611 0.546464
C3    C     C_R   0.551038 0.764556 0.569419 0.544234
C4    C     C_3   0.692567 0.756827 0.787487 0.063041
C5    C     C_3   0.226370 0.952919 0.780501 0.060132
C6    C     C_3   0.032234 0.259958 0.778697 0.068567
C7    C     C_3   0.672299 0.747660 0.731654 -0.242976
C8    C     C_3   0.239363 0.932911 0.726119 -0.227908
C9    C     C_3   0.054393 0.298918 0.724828 -0.231915
C10   C     C_1   0.706867 0.865627 0.860422 0.035819
C11   C     C_1   0.113057 0.872156 0.853826 0.023387
C12   C     C_1   0.118826 0.235916 0.853337 0.029358
C13   C     C_1   0.619649 0.816690 0.660021 0.059679
C14   C     C_1   0.180762 0.801395 0.659590 0.004963
C15   C     C_1   0.192167 0.377711 0.659651 0.039778
C16   C     C_1   0.594995 0.795380 0.617708 0.055725
C17   C     C_1   0.203826 0.796983 0.617736 0.046585
C18   C     C_1   0.200634 0.405966 0.617735 0.046447
C19   C     C_R   0.069818 0.156500 0.096803 0.553554
C20   C     C_R   0.777536 0.884051 0.088276 0.574904
C21   C     C_R   0.116189 0.893270 0.088318 0.586663
C22   C     C_R   0.069820 0.161335 0.943310 0.513019
C23   C     C_R   0.780459 0.887615 0.950592 0.549404
C24   C     C_R   0.091314 0.928253 0.943175 0.507190
C25   C     C_R   0.601964 0.886278 0.359236 -0.093026
C26   C     C_R   0.102100 0.721889 0.361989 -0.090479
C27   C     C_R   0.276816 0.384117 0.361917 -0.092252
C28   C     C_R   0.622385 0.898899 0.309173 0.030019
C29   C     C_R   0.086264 0.729827 0.312045 0.030031
C30   C     C_R   0.261663 0.346030 0.314092 0.026489
C31   C     C_R   0.656919 0.916087 0.207280 0.055066
C32   C     C_R   0.069104 0.743682 0.209626 0.038742
C33   C     C_R   0.230105 0.277173 0.215767 0.035216
C34   C     C_R   0.232295 0.787773 0.431858 0.549226
C35   C     C_R   0.211773 0.444574 0.432042 0.551578
C36   C     C_R   0.554370 0.766733 0.431633 0.548282
C37   C     C_R   0.609988 0.973713 0.230441 0.279577
C38   C     C_R   0.001084 0.643250 0.234620 0.271413
C39   C     C_R   0.338707 0.332144 0.236702 0.274722
C40   C     C_R   0.599647 0.970426 0.281883 0.209943
C41   C     C_R   0.005282 0.639026 0.286219 0.211711
C42   C     C_R   0.353613 0.367491 0.285677 0.214044
C43   C     C_R   0.686137 0.929980 0.157004 0.186611
C44   C     C_R   0.059172 0.757674 0.158653 0.190376
C45   C     C_R   0.209189 0.237229 0.166998 0.203503
C46   C     C_R   0.724879 0.863589 0.136249 -0.045579
C47   C     C_R   0.134759 0.858407 0.136363 -0.042708
C48   C     C_R   0.100155 0.193659 0.147355 -0.044384
C49   C     C_R   0.656411 0.746792 0.363157 -0.111572
C50   C     C_R   0.253277 0.909582 0.363268 -0.109435
C51   C     C_R   0.081515 0.324680 0.368845 -0.112000
C52   C     C_R   0.678167 0.758721 0.313552 -0.002809
C53   C     C_R   0.239655 0.918855 0.313740 0.001483
C54   C     C_R   0.064191 0.284374 0.321513 -0.003357
C55   C     C_R   0.659219 0.833502 0.286020 -0.004986
C56   C     C_R   0.158022 0.827859 0.287440 -0.008000
C57   C     C_R   0.154711 0.296093 0.293502 -0.007224
C58   C     C_R   0.711433 0.691148 0.290878 -0.120872
C59   C     C_R   0.312707 0.015694 0.289888 -0.103429
C60   C     C_R   0.958909 0.240274 0.300922 -0.106882
C61   C     C_R   0.724579 0.695040 0.240435 0.244517
C62   C     C_R   0.309292 0.022691 0.239316 0.231199
C63   C     C_R   0.941753 0.208577 0.252063 0.250642
C64   C     C_R   0.708099 0.771227 0.213096 0.046989
C65   C     C_R   0.228606 0.931988 0.212890 0.043865
C66   C     C_R   0.030905 0.217212 0.224370 0.055839
C67   C     C_3   0.537436 0.818520 0.740532 0.095185
C68   C     C_3   0.178901 0.734542 0.745378 0.111025
C69   C     C_3   0.249731 0.441471 0.745589 0.093998
C70   C     C_R   0.675632 0.841194 0.235495 -0.069492
C71   C     C_R   0.150698 0.834686 0.236684 -0.072680
C72   C     C_R   0.138666 0.262637 0.244577 -0.071909
C73   C     C_R   0.726436 0.779839 0.163586 -0.109751
C74   C     C_R   0.223824 0.938680 0.162866 -0.109914
C75   C     C_R   0.013709 0.183721 0.176209 -0.125506
C76   C     C_R   0.612320 0.805686 0.385441 -0.018825
C77   C     C_R   0.190547 0.808905 0.386574 -0.020862
C78   C     C_R   0.188394 0.378480 0.388268 -0.016576
C79   C     C_3   0.736654 0.952106 0.725309 0.048251
C80   C     C_3   0.036566 0.784710 0.719516 0.058400
C81   C     C_3   0.211042 0.253823 0.720008 0.054311
C82   C     C_3   0.767986 0.959225 0.780160 -0.270531
C83   C     C_3   0.023660 0.819925 0.771680 -0.267747
C84   C     C_3   0.178568 0.206580 0.772359 -0.269127
C85   C     C_1   0.735028 0.874639 0.902520 0.023142
C86   C     C_1   0.103276 0.896820 0.894832 0.020847
C87   C     C_1   0.097894 0.202396 0.894573 0.017440
C88   C     C_3   0.641979 0.834202 0.712839 0.068738
C89   C     C_3   0.158503 0.812285 0.711144 0.030393
C90   C     C_3   0.177657 0.343432 0.711069 0.058284
C91   C     C_3   0.561767 0.832308 0.797008 0.156669
C92   C     C_3   0.156278 0.752855 0.799740 0.210806
C93   C     C_3   0.230328 0.400058 0.799973 0.170919
C94   C     C_3   0.681747 0.854322 0.807807 0.069881
C95   C     C_3   0.128468 0.848317 0.803004 0.048199
C96   C     C_3   0.140669 0.275466 0.802610 0.061731
Cr1   Cr    Cr6+3 0.164410 0.584450 0.499910 1.052897
Cr2   Cr    Cr6+3 0.415550 0.579960 0.499910 1.058322
Cr3   Cr    Cr6+3 0.420040 0.835590 0.499910 1.057355
Cr4   Cr    Cr6+3 0.155170 0.075460 0.019960 1.120917
Cr5   Cr    Cr6+3 0.924540 0.079710 0.019960 1.105358
Cr6   Cr    Cr6+3 0.920290 0.844830 0.019960 1.103805
H1    H     H_    0.467874 0.734424 0.733250 0.102938
H2    H     H_    0.266718 0.755067 0.742641 0.092157
H3    H     H_    0.223055 0.504101 0.741412 0.133522
H4    H     H_    0.502066 0.753371 0.814679 0.202278
H5    H     H_    0.233811 0.777579 0.820743 0.209512
H6    H     H_    0.198212 0.447383 0.819939 0.218515
H7    H     H_    0.778441 0.772790 0.794768 0.123996
H8    H     H_    0.207633 0.021171 0.783080 0.125294
H9    H     H_    0.969303 0.170949 0.779489 0.135057
H10   H     H_    0.568175 0.932095 0.376972 0.196682
H11   H     H_    0.052331 0.644586 0.380731 0.195753
H12   H     H_    0.359379 0.426174 0.377499 0.197666
H13   H     H_    0.751606 0.725875 0.146793 0.234614
H14   H     H_    0.285291 0.012310 0.144682 0.240587
H15   H     H_    0.931287 0.148429 0.160517 0.207234
H16   H     H_    0.724407 0.633246 0.312290 0.116385
H17   H     H_    0.375010 0.084785 0.310483 0.121380
H18   H     H_    0.890622 0.233776 0.322443 0.113220
H19   H     H_    0.665475 0.685249 0.383582 0.148903
H20   H     H_    0.320036 0.977890 0.382552 0.151712
H21   H     H_    0.012915 0.320126 0.389459 0.145913
H22   H     H_    0.707884 0.012113 0.718214 0.194326
H23   H     H_    0.980991 0.694480 0.716350 0.183431
H24   H     H_    0.302465 0.291781 0.716381 0.188644
H25   H     H_    0.773456 0.034228 0.796441 0.108776
H26   H     H_    0.947832 0.753256 0.789007 0.102244
H27   H     H_    0.249936 0.205422 0.790226 0.104679
H28   H     H_    0.851690 0.967812 0.784166 0.132774
H29   H     H_    0.011747 0.892723 0.769663 0.155292
H30   H     H_    0.110030 0.119933 0.770891 0.147257
H31   H     H_    0.604874 0.663697 0.722112 0.157347
H32   H     H_    0.326277 0.954104 0.718522 0.149219
H33   H     H_    0.031911 0.364038 0.718591 0.158499
H34   H     H_    0.748257 0.759304 0.712985 0.182262
H35   H     H_    0.223316 0.989187 0.703397 0.197834
H36   H     H_    0.000137 0.229906 0.700512 0.193418
O1    O     O_R   0.137150 0.468200 0.553200 -0.506815
O2    O     O_R   0.531800 0.668950 0.553200 -0.499421
O3    O     O_R   0.331050 0.862850 0.553200 -0.493848
O4    O     O_R   0.179100 0.982980 0.967000 -0.469948
O5    O     O_R   0.017020 0.196120 0.967000 -0.449018
O6    O     O_R   0.803880 0.820900 0.967000 -0.495468
O7    O     O_R   0.173970 0.688730 0.549930 -0.500051
O8    O     O_R   0.311270 0.485240 0.549930 -0.491098
O9    O     O_R   0.514760 0.826030 0.549930 -0.492070
O10   O     O_R   0.140110 0.470540 0.446010 -0.508339
O11   O     O_R   0.529460 0.669570 0.446010 -0.509429
O12   O     O_R   0.330430 0.859890 0.446010 -0.509951
O13   O     O_R   0.176710 0.690910 0.450560 -0.504158
O14   O     O_R   0.309090 0.485800 0.450560 -0.506025
O15   O     O_R   0.514200 0.823290 0.450560 -0.506041
O16   O     O_3   0.333333 0.666667 0.499990 -0.288193
O17   O     O_R   0.176750 0.985260 0.074180 -0.503834
O18   O     O_R   0.014740 0.191490 0.074180 -0.455310
O19   O     O_R   0.808510 0.823250 0.074180 -0.501186
O20   O     O_R   0.146100 0.172630 0.068980 -0.426751
O21   O     O_R   0.827370 0.973470 0.068980 -0.483020
O22   O     O_R   0.026530 0.853900 0.068980 -0.454394
O23   O     O_3   0.000000 0.000000 0.020040 -0.330315
O24   O     O_R   0.148270 0.170520 0.969620 -0.473788
O25   O     O_R   0.829480 0.977750 0.969620 -0.518780
O26   O     O_R   0.022250 0.851730 0.969620 -0.466250
O27   O     O_3   0.543052 0.913286 0.817983 -0.672136
H37   H     H_    0.591415 0.984138 0.801459 0.356354
O28   O     O_3   0.073952 0.655887 0.821932 -0.636661
H38   H     H_    0.004673 0.628279 0.802732 0.361260
O29   O     O_3   0.329077 0.421532 0.823908 -0.663682
H39   H     H_    0.363766 0.386123 0.805276 0.358052
Br1   Br    Br    0.680678 0.040452 0.116134 -0.315067
Br2   Br    Br    0.942715 0.645547 0.118754 -0.303266
Br3   Br    Br    0.326120 0.236858 0.128013 -0.296789
O30   O     O_3   0.570134 0.028711 0.202670 -0.614511
H40   H     H_    0.504122 0.022732 0.219023 0.351966
O31   O     O_3   0.936444 0.548614 0.208490 -0.618263
H41   H     H_    0.931145 0.484939 0.226653 0.346679
O32   O     O_3   0.430467 0.357166 0.208731 -0.609364
H42   H     H_    0.488954 0.357130 0.229499 0.344824
O33   O     O_3   0.566891 0.035794 0.306212 -0.742054
H43   H     H_    0.586123 0.101926 0.286310 0.332908
O34   O     O_3   0.932238 0.546487 0.312123 -0.729376
H44   H     H_    0.862329 0.506313 0.293378 0.330774
O35   O     O_3   0.458162 0.428503 0.305823 -0.735703
H45   H     H_    0.508153 0.479893 0.280710 0.341785
O36   O     O_3   0.753526 0.625549 0.217223 -0.652243
H46   H     H_    0.757173 0.574848 0.241490 0.339627
O37   O     O_3   0.384391 0.116892 0.215083 -0.658749
H47   H     H_    0.438969 0.168994 0.238792 0.332250
O38   O     O_3   0.839798 0.172823 0.230247 -0.674702
H48   H     H_    0.790269 0.181594 0.253448 0.337764
O39   O     O_3   0.506789 0.893836 0.722468 -0.722238
H49   H     H_    0.439396 0.880270 0.740145 0.348684
O40   O     O_3   0.111803 0.623853 0.731834 -0.702882
H50   H     H_    0.145820 0.611442 0.702556 0.314626
O41   O     O_3   0.361999 0.490324 0.732370 -0.724014
H51   H     H_    0.402463 0.556785 0.752819 0.350237
Br4   Br    Br    0.864325 0.002386 0.683511 -0.476368
Br5   Br    Br    0.982247 0.844511 0.669458 -0.437260
Br6   Br    Br    0.151884 0.138367 0.671122 -0.459706
O42   O     O_3   0.616902 0.658277 0.810686 -0.691384
H52   H     H_    0.640611 0.603788 0.803165 0.342923
O43   O     O_3   0.325155 0.982449 0.806137 -0.689548
H53   H     H_    0.378847 0.059160 0.796621 0.340329
O44   O     O_3   0.991175 0.318481 0.804656 -0.680284
H54   H     H_    0.913242 0.289560 0.793947 0.338101

loop_
_geom_bond_atom_site_label_1
_geom_bond_atom_site_label_2
_ccdc_geom_bond_type
C15   C18   T    
O43   H53   S    
Cr2   O16   S    
C10   C85   T    
C3    O9    A    
O38   H48   S    
C82   C94   S    
C81   H24   S    
C2    C18   S    
C51   H21   S    
O42   H52   S    
C1    O7    A    
C91   H4    S    
C83   H26   S    
C4    H7    S    
C27   C78   A    
C8    H35   S    
C39   O32   S    
C6    C9    S    
O32   H42   S    
C34   O12   A    
C67   H1    S    
Cr2   O14   S    
O44   H54   S    
C25   C28   A    
C93   O29   S    
C67   C88   S    
O27   H37   S    
C31   C43   A    
C60   C63   A    
C2    O1    A    
C7    H31   S    
C37   C40   A    
C69   C93   S    
C4    C7    S    
C93   H6    S    
C22   O24   A    
C36   O11   A    
C45   C48   A    
C80   H23   S    
C28   C40   A    
C11   C86   T    
C30   C57   A    
C84   H27   S    
C58   H16   S    
C33   C45   A    
O35   H45   S    
C84   C96   S    
C80   C89   S    
O34   H44   S    
C6    O44   S    
C36   C76   S    
C25   H10   S    
C68   C92   S    
C37   O30   S    
C40   O33   S    
C33   C39   A    
C31   C70   A    
C66   C72   A    
C24   O4    A    
C20   O21   A    
C75   H15   S    
C22   O5    A    
C64   C73   A    
Cr4   O23   S    
C32   C38   A    
C82   H28   S    
C33   C72   A    
C44   C47   A    
C56   C71   A    
C58   C61   A    
O40   H50   S    
C63   C66   A    
C83   C95   S    
C79   Br4   S    
C27   C30   A    
C19   O18   A    
C48   C75   A    
C24   O26   A    
Cr6   O6    S    
C43   Br1   S    
C81   Br6   S    
C80   C83   S    
Cr2   O11   S    
Cr6   O19   S    
C79   C88   S    
C5    C95   S    
C28   C55   A    
Cr3   O3    S    
C36   O15   A    
C39   C42   A    
C23   O25   A    
C53   C59   A    
Cr3   O12   S    
C26   C77   A    
C8    H32   S    
C50   C53   A    
O29   H39   S    
Cr5   O25   S    
C38   C41   A    
Cr6   O22   S    
O28   H38   S    
C69   H3    S    
C67   O39   S    
C54   C60   A    
Cr3   O16   S    
Cr2   O8    S    
Cr5   O18   S    
C42   O35   S    
Cr1   O16   S    
C80   Br5   S    
C84   H30   S    
C69   O41   S    
C65   C74   A    
C31   C37   A    
Cr2   O2    S    
O37   H47   S    
C61   C64   A    
C44   Br2   S    
C14   C89   S    
C83   H29   S    
C45   Br3   S    
C5    C8    S    
C9    H36   S    
C92   H5    S    
C38   O31   S    
C7    C88   S    
Cr1   O13   S    
C49   C52   A    
C49   H19   S    
C34   C77   S    
C67   C91   S    
C68   C89   S    
C21   O17   A    
C49   C76   A    
C32   C71   A    
C22   C87   S    
Cr5   O21   S    
C52   C58   A    
C4    C94   S    
C81   C90   S    
C9    H33   S    
Cr4   O17   S    
O31   H41   S    
C93   C96   S    
C64   C70   A    
C20   O19   A    
C23   C85   S    
Cr1   O10   S    
C23   O6    A    
C35   O14   A    
C1    C17   S    
C69   C90   S    
C50   C77   A    
C81   C84   S    
O33   H43   S    
C62   O37   S    
C53   C56   A    
C11   C95   S    
Cr3   O9    S    
C59   C62   A    
C59   H17   S    
C62   C65   A    
C29   C41   A    
C19   C48   S    
C19   O20   A    
Cr1   O7    S    
C91   O27   S    
C30   C42   A    
C68   H2    S    
C47   C74   A    
O41   H51   S    
C9    C90   S    
C5    O43   S    
C79   C82   S    
Cr4   O24   S    
C34   O13   A    
C52   C55   A    
C8    C89   S    
C29   C56   A    
C2    O8    A    
C63   O38   S    
C79   H22   S    
C35   C78   S    
C6    C96   S    
C73   H13   S    
C25   C76   A    
O39   H49   S    
C51   C54   A    
Cr5   O23   S    
C26   H11   S    
C7    H34   S    
C12   C87   T    
Cr4   O4    S    
C74   H14   S    
C54   C57   A    
C91   C94   S    
Cr5   O5    S    
C92   O28   S    
C4    O42   S    
Cr6   O23   S    
C66   C75   A    
Cr3   O15   S    
C13   C88   S    
C61   O36   S    
C21   O22   A    
C60   H18   S    
C6    H9    S    
C35   O10   A    
C92   C95   S    
C57   C72   A    
C41   O34   S    
C43   C46   A    
C82   H25   S    
C51   C78   A    
C55   C70   A    
C1    O3    A    
C27   H12   S    
Cr4   O20   S    
C65   C71   A    
C50   H20   S    
C32   C44   A    
C26   C29   A    
Cr6   O26   S    
C5    H8    S    
C13   C16   T    
C10   C94   S    
C12   C96   S    
C68   O40   S    
C3    O2    A    
C21   C47   S    
O36   H46   S    
C24   C86   S    
Cr1   O1    S    
C46   C73   A    
C20   C46   S    
C3    C16   S    
C15   C90   S    
O30   H40   S    
C14   C17   T    
