data_mof_unit_48483.cif
_audit_creation_date              2012-12-11T16:45:55-0500
_audit_creation_method            fapswitch 2.2
_symmetry_space_group_name_H-M    P1
_symmetry_Int_Tables_number       1
_space_group_crystal_system       triclinic
_cell_length_a                    19.913396
_cell_length_b                    17.386089
_cell_length_c                    15.270025
_cell_angle_alpha                 89.895243
_cell_angle_beta                  53.883132
_cell_angle_gamma                 90.160182
_cell_volume                      4270.64938524

loop_
_atom_site_label
_atom_site_type_symbol
_atom_type_description
_atom_site_fract_x
_atom_site_fract_y
_atom_site_fract_z
_atom_type_partial_charge
C1    C     C_R   0.863089 0.688072 0.010600 -0.210939
C2    C     C_R   0.189205 0.332832 0.015772 0.159440
C3    C     C_3   0.022720 0.128615 0.896493 -0.954265
C4    C     C_3   0.468329 0.714519 0.202788 0.249889
C5    C     C_3   0.507213 0.637647 0.149968 -0.951068
C6    C     C_3   0.526189 0.714129 0.890905 0.224952
C7    C     C_3   0.516032 0.627089 0.898658 -0.943314
C8    C     C_3   0.742435 0.553160 0.913973 0.251640
C9    C     C_3   0.722243 0.514411 0.842744 -0.850342
C10   C     C_3   0.251445 0.562682 0.098979 0.269663
C11   C     C_3   0.270921 0.518116 0.167008 -0.934667
C12   C     C_3   0.241203 0.052532 0.916465 0.254219
C13   C     C_R   0.306717 0.835212 0.991147 0.186440
C14   C     C_3   0.220329 0.013229 0.846252 -0.854687
C15   C     C_3   0.751876 0.061955 0.097992 0.245610
C16   C     C_3   0.772599 0.017023 0.164687 -0.879636
C17   C     C_R   0.690064 0.833261 0.014078 0.160994
C18   C     C_R   0.892001 0.682132 0.301610 0.071004
C19   C     C_R   0.103594 0.683453 0.698771 0.055998
C20   C     C_R   0.396123 0.182019 0.299882 0.069569
C21   C     C_R   0.605047 0.183495 0.698407 0.054166
C22   C     C_R   0.803235 0.689270 0.497624 0.190818
C23   C     C_R   0.161492 0.711671 0.506142 0.260633
C24   C     C_R   0.304937 0.188114 0.494285 0.187277
C25   C     C_R   0.133780 0.689823 0.993525 -0.207865
C26   C     C_R   0.663735 0.211893 0.505567 0.242131
C27   C     C_R   0.848914 0.727755 0.397926 0.023283
C28   C     C_R   0.132638 0.737536 0.609770 0.011526
C29   C     C_R   0.356420 0.226906 0.396101 0.022778
C30   C     C_R   0.635268 0.237469 0.609171 0.014461
C31   C     C_R   0.349707 0.305979 0.391345 -0.365441
C32   C     C_R   0.664138 0.308981 0.616585 -0.375273
C33   C     C_R   0.828823 0.803225 0.391508 -0.367854
C34   C     C_R   0.160437 0.809606 0.617210 -0.378859
C35   C     C_R   0.279887 0.343550 0.478957 0.615461
C36   C     C_R   0.362339 0.187714 0.011886 -0.205122
C37   C     C_R   0.740046 0.337647 0.527188 0.560717
C38   C     C_R   0.753583 0.833530 0.477743 0.556195
C39   C     C_R   0.236127 0.838861 0.527838 0.559162
C40   C     C_R   0.224330 0.301754 0.576892 -0.155372
C41   C     C_R   0.777390 0.303136 0.424040 -0.140299
C42   C     C_R   0.707210 0.793943 0.578489 -0.154181
C43   C     C_R   0.273970 0.804339 0.424553 -0.140689
C44   C     C_R   0.734954 0.722892 0.587434 0.217837
C45   C     C_R   0.231054 0.745014 0.415564 0.146793
C46   C     C_R   0.241193 0.225141 0.583977 0.221972
C47   C     C_R   0.633704 0.189824 0.993726 -0.212047
C48   C     C_R   0.733651 0.244658 0.415176 0.132261
C49   C     C_3   0.687265 0.648502 0.623076 -0.403183
C50   C     C_3   0.262937 0.670101 0.357873 -0.434009
C51   C     C_3   0.185133 0.156272 0.617256 -0.403109
C52   C     C_3   0.763947 0.169991 0.356470 -0.413784
C53   C     C_R   0.884465 0.308911 0.219043 0.527671
C54   C     C_R   0.123314 0.312084 0.780420 0.524385
C55   C     C_R   0.382744 0.809462 0.219464 0.526488
C56   C     C_R   0.616730 0.809415 0.781689 0.529790
C57   C     C_3   0.761346 0.612019 0.524642 -0.539883
C58   C     C_R   0.851482 0.334571 0.324594 -0.066826
C59   C     C_3   0.187296 0.633740 0.454529 -0.556155
C60   C     C_3   0.255091 0.116312 0.517955 -0.552221
C61   C     C_3   0.687407 0.134150 0.452845 -0.522148
C62   C     C_2   0.704626 0.235069 0.068590 0.227307
C63   C     C_2   0.287351 0.230024 0.941121 0.245363
C64   C     C_2   0.204170 0.735333 0.069032 0.228096
C65   C     C_2   0.788600 0.730568 0.939017 0.244187
C66   C     C_2   0.253798 0.783546 0.986881 -0.330560
C67   C     C_2   0.742476 0.781308 0.018665 -0.338216
C68   C     C_2   0.754445 0.282955 0.986056 -0.330999
C69   C     C_R   0.157058 0.338157 0.675663 -0.012021
C70   C     C_2   0.241247 0.280725 0.020820 -0.339788
C71   C     C_R   0.844051 0.399691 0.926566 -0.151289
C72   C     C_R   0.154973 0.399531 0.075293 -0.153044
C73   C     C_R   0.343778 0.899951 0.927009 -0.152865
C74   C     C_R   0.655418 0.899648 0.074451 -0.158871
C75   C     C_R   0.915293 0.607772 0.298213 0.177938
C76   C     C_R   0.082184 0.607517 0.702684 0.171859
C77   C     C_R   0.416918 0.107257 0.297251 0.183638
C78   C     C_R   0.582844 0.107850 0.702326 0.170528
C79   C     C_R   0.850563 0.313173 0.030311 -0.153610
C80   C     C_R   0.348599 0.835607 0.325178 -0.063205
C81   C     C_R   0.145871 0.311307 0.976170 -0.115114
C82   C     C_R   0.349779 0.813772 0.031451 -0.159767
C83   C     C_R   0.646549 0.811727 0.974672 -0.113811
C84   C     C_R   0.896916 0.696120 0.209035 -0.188560
C85   C     C_R   0.100402 0.696650 0.791023 -0.174328
C86   C     C_R   0.399078 0.196602 0.208855 -0.186197
C87   C     C_R   0.601252 0.196549 0.790994 -0.174248
C88   C     C_R   0.882969 0.407405 0.314954 -0.168835
C89   C     C_R   0.121784 0.408960 0.684234 -0.152260
C90   C     C_R   0.380957 0.908135 0.315410 -0.170748
C91   C     C_R   0.643679 0.832090 0.678089 -0.023388
C92   C     C_R   0.612525 0.904817 0.686505 -0.174345
C93   C     C_R   0.847946 0.596652 0.920015 0.588339
C94   C     C_R   0.147496 0.599281 0.086420 0.581885
C95   C     C_R   0.347245 0.096356 0.921121 0.589723
C96   C     C_R   0.647428 0.099252 0.086664 0.584170
C97   C     C_R   0.825322 0.670937 0.962167 -0.131637
C98   C     C_R   0.168675 0.674400 0.045853 -0.123525
C99   C     C_R   0.324178 0.170424 0.964035 -0.134936
C100  C     C_R   0.668629 0.174323 0.046013 -0.120957
C101  C     C_3   0.254897 0.428803 0.384802 0.231429
C102  C     C_R   0.807480 0.334579 0.990053 0.184116
C103  C     C_3   0.173747 0.393101 0.413090 -0.980199
C104  C     C_3   0.811532 0.361403 0.598477 0.186733
C105  C     C_3   0.880397 0.412316 0.581974 -0.795951
C106  C     C_3   0.693932 0.871488 0.395359 0.201436
C107  C     C_3   0.619904 0.919174 0.423240 -0.825091
C108  C     C_3   0.305273 0.863862 0.602181 0.195177
C109  C     C_3   0.374936 0.913920 0.584799 -0.814312
C110  C     C_3   0.969513 0.213369 0.202799 0.248953
C111  C     C_3   0.008540 0.136634 0.149558 -0.947761
C112  C     C_3   0.033097 0.215635 0.887967 0.227354
H1    H     H_    0.868107 0.743552 0.038368 0.134268
H2    H     H_    0.319207 0.649307 0.348795 0.212147
H3    H     H_    0.777874 0.120634 0.086777 0.110351
H4    H     H_    0.783645 0.033815 0.017284 0.082079
H5    H     H_    0.755899 0.955562 0.169592 0.230142
H6    H     H_    0.840302 0.021148 0.126183 0.212144
H7    H     H_    0.738279 0.041023 0.247542 0.277635
H8    H     H_    0.130455 0.167248 0.616525 0.182023
H9    H     H_    0.819836 0.147520 0.346998 0.211112
H10   H     H_    0.790413 0.568240 0.545442 0.250370
H11   H     H_    0.146056 0.610921 0.433890 0.265836
H12   H     H_    0.279258 0.066384 0.536970 0.251412
H13   H     H_    0.645056 0.114536 0.432443 0.256553
H14   H     H_    0.748817 0.592629 0.466131 0.202760
H15   H     H_    0.202947 0.592905 0.496012 0.211674
H16   H     H_    0.241724 0.104774 0.457978 0.204281
H17   H     H_    0.128279 0.745079 0.965522 0.135446
H18   H     H_    0.702096 0.090839 0.492853 0.215044
H19   H     H_    0.265692 0.776935 0.907972 0.129590
H20   H     H_    0.733831 0.777573 0.095876 0.129164
H21   H     H_    0.766207 0.276190 0.907243 0.130138
H22   H     H_    0.232470 0.276902 0.098105 0.135661
H23   H     H_    0.835116 0.422283 0.868640 0.164972
H24   H     H_    0.164961 0.423687 0.131500 0.169937
H25   H     H_    0.335112 0.922293 0.868742 0.164659
H26   H     H_    0.665393 0.923579 0.130714 0.166093
H27   H     H_    0.846664 0.259805 0.069608 0.147915
H28   H     H_    0.367030 0.243107 0.040176 0.135756
H29   H     H_    0.146174 0.256084 0.944097 0.166858
H30   H     H_    0.345414 0.760533 0.071273 0.148185
H31   H     H_    0.647237 0.756872 0.941387 0.167242
H32   H     H_    0.889710 0.750399 0.180885 0.105146
H33   H     H_    0.103780 0.751380 0.821598 0.102819
H34   H     H_    0.392687 0.251693 0.181524 0.111300
H35   H     H_    0.604831 0.251111 0.821732 0.103175
H36   H     H_    0.874540 0.444948 0.376177 0.216693
H37   H     H_    0.128697 0.444160 0.621694 0.200509
H38   H     H_    0.371384 0.945980 0.376973 0.217398
H39   H     H_    0.628279 0.245102 0.965706 0.135400
H40   H     H_    0.614291 0.938504 0.626340 0.216747
H41   H     H_    0.393359 0.336192 0.316001 0.155195
H42   H     H_    0.637928 0.335309 0.694485 0.157618
H43   H     H_    0.863068 0.833605 0.314684 0.158808
H44   H     H_    0.133771 0.835903 0.695253 0.157794
H45   H     H_    0.308278 0.406953 0.305277 0.090862
H46   H     H_    0.253428 0.491087 0.372107 0.153150
H47   H     H_    0.119109 0.422376 0.483586 0.280724
H48   H     H_    0.170401 0.399717 0.343506 0.245469
H49   H     H_    0.170618 0.330745 0.430895 0.245933
H50   H     H_    0.676417 0.624364 0.697734 0.248449
H51   H     H_    0.838254 0.302941 0.567556 0.091181
H52   H     H_    0.761017 0.357462 0.686851 0.103445
H53   H     H_    0.858220 0.472334 0.606109 0.285851
H54   H     H_    0.900095 0.390637 0.632041 0.211565
H55   H     H_    0.934772 0.411447 0.495440 0.261426
H56   H     H_    0.673754 0.809863 0.408866 0.082870
H57   H     H_    0.745400 0.879495 0.308142 0.112507
H58   H     H_    0.635225 0.981171 0.414996 0.282131
H59   H     H_    0.603079 0.904553 0.367628 0.219035
H60   H     H_    0.565753 0.906921 0.507834 0.253783
H61   H     H_    0.264727 0.667024 0.283928 0.247742
H62   H     H_    0.330558 0.804586 0.574453 0.090093
H63   H     H_    0.253999 0.862135 0.690393 0.104243
H64   H     H_    0.354222 0.974555 0.605913 0.292307
H65   H     H_    0.393223 0.893103 0.636767 0.208784
H66   H     H_    0.429796 0.910848 0.498730 0.260240
H67   H     H_    0.939127 0.207286 0.291248 0.097465
H68   H     H_    0.020021 0.256776 0.170513 0.104339
H69   H     H_    0.049490 0.143681 0.060407 0.252861
H70   H     H_    0.046920 0.115892 0.175662 0.218254
H71   H     H_    0.959531 0.093287 0.172708 0.271717
H72   H     H_    0.171508 0.127275 0.690832 0.249830
H73   H     H_    0.993403 0.237955 0.864272 0.098652
H74   H     H_    0.010581 0.238200 0.968835 0.157090
H75   H     H_    0.070894 0.101824 0.901128 0.268431
H76   H     H_    0.960310 0.113172 0.970391 0.234630
H77   H     H_    0.027948 0.105615 0.824959 0.247867
H78   H     H_    0.438964 0.709119 0.291051 0.096953
H79   H     H_    0.518863 0.758051 0.169012 0.103588
H80   H     H_    0.458118 0.594085 0.174353 0.267476
H81   H     H_    0.547442 0.644313 0.060729 0.253637
H82   H     H_    0.546332 0.617454 0.175192 0.218180
H83   H     H_    0.765731 0.168708 0.282482 0.242935
H84   H     H_    0.487000 0.736519 0.866438 0.097435
H85   H     H_    0.503412 0.736521 0.971933 0.159869
H86   H     H_    0.562096 0.600244 0.907488 0.264732
H87   H     H_    0.452450 0.611511 0.969900 0.229768
H88   H     H_    0.524946 0.604233 0.824663 0.248695
H89   H     H_    0.710364 0.609571 0.938853 0.107041
H90   H     H_    0.716750 0.517037 0.987739 0.080919
H91   H     H_    0.753070 0.457690 0.814752 0.237466
H92   H     H_    0.654174 0.505110 0.889683 0.199286
H93   H     H_    0.743512 0.551204 0.771187 0.275240
H94   H     H_    0.631712 0.650120 0.622427 0.182275
H95   H     H_    0.276772 0.621547 0.088704 0.109037
H96   H     H_    0.284213 0.534758 0.018008 0.080343
H97   H     H_    0.261536 0.455599 0.163752 0.235184
H98   H     H_    0.336606 0.528033 0.136035 0.215175
H99   H     H_    0.229505 0.537929 0.252100 0.282713
H100  H     H_    0.208949 0.108851 0.941427 0.106740
H101  H     H_    0.216134 0.016602 0.990249 0.081758
H102  H     H_    0.253018 0.957503 0.815905 0.239139
H103  H     H_    0.152522 0.001730 0.894909 0.199872
H104  H     H_    0.238843 0.050669 0.776246 0.277094
I1    I     I_    0.658450 0.255504 0.233010 -0.394355
I2    I     I_    0.326511 0.242726 0.777359 -0.327371
I3    I     I_    0.157743 0.755427 0.233633 -0.388908
I4    I     I_    0.827403 0.742908 0.775404 -0.334528
I5    I     I_    0.973651 0.569601 0.370459 -0.364617
I6    I     I_    0.013075 0.563165 0.647757 -0.389479
I7    I     I_    0.472665 0.066304 0.371650 -0.377130
I8    I     I_    0.511634 0.067057 0.648923 -0.386424
N1    N     N_R   0.908660 0.628630 0.995840 -0.064132
N2    N     N_R   0.096530 0.421430 0.063580 -0.046577
N3    N     N_R   0.403470 0.921430 0.936420 -0.044279
N4    N     N_R   0.596530 0.921430 0.063580 -0.045946
N5    N     N_R   0.927500 0.575670 0.211370 -0.070629
N6    N     N_R   0.072500 0.575670 0.788630 -0.062669
N7    N     N_R   0.427500 0.075670 0.211370 -0.071011
N8    N     N_R   0.572500 0.075670 0.788630 -0.063269
N9    N     N_R   0.908660 0.365680 0.995820 -0.072169
N10   N     N_R   0.091340 0.365680 0.004180 -0.068125
N11   N     N_R   0.408660 0.865680 0.995820 -0.072798
N12   N     N_R   0.091340 0.628630 0.004160 -0.065088
N13   N     N_R   0.591340 0.865680 0.004180 -0.066832
N14   N     N_R   0.922310 0.631420 0.151980 -0.047854
N15   N     N_R   0.077690 0.631420 0.848020 -0.047116
N16   N     N_R   0.422310 0.131420 0.151980 -0.048637
N17   N     N_R   0.577690 0.131420 0.848020 -0.047299
N18   N     N_R   0.927500 0.426330 0.211360 -0.078912
N19   N     N_R   0.072500 0.426330 0.788640 -0.078362
N20   N     N_R   0.427500 0.926330 0.211360 -0.078498
N21   N     N_R   0.572500 0.926330 0.788640 -0.077839
N22   N     N_R   0.903470 0.570760 0.936440 -0.086165
N23   N     N_R   0.408660 0.128630 0.995840 -0.064379
N24   N     N_R   0.096530 0.570760 0.063560 -0.087816
N25   N     N_R   0.403470 0.070760 0.936440 -0.085875
N26   N     N_R   0.596530 0.070760 0.063560 -0.088421
N27   N     N_R   0.591340 0.128630 0.004160 -0.065101
N28   N     N_R   0.922310 0.368460 0.151950 -0.098668
N29   N     N_R   0.077690 0.368460 0.848050 -0.121048
N30   N     N_R   0.422310 0.868460 0.151950 -0.099187
N31   N     N_R   0.577690 0.868460 0.848050 -0.116563
N32   N     N_R   0.903470 0.421430 0.936420 -0.044086
Ni1   Ni    Ni4+2 1.000000 0.630300 0.000000 0.203213
Ni2   Ni    Ni4+2 0.500000 0.130300 0.000000 0.202496
Ni3   Ni    Ni4+2 1.000000 0.369700 0.000000 0.207355
Ni4   Ni    Ni4+2 0.500000 0.869700 0.000000 0.208530
Ni5   Ni    Ni4+2 0.988090 0.497570 0.863760 0.256229
Ni6   Ni    Ni4+2 0.011910 0.497570 0.136240 0.255158
Ni7   Ni    Ni4+2 0.488090 0.997570 0.863760 0.254844
Ni8   Ni    Ni4+2 0.511910 0.997570 0.136240 0.253130
O1    O     O_3   0.265122 0.419773 0.468881 -0.652015
O2    O     O_3   0.164343 0.563463 0.152305 -0.610769
O3    O     O_3   0.328526 0.060797 0.856995 -0.604612
O4    O     O_3   0.664589 0.063399 0.152384 -0.610303
O5    O     O_3   0.780460 0.394011 0.543918 -0.642083
O6    O     O_3   0.720967 0.895868 0.458589 -0.638599
O7    O     O_3   0.276164 0.895534 0.544752 -0.643261
O8    O     O_3   0.911073 0.234688 0.182476 -0.670935
O9    O     O_3   0.117725 0.236077 0.811279 -0.658512
O10   O     O_3   0.408767 0.734982 0.184115 -0.671014
O11   O     O_3   0.610804 0.734290 0.815370 -0.661262
O12   O     O_3   0.829714 0.561090 0.855403 -0.604730

loop_
_geom_bond_atom_site_label_1
_geom_bond_atom_site_label_2
_ccdc_geom_bond_type
C44   C49   S    
C96   O4    S    
C79   H27   S    
N7    Ni8   S    
C83   N13   A    
C18   C75   A    
C23   C45   A    
N8    Ni7   S    
C90   N20   A    
N12   N24   A    
C67   H20   S    
C96   N26   A    
C82   H30   S    
C25   H17   S    
C3    H76   S    
C95   N25   A    
C104  H51   S    
C21   C87   A    
C109  H64   S    
N3    Ni7   S    
N9    Ni3   S    
C107  H59   S    
N5    Ni6   S    
C105  H54   S    
C23   C59   S    
N21   N31   A    
N12   Ni1   S    
C87   H35   S    
C20   C77   A    
C50   H61   S    
C50   C59   S    
C45   C50   S    
C63   I2    S    
C8    H89   S    
C26   C61   S    
C68   C102  S    
C41   C58   S    
C38   C42   A    
C52   C61   S    
C3    H77   S    
N27   Ni2   S    
C112  H74   S    
C95   C99   A    
C103  H48   S    
C72   H24   S    
C106  C107  S    
C94   C98   A    
C78   N8    A    
C15   C16   S    
C108  H63   S    
C96   C100  A    
C94   N24   A    
C111  H69   S    
C15   H3    S    
C49   C57   S    
C108  C109  S    
C14   H102  S    
N14   Ni1   S    
C75   N5    A    
C42   C91   S    
N13   Ni4   S    
C7    H88   S    
C60   H12   S    
C10   H96   S    
C110  C111  S    
C63   C99   S    
C9    H91   S    
N9    N32   A    
C11   H99   S    
C57   H10   S    
C104  O5    S    
C37   C41   A    
C109  H66   S    
C77   I7    S    
C56   C91   A    
C22   C44   A    
C74   H26   S    
C25   N12   A    
C82   N11   A    
N11   Ni4   S    
C65   C67   D    
C20   C86   A    
C21   C78   A    
C92   H40   S    
C18   C84   A    
C89   N19   A    
C79   C102  A    
N19   N29   A    
N20   Ni8   S    
N30   Ni4   S    
C64   C98   S    
C30   C32   A    
N2    Ni6   S    
C72   N2    A    
C47   N27   A    
C26   C48   A    
C20   C29   S    
C81   H29   S    
N6    Ni5   S    
C101  H45   S    
C101  C103  S    
N20   N30   A    
N32   Ni5   S    
C49   H94   S    
C7    H87   S    
C4    H79   S    
C19   C76   A    
N6    N15   A    
C52   H83   S    
C42   C44   A    
C12   H101  S    
C22   C57   S    
C2    C72   A    
C86   H34   S    
C6    H84   S    
C104  C105  S    
C31   H41   S    
C39   O7    S    
N24   Ni6   S    
C13   C66   S    
N23   N25   A    
C59   H11   S    
N10   Ni3   S    
C94   O2    S    
C103  H49   S    
C17   C67   S    
C40   C69   S    
N8    N17   A    
C112  H73   S    
C62   I1    S    
C4    H78   S    
C60   H16   S    
C112  O9    S    
C12   H100  S    
C93   O12   S    
C15   O4    S    
N17   Ni2   S    
C16   H7    S    
C74   N4    A    
C91   C92   A    
C73   N3    A    
N16   Ni2   S    
C8    C9    S    
C39   C43   A    
C76   I6    S    
C43   C80   S    
C23   C28   A    
C46   C51   S    
C111  H70   S    
N25   Ni7   S    
C47   C100  A    
C34   C39   A    
C108  H62   S    
N7    N16   A    
C85   N15   A    
C53   N28   A    
C106  H56   S    
C40   C46   A    
C10   H95   S    
C6    O11   S    
C9    H92   S    
C16   H6    S    
C6    H85   S    
C38   O6    S    
C52   H9    S    
N29   Ni3   S    
C95   O3    S    
N5    N14   A    
C63   C70   D    
C110  H68   S    
C3    C112  S    
C92   N21   A    
C53   O8    S    
N26   Ni8   S    
C83   H31   S    
C56   O11   S    
C111  H71   S    
C51   H8    S    
N18   Ni6   S    
C14   H104  S    
C107  H60   S    
C32   C37   A    
C35   O1    S    
C75   I5    S    
C24   C29   A    
C19   C28   S    
C36   H28   S    
C93   N22   A    
C79   N9    A    
C49   H50   S    
C8    O12   S    
N22   Ni5   S    
C61   H18   S    
C62   C100  S    
C88   N18   A    
C71   C102  A    
C47   H39   S    
C101  H46   S    
C51   H72   S    
C22   C27   A    
C76   N6    A    
C17   C74   A    
C106  H57   S    
C32   H42   S    
C1    C97   A    
N21   Ni7   S    
C93   C97   A    
N2    N10   A    
C57   H14   S    
N23   Ni2   S    
C4    O10   S    
C5    H81   S    
C66   H19   S    
C77   N7    A    
C1    N1    A    
N1    N22   A    
C36   N23   A    
C101  O1    S    
N31   Ni4   S    
C68   H21   S    
C55   O10   S    
C10   O2    S    
C64   I3    S    
C81   N10   A    
C71   H23   S    
N15   Ni1   S    
C108  O7    S    
C84   N14   A    
C18   C27   S    
C5    H80   S    
C13   C73   A    
C4    C5    S    
C19   C85   A    
C58   C88   A    
C104  H52   S    
C65   I4    S    
C90   H38   S    
C33   H43   S    
C106  O6    S    
C6    C7    S    
C51   C60   S    
C34   H44   S    
C69   C89   A    
N3    N11   A    
C21   C30   S    
C33   C38   A    
C37   O5    S    
C55   N30   A    
C62   C68   D    
N18   N28   A    
N1    Ni1   S    
C7    H86   S    
C8    H90   S    
C35   C40   A    
C12   C14   S    
C12   O3    S    
C17   C83   A    
N4    N13   A    
C11   H98   S    
C9    H93   S    
C16   H5    S    
C11   H97   S    
C110  O8    S    
C55   C80   A    
C88   H36   S    
C103  H47   S    
C54   C69   A    
C73   H25   S    
C110  H67   S    
C54   O9    S    
C13   C82   A    
C89   H37   S    
C54   N29   A    
C41   C48   A    
C105  H53   S    
C14   H103  S    
C36   C99   A    
C31   C35   A    
C1    H1    S    
C86   N16   A    
C80   C90   A    
C71   N32   A    
N26   N27   A    
C87   N17   A    
C10   C11   S    
C28   C34   A    
C105  H55   S    
C25   C98   A    
C48   C52   S    
C3    H75   S    
C65   C97   S    
C29   C31   A    
C56   N31   A    
C78   I8    S    
C27   C33   A    
C70   H22   S    
C109  H65   S    
C84   H32   S    
C15   H4    S    
C5    H82   S    
C2    C81   A    
C61   H13   S    
C24   C60   S    
N19   Ni5   S    
C50   H2    S    
C85   H33   S    
C2    C70   S    
C59   H15   S    
C43   C45   A    
C107  H58   S    
C53   C58   A    
N4    Ni8   S    
N28   Ni3   S    
C64   C66   D    
C24   C46   A    
C26   C30   A    
