data_mof_unit_59347.cif
_audit_creation_date              2013-03-05T16:19:09-0500
_audit_creation_method            fapswitch 2.2
_symmetry_space_group_name_H-M    P1
_symmetry_Int_Tables_number       1
_space_group_crystal_system       triclinic
_cell_length_a                    36.634994
_cell_length_b                    39.828158
_cell_length_c                    8.559231
_cell_angle_alpha                 90.042476
_cell_angle_beta                  93.303229
_cell_angle_gamma                 89.964687
_cell_volume                      12468.05625

loop_
_atom_site_label
_atom_site_type_symbol
_atom_site_description
_atom_site_fract_x
_atom_site_fract_y
_atom_site_fract_z
_atom_type_partial_charge
P1    P     P_3+3 0.075650 0.535480 0.098240 0.533008
P2    P     P_3+3 0.075650 0.464520 0.598240 0.555461
P3    P     P_3+3 0.575650 0.035480 0.098240 0.538186
P4    P     P_3+3 0.575650 0.964520 0.598240 0.550850
O1    O     O_2   0.072110 0.546320 0.923350 -0.295156
O2    O     O_2   0.072110 0.453680 0.423350 -0.358191
O3    O     O_2   0.572110 0.046320 0.923350 -0.325334
O4    O     O_2   0.572110 0.953680 0.423350 -0.341790
O5    O     O_3   0.042000 0.516250 0.155330 -0.405034
O6    O     O_3   0.042000 0.483750 0.655330 -0.363713
O7    O     O_3   0.542000 0.016250 0.155330 -0.399860
O8    O     O_3   0.542000 0.983750 0.655330 -0.378269
O9    O     O_3   0.012540 0.574900 0.645500 -0.396251
O10   O     O_3   0.012540 0.425100 0.145500 -0.380929
O11   O     O_3   0.512540 0.074900 0.645500 -0.405453
O12   O     O_3   0.512540 0.925100 0.145500 -0.382117
O13   O     O_2   0.078210 0.594475 0.741027 -0.303396
O14   O     O_2   0.073331 0.401138 0.284691 -0.316170
O15   O     O_2   0.571933 0.103174 0.757484 -0.327875
O16   O     O_2   0.573162 0.900957 0.284628 -0.314709
O17   O     O_3   0.117369 0.514121 0.107398 -0.552332
O18   O     O_3   0.114005 0.490246 0.626693 -0.547929
O19   O     O_3   0.617226 0.013908 0.111000 -0.544729
O20   O     O_3   0.615460 0.988481 0.616779 -0.547079
O21   O     O_3   0.028400 0.641741 0.713209 -0.494461
O22   O     O_3   0.032587 0.356553 0.163282 -0.515032
O23   O     O_3   0.517680 0.144656 0.685698 -0.463637
O24   O     O_3   0.531988 0.856496 0.163626 -0.514222
H1    H     H_    0.973590 0.628409 0.691086 0.120853
H2    H     H_    0.982167 0.371476 0.061430 0.099921
H3    H     H_    0.468394 0.119394 0.676637 0.100638
H4    H     H_    0.481561 0.871921 0.063543 0.099884
C1    C     C_3   0.979482 0.682498 0.687053 -0.091615
C2    C     C_3   0.983244 0.318986 0.118475 -0.043666
C3    C     C_3   0.457367 0.171890 0.675021 -0.150556
C4    C     C_3   0.482120 0.819347 0.118672 -0.046952
H5    H     H_    0.973766 0.683346 0.812159 0.136967
H6    H     H_    0.972007 0.324320 0.232976 0.108804
H7    H     H_    0.428466 0.166432 0.637052 0.079557
H8    H     H_    0.471179 0.824510 0.233952 0.109961
H9    H     H_    0.001150 0.701127 0.665516 0.198653
H10   H     H_    0.003337 0.298110 0.131776 0.185252
H11   H     H_    0.458118 0.174647 0.803095 0.173176
H12   H     H_    0.501954 0.798237 0.130236 0.186367
P5    P     P_3+3 0.924520 0.535770 0.591580 0.520666
P6    P     P_3+3 0.924520 0.464230 0.091580 0.510521
P7    P     P_3+3 0.424520 0.035770 0.591580 0.518570
P8    P     P_3+3 0.424520 0.964230 0.091580 0.517035
P9    P     P_3+3 0.951570 0.603498 0.057270 0.476621
P10   P     P_3+3 0.950699 0.396794 0.561993 0.457717
P11   P     P_3+3 0.450946 0.102685 0.058639 0.460039
P12   P     P_3+3 0.450643 0.896857 0.562111 0.454631
O25   O     O_2   0.928110 0.546600 0.766510 -0.335934
O26   O     O_2   0.928110 0.453400 0.266510 -0.323949
O27   O     O_2   0.428110 0.046600 0.766510 -0.336308
O28   O     O_2   0.428110 0.953400 0.266510 -0.327927
O29   O     O_3   0.987780 0.574950 0.044470 -0.377441
O30   O     O_3   0.987780 0.425050 0.544470 -0.385129
O31   O     O_3   0.487780 0.074950 0.044470 -0.372879
O32   O     O_3   0.487780 0.925050 0.544470 -0.384362
O33   O     O_2   0.928099 0.598889 0.904155 -0.342814
O34   O     O_2   0.923032 0.407201 0.429835 -0.326755
O35   O     O_2   0.427408 0.099032 0.905228 -0.369659
O36   O     O_2   0.423555 0.906912 0.427448 -0.326331
O37   O     O_3   0.885319 0.510689 0.576667 -0.532553
O38   O     O_3   0.884463 0.488111 0.078562 -0.543915
O39   O     O_3   0.384577 0.011741 0.576271 -0.533906
O40   O     O_3   0.384934 0.988810 0.079442 -0.535325
O41   O     O_3   0.966087 0.645018 0.029244 -0.552510
O42   O     O_3   0.957995 0.356068 0.490858 -0.546863
O43   O     O_3   0.465599 0.144170 0.039675 -0.555579
O44   O     O_3   0.457494 0.855908 0.492924 -0.545852
C5    C     C_3   0.990390 0.656660 0.150593 0.406408
C6    C     C_3   0.985358 0.338564 0.579173 0.343422
C7    C     C_3   0.493279 0.152775 0.152869 0.391986
C8    C     C_3   0.484825 0.838376 0.580928 0.349952
H13   H     H_    0.988757 0.641011 0.257324 0.029289
H14   H     H_    0.987841 0.347853 0.701149 0.097622
H15   H     H_    0.495560 0.134408 0.250742 0.023962
H16   H     H_    0.487522 0.847834 0.702530 0.096742
C9    C     C_3   0.977976 0.692572 0.191743 -0.059456
C10   C     C_3   0.973629 0.301233 0.579113 -0.026782
C11   C     C_3   0.482487 0.186904 0.221377 -0.084679
C12   C     C_3   0.472795 0.801143 0.582210 -0.028906
H17   H     H_    0.978351 0.708924 0.086771 0.130022
H18   H     H_    0.968797 0.292315 0.456665 0.112631
H19   H     H_    0.472344 0.204027 0.125780 0.164473
H20   H     H_    0.467826 0.792085 0.460004 0.113508
H21   H     H_    0.949049 0.691481 0.223280 0.194351
H22   H     H_    0.947122 0.298617 0.634279 0.192590
H23   H     H_    0.459439 0.182683 0.297450 0.144707
H24   H     H_    0.446317 0.798829 0.637888 0.194278
C13   C     C_3   0.890247 0.518993 0.152241 0.249541
C14   C     C_3   0.891419 0.481254 0.663095 0.251359
C15   C     C_3   0.391364 0.019038 0.158403 0.250312
C16   C     C_3   0.390407 0.980768 0.649936 0.241987
H25   H     H_    0.902323 0.515600 0.272948 0.088256
H26   H     H_    0.901428 0.487208 0.784456 0.085903
H27   H     H_    0.403586 0.014495 0.277935 0.086850
H28   H     H_    0.402572 0.984070 0.770649 0.078208
H29   H     H_    0.908675 0.534412 0.083094 0.102853
H30   H     H_    0.911789 0.465368 0.606705 0.097446
H31   H     H_    0.410040 0.034646 0.091414 0.098145
H32   H     H_    0.408778 0.965176 0.581120 0.112155
C17   C     C_3   0.853129 0.536255 0.161278 -0.089304
C18   C     C_3   0.855180 0.462418 0.670357 -0.098229
C19   C     C_3   0.354784 0.037037 0.172852 -0.104232
C20   C     C_3   0.353367 0.963431 0.659406 -0.070963
H33   H     H_    0.833992 0.519005 0.217388 0.203966
H34   H     H_    0.833351 0.480061 0.702890 0.192708
H35   H     H_    0.333930 0.018975 0.210691 0.198012
H36   H     H_    0.335220 0.979518 0.727241 0.200589
H37   H     H_    0.855530 0.558920 0.235825 0.051294
H38   H     H_    0.857765 0.442977 0.763063 0.080600
H39   H     H_    0.357757 0.056699 0.264611 0.085768
H40   H     H_    0.356437 0.939314 0.722723 0.052188
Ba1   Ba    Ba6+2 0.000060 0.523150 0.844950 1.618076
Ba2   Ba    Ba6+2 0.000060 0.476850 0.344950 1.611612
Ba3   Ba    Ba6+2 0.500060 0.023150 0.844950 1.604382
Ba4   Ba    Ba6+2 0.500060 0.976850 0.344950 1.606487
C21   C     C_3   0.114667 0.479488 0.086877 0.257236
C22   C     C_3   0.115034 0.517228 0.524152 0.329340
C23   C     C_3   0.614437 0.979400 0.086684 0.267558
C24   C     C_3   0.612119 0.020969 0.558907 0.284856
H41   H     H_    0.107438 0.473710 0.962053 0.092174
H42   H     H_    0.108660 0.509362 0.401635 0.083849
H43   H     H_    0.607335 0.974212 0.961132 0.078815
H44   H     H_    0.605385 0.020449 0.430890 0.080638
H45   H     H_    0.094363 0.468365 0.162652 0.127581
H46   H     H_    0.095484 0.536755 0.559491 0.095881
H47   H     H_    0.593993 0.967995 0.160945 0.132012
H48   H     H_    0.591243 0.035289 0.620686 0.123426
C25   C     C_3   0.153100 0.466339 0.133882 -0.437557
C26   C     C_3   0.154515 0.530122 0.542665 -0.421145
C27   C     C_3   0.652775 0.965943 0.133231 -0.424910
C28   C     C_3   0.650152 0.036128 0.593607 -0.415361
H49   H     H_    0.173001 0.479346 0.061238 0.236343
H50   H     H_    0.172671 0.512796 0.481016 0.213530
H51   H     H_    0.672805 0.979131 0.061903 0.231658
H52   H     H_    0.670512 0.020630 0.534052 0.226648
H53   H     H_    0.159903 0.473265 0.257895 0.235131
H54   H     H_    0.163485 0.529813 0.669280 0.254599
H55   H     H_    0.659521 0.972413 0.257963 0.246935
H56   H     H_    0.656926 0.034750 0.721911 0.253071
O45   O     O_3   0.958050 0.483830 0.034350 -0.395954
O46   O     O_3   0.958050 0.516170 0.534350 -0.393867
O47   O     O_3   0.458050 0.983830 0.034350 -0.392446
O48   O     O_3   0.458050 0.016170 0.534350 -0.398145
P13   P     P_3+3 0.048906 0.396883 0.133223 0.497544
P14   P     P_3+3 0.045880 0.605297 0.629941 0.530249
P15   P     P_3+3 0.548689 0.896710 0.133247 0.498507
P16   P     P_3+3 0.541607 0.108688 0.627636 0.520940
C29   C     C_3   0.992796 0.647146 0.645684 0.283865
C30   C     C_3   0.002211 0.350511 0.061876 0.204442
C31   C     C_3   0.480969 0.142018 0.627025 0.324408
C32   C     C_3   0.501393 0.850796 0.062861 0.208018
H57   H     H_    0.992471 0.644927 0.516667 0.068046
H58   H     H_    0.011725 0.346284 0.943146 0.093486
H59   H     H_    0.479287 0.140001 0.497895 -0.000503
H60   H     H_    0.510710 0.846663 0.943781 0.091980
C33   C     C_R   0.818383 0.361699 0.005310 0.558087
C34   C     C_R   0.831793 0.644466 0.559234 0.545965
C35   C     C_R   0.318241 0.861978 0.004763 0.540563
C36   C     C_R   0.335914 0.147814 0.570625 0.553572
O49   O     O_2   0.813434 0.391360 0.033971 -0.540519
O50   O     O_2   0.832003 0.617935 0.630730 -0.541204
O51   O     O_2   0.313545 0.891504 0.036954 -0.543154
O52   O     O_2   0.334891 0.120862 0.638156 -0.529428
N1    N     N_R   0.849865 0.351846 0.934881 -0.174744
N2    N     N_R   0.852983 0.648274 0.430517 -0.162203
N3    N     N_R   0.349268 0.852419 0.930229 -0.175208
N4    N     N_R   0.358183 0.152013 0.445626 -0.167798
C37   C     C_R   0.854066 0.318216 0.896010 0.605837
C38   C     C_R   0.848474 0.677420 0.340874 0.618493
C39   C     C_R   0.353152 0.818985 0.887131 0.609642
C40   C     C_R   0.355271 0.181862 0.360612 0.562947
C41   C     C_2   0.892639 0.377817 0.759222 -0.031691
C42   C     C_2   0.891086 0.617598 0.246059 -0.165320
C43   C     C_2   0.391687 0.879014 0.754814 -0.078846
C44   C     C_2   0.393758 0.120500 0.255334 -0.132208
C45   C     C_3   0.921463 0.403785 0.729354 0.137757
C46   C     C_3   0.920758 0.592450 0.215340 0.145683
C47   C     C_3   0.420750 0.904863 0.726106 0.135745
C48   C     C_3   0.420347 0.092937 0.218166 0.160004
C49   C     C_1   0.918771 0.423448 0.991938 0.276348
C50   C     C_1   0.920899 0.576022 0.485692 0.242718
C51   C     C_1   0.418418 0.923662 0.990386 0.271982
C52   C     C_1   0.421449 0.076091 0.487469 0.288770
C53   C     C_2   0.893186 0.401010 0.025889 -0.171539
C54   C     C_2   0.898661 0.600857 0.521752 -0.127493
C55   C     C_2   0.392842 0.901185 0.023483 -0.162632
C56   C     C_2   0.400572 0.101596 0.527654 -0.224901
C57   C     C_2   0.878185 0.376557 0.901882 0.100881
C58   C     C_2   0.880165 0.622410 0.394195 0.145466
C59   C     C_2   0.377526 0.877238 0.897995 0.110990
C60   C     C_2   0.384002 0.125352 0.405022 0.064707
C61   C     C_R   0.797271 0.303370 0.012709 -0.076538
C62   C     C_R   0.803387 0.699298 0.512833 -0.062092
C63   C     C_R   0.296905 0.803697 0.007484 -0.077019
C64   C     C_R   0.308626 0.203149 0.526547 -0.069661
C65   C     C_R   0.791363 0.337734 0.041104 -0.072129
C66   C     C_R   0.809212 0.670848 0.608037 -0.054929
C67   C     C_R   0.291404 0.837901 0.040981 -0.068256
C68   C     C_R   0.313430 0.174232 0.619441 -0.071896
C69   C     C_R   0.758636 0.347356 0.105078 -0.033861
C70   C     C_R   0.791678 0.668903 0.748632 -0.035644
C71   C     C_R   0.259210 0.847275 0.110096 -0.041961
C72   C     C_R   0.294667 0.171701 0.756688 -0.034010
C73   C     C_R   0.829629 0.293659 0.945207 -0.096135
C74   C     C_R   0.821476 0.701346 0.373217 -0.066852
C75   C     C_R   0.328698 0.794254 0.934741 -0.096728
C76   C     C_R   0.328107 0.205825 0.390853 -0.043665
C77   C     C_2   0.939938 0.417678 0.875860 -0.493400
C78   C     C_2   0.940433 0.579882 0.362876 -0.484802
C79   C     C_2   0.439437 0.918051 0.873713 -0.474921
C80   C     C_2   0.440230 0.079091 0.362191 -0.531111
H61   H     H_    0.883792 0.399675 0.143625 0.203734
H62   H     H_    0.897313 0.608109 0.642932 0.208735
H63   H     H_    0.383904 0.899275 0.141771 0.204744
H64   H     H_    0.398494 0.107273 0.649881 0.209539
H65   H     H_    0.753013 0.373570 0.127738 0.187269
H66   H     H_    0.795452 0.647263 0.824578 0.183372
H67   H     H_    0.253825 0.873388 0.135980 0.188237
H68   H     H_    0.297553 0.149644 0.830479 0.195723
C81   C     C_2   0.061086 0.579430 0.329067 -0.563739
C82   C     C_2   0.062655 0.418378 0.820054 -0.494343
C83   C     C_2   0.561502 0.079373 0.334241 -0.593391
C84   C     C_2   0.562357 0.918209 0.819393 -0.495652
C85   C     C_R   0.212924 0.763484 0.161344 0.032584
C86   C     C_R   0.242364 0.253031 0.754031 0.036025
C87   C     C_R   0.711827 0.263745 0.156139 0.032322
C88   C     C_R   0.738752 0.750057 0.745528 0.038490
C89   C     C_R   0.249970 0.719722 0.041057 -0.096603
C90   C     C_R   0.250290 0.281750 0.502296 -0.060513
C91   C     C_R   0.750890 0.219277 0.053183 -0.095016
C92   C     C_R   0.746193 0.778543 0.492827 -0.060633
C93   C     C_R   0.219121 0.729162 0.124879 0.096405
C94   C     C_R   0.232586 0.278906 0.645857 0.095618
C95   C     C_R   0.718894 0.229177 0.128116 0.095499
C96   C     C_R   0.729057 0.776069 0.637749 0.094458
C97   C     C_R   0.181517 0.771461 0.242253 -0.277033
C98   C     C_R   0.227518 0.253993 0.902693 -0.299735
C99   C     C_R   0.678915 0.272165 0.225173 -0.273906
C100  C     C_R   0.723893 0.751034 0.894249 -0.302502
C101  C     C_R   0.156234 0.747120 0.282555 0.412121
C102  C     C_R   0.202301 0.278456 0.943307 0.448863
C103  C     C_R   0.653279 0.247973 0.263501 0.406053
C104  C     C_R   0.699250 0.775915 0.936107 0.445964
C105  C     C_R   0.161608 0.713061 0.242131 -0.226397
C106  C     C_R   0.191843 0.303884 0.834074 -0.210745
C107  C     C_R   0.659817 0.213605 0.233278 -0.228135
C108  C     C_R   0.689339 0.801723 0.828054 -0.208836
C109  C     C_R   0.193837 0.704074 0.169785 -0.070836
C110  C     C_R   0.205304 0.302694 0.683480 -0.092188
C111  C     C_R   0.693309 0.204269 0.172149 -0.069650
C112  C     C_R   0.702442 0.800368 0.676908 -0.092122
C113  C     C_R   0.200605 0.669901 0.140466 -0.102591
C114  C     C_R   0.191691 0.325697 0.570612 -0.111841
C115  C     C_R   0.701047 0.169900 0.152958 -0.105344
C116  C     C_R   0.689138 0.823724 0.564974 -0.111735
C117  C     C_R   0.176589 0.645070 0.192565 0.679320
C118  C     C_R   0.161727 0.346468 0.603158 0.655563
C119  C     C_R   0.676712 0.145349 0.205112 0.686408
C120  C     C_R   0.659799 0.845076 0.599182 0.651176
N5    N     N_R   0.143290 0.653991 0.249216 -0.145937
N6    N     N_R   0.151382 0.350535 0.756034 -0.153194
N7    N     N_R   0.642456 0.154491 0.250386 -0.143712
N8    N     N_R   0.649893 0.849272 0.752642 -0.153830
C121  C     C_R   0.135085 0.687850 0.265605 0.669617
C122  C     C_R   0.170173 0.331850 0.872483 0.704125
C123  C     C_R   0.633340 0.188316 0.255839 0.690448
C124  C     C_R   0.668502 0.830135 0.867983 0.705761
C125  C     C_2   0.098184 0.630004 0.419569 0.267492
C126  C     C_2   0.101564 0.371360 0.919623 0.223707
C127  C     C_2   0.596920 0.131431 0.420026 0.255210
C128  C     C_2   0.600883 0.870887 0.918666 0.223777
C129  C     C_3   0.062201 0.611138 0.427567 0.036997
C130  C     C_3   0.078964 0.401442 0.964736 -0.013799
C131  C     C_3   0.561381 0.111873 0.428246 0.080385
C132  C     C_3   0.578622 0.901150 0.964009 -0.015120
C133  C     C_1   0.081289 0.576536 0.204882 0.158497
C134  C     C_1   0.085997 0.425820 0.712729 0.177946
C135  C     C_1   0.581376 0.076401 0.208443 0.177379
C136  C     C_1   0.585639 0.925469 0.711436 0.179416
C137  C     C_2   0.104644 0.601112 0.166516 0.187487
C138  C     C_2   0.117054 0.407672 0.699175 0.248185
C139  C     C_2   0.604840 0.100982 0.170469 0.199403
C140  C     C_2   0.616372 0.906884 0.697005 0.249791
C141  C     C_2   0.115971 0.628379 0.284305 -0.180995
C142  C     C_2   0.123152 0.375403 0.794876 -0.184794
C143  C     C_2   0.615230 0.128987 0.286316 -0.184918
C144  C     C_2   0.622257 0.874606 0.792992 -0.185866
O53   O     O_2   0.104262 0.696107 0.296483 -0.512150
O54   O     O_2   0.169791 0.340531 0.008977 -0.541060
O55   O     O_2   0.601865 0.196372 0.276698 -0.512629
O56   O     O_2   0.668743 0.838775 0.004701 -0.539418
C145  C     C_R   0.737794 0.288705 0.115674 0.071591
C146  C     C_R   0.762525 0.723735 0.701463 0.082148
C147  C     C_R   0.238388 0.788626 0.118106 0.072770
C148  C     C_R   0.266284 0.226845 0.710671 0.080904
C149  C     C_R   0.770799 0.278637 0.050407 0.099234
C150  C     C_R   0.779042 0.725432 0.555687 0.089265
C151  C     C_R   0.270583 0.778868 0.045538 0.099032
C152  C     C_R   0.283802 0.229050 0.567470 0.089821
C153  C     C_R   0.777959 0.244038 0.024031 0.054297
C154  C     C_R   0.770781 0.752413 0.450299 0.085278
C155  C     C_R   0.277069 0.744459 0.012172 0.055448
C156  C     C_R   0.275949 0.256202 0.462448 0.081448
C157  C     C_R   0.732371 0.323572 0.140275 -0.182184
C158  C     C_R   0.769322 0.694845 0.795519 -0.202427
C159  C     C_R   0.233198 0.823366 0.146559 -0.184419
C160  C     C_R   0.272084 0.197531 0.802638 -0.201802
H69   H     H_    0.176115 0.796577 0.280982 0.169133
H70   H     H_    0.235121 0.235800 0.991441 0.166836
H71   H     H_    0.672310 0.297603 0.254788 0.169129
H72   H     H_    0.730818 0.732451 0.981911 0.165983
H73   H     H_    0.708057 0.333661 0.187153 0.149304
H74   H     H_    0.756805 0.690661 0.904462 0.140190
H75   H     H_    0.209137 0.833238 0.196517 0.150038
H76   H     H_    0.258294 0.192863 0.908167 0.145607
O57   O     O_2   0.878892 0.309414 0.816562 -0.527692
O58   O     O_2   0.868493 0.683253 0.234999 -0.571893
O59   O     O_2   0.377766 0.810515 0.805689 -0.530731
O60   O     O_2   0.376659 0.188097 0.260292 -0.582039
C161  C     C_R   0.837590 0.259442 0.931809 -0.024635
C162  C     C_R   0.811742 0.726933 0.266914 -0.095306
C163  C     C_R   0.336116 0.760086 0.914654 -0.024910
C164  C     C_R   0.319260 0.231816 0.285516 -0.086524
H77   H     H_    0.882027 0.362187 0.663189 0.181405
H78   H     H_    0.876953 0.629066 0.145113 0.195921
H79   H     H_    0.380656 0.863935 0.657602 0.172694
H80   H     H_    0.380533 0.133874 0.157561 0.206486
H81   H     H_    0.863515 0.251151 0.890464 0.199656
H82   H     H_    0.823237 0.727798 0.153100 0.176314
H83   H     H_    0.361596 0.751902 0.868640 0.196862
H84   H     H_    0.331881 0.233163 0.174234 0.176861
C165  C     C_R   0.252117 0.685738 0.988484 0.297829
C166  C     C_R   0.241152 0.310312 0.406033 0.323913
C167  C     C_R   0.754116 0.184811 0.008972 0.298802
C168  C     C_R   0.737634 0.807347 0.397471 0.320669
C169  C     C_R   0.229773 0.661195 0.050169 -0.124973
C170  C     C_R   0.209625 0.329005 0.431747 -0.056929
C171  C     C_R   0.731505 0.160638 0.071836 -0.132081
C172  C     C_R   0.706766 0.826760 0.425193 -0.055933
O61   O     O_2   0.185138 0.615505 0.184822 -0.573799
O62   O     O_2   0.145242 0.360953 0.495053 -0.531463
O63   O     O_2   0.685801 0.115827 0.207495 -0.570279
O64   O     O_2   0.643448 0.859922 0.491864 -0.530958
C173  C     C_R   0.813129 0.235276 0.978017 -0.109652
C174  C     C_R   0.785415 0.750623 0.300967 -0.070476
C175  C     C_R   0.311653 0.735766 0.959404 -0.109938
C176  C     C_R   0.292122 0.255040 0.316092 -0.084703
H85   H     H_    0.232956 0.635342 0.013704 0.208953
H86   H     H_    0.201706 0.349046 0.351426 0.193199
H87   H     H_    0.735529 0.134474 0.042378 0.206802
H88   H     H_    0.699195 0.847048 0.345636 0.195574
H89   H     H_    0.822865 0.209744 0.979800 0.173520
H90   H     H_    0.776379 0.766625 0.205306 0.167704
H91   H     H_    0.320933 0.710122 0.954909 0.172144
H92   H     H_    0.283739 0.271082 0.219764 0.171018
H93   H     H_    0.968626 0.424599 0.882063 0.164486
H94   H     H_    0.968794 0.571924 0.364672 0.164897
H95   H     H_    0.468197 0.924738 0.880254 0.160292
H96   H     H_    0.468579 0.071128 0.362036 0.172958
H97   H     H_    0.038582 0.562340 0.345232 0.201210
H98   H     H_    0.033870 0.415070 0.786936 0.165735
H99   H     H_    0.541000 0.060745 0.358389 0.203545
H100  H     H_    0.533505 0.915179 0.786950 0.167425
N9    N     N_R   0.838201 0.545417 0.005339 0.271376
O65   O     O_R   0.853958 0.568449 0.925251 -0.345405
O66   O     O_R   0.808268 0.531463 0.947830 -0.320819
N10   N     N_R   0.844702 0.446790 0.520041 0.279707
O67   O     O_R   0.839786 0.414497 0.510826 -0.374563
O68   O     O_R   0.837621 0.465242 0.396739 -0.327690
N11   N     N_R   0.342201 0.052126 0.023910 0.279832
O69   O     O_R   0.337037 0.084376 0.013577 -0.369225
O70   O     O_R   0.333973 0.033252 0.902984 -0.318076
N12   N     N_R   0.336469 0.957477 0.503241 0.276568
O71   O     O_R   0.350848 0.936111 0.409601 -0.351456
O72   O     O_R   0.306066 0.972499 0.459154 -0.318791
C177  C     C_3   0.157817 0.428604 0.114379 -0.344258
C178  C     C_3   0.196680 0.417940 0.166346 -0.589394
H101  H     H_    0.216872 0.431507 0.097829 0.247935
H102  H     H_    0.202353 0.423207 0.292839 0.264441
H103  H     H_    0.200092 0.390698 0.146482 0.277777
H104  H     H_    0.138181 0.414844 0.184541 0.271910
H105  H     H_    0.152931 0.422241 0.989482 0.215430
C179  C     C_3   0.159048 0.565681 0.482554 -0.418429
C180  C     C_3   0.197913 0.578413 0.519364 -0.550079
H106  H     H_    0.205043 0.577076 0.647145 0.250377
H107  H     H_    0.217742 0.563206 0.455932 0.242233
H108  H     H_    0.200034 0.605015 0.482823 0.265224
H109  H     H_    0.153031 0.566006 0.354248 0.243023
H110  H     H_    0.139906 0.582307 0.541535 0.241550
C181  C     C_3   0.657231 0.928257 0.110452 -0.358025
C182  C     C_3   0.696006 0.917119 0.161092 -0.584184
H111  H     H_    0.716268 0.930640 0.092767 0.248222
H112  H     H_    0.701883 0.922065 0.287745 0.264989
H113  H     H_    0.699036 0.889870 0.139889 0.277506
H114  H     H_    0.637548 0.914348 0.179736 0.272198
H115  H     H_    0.652205 0.922393 0.985045 0.215257
C183  C     C_3   0.653438 0.072289 0.540909 -0.412722
C184  C     C_3   0.691932 0.085724 0.580024 -0.540025
H116  H     H_    0.697872 0.086063 0.708782 0.258147
H117  H     H_    0.712540 0.069874 0.524573 0.237542
H118  H     H_    0.694319 0.111673 0.534994 0.267362
H119  H     H_    0.647718 0.073410 0.412650 0.226727
H120  H     H_    0.633549 0.087742 0.602036 0.255871
N13   N     N_R   0.946059 0.692427 0.597989 0.260526
O73   O     O_R   0.931303 0.721385 0.625445 -0.297834
O74   O     O_R   0.930956 0.673161 0.490464 -0.455071
N14   N     N_R   0.953180 0.308773 0.011216 0.272305
O75   O     O_R   0.934967 0.281602 0.038719 -0.329601
O76   O     O_R   0.943759 0.327084 0.890345 -0.438338
N15   N     N_R   0.468070 0.203668 0.606341 0.281030
O77   O     O_R   0.498550 0.218066 0.654090 -0.251689
O78   O     O_R   0.443945 0.220965 0.522896 -0.332998
N16   N     N_R   0.451711 0.809690 0.011882 0.270172
O79   O     O_R   0.433096 0.782735 0.039016 -0.331882
O80   O     O_R   0.442258 0.828383 0.892329 -0.436369
N17   N     N_R   0.999743 0.708362 0.320530 0.251024
O81   O     O_R   0.991555 0.738665 0.363101 -0.272559
O82   O     O_R   0.027723 0.693413 0.390290 -0.368708
N18   N     N_R   0.000672 0.279559 0.660367 0.261079
O83   O     O_R   0.015580 0.255155 0.585485 -0.309866
O84   O     O_R   0.008740 0.283314 0.809195 -0.333190
N19   N     N_R   0.512611 0.202948 0.311710 0.277455
O85   O     O_R   0.519227 0.234738 0.293076 -0.237536
O86   O     O_R   0.531885 0.186078 0.416516 -0.305114
N20   N     N_R   0.499688 0.779409 0.663985 0.260516
O87   O     O_R   0.514268 0.754697 0.589993 -0.310821
O88   O     O_R   0.507869 0.783388 0.812591 -0.335118
N21   N     N_R   0.111761 0.651118 0.546958 0.285038
O89   O     O_R   0.146540 0.651741 0.587532 -0.373771
O90   O     O_R   0.090008 0.671667 0.614444 -0.241529
N22   N     N_R   0.098120 0.339721 0.998535 0.282410
O91   O     O_R   0.091849 0.312329 0.918661 -0.344863
O92   O     O_R   0.103757 0.337888 0.149807 -0.237906
N23   N     N_R   0.610093 0.153397 0.545658 0.282011
O93   O     O_R   0.645002 0.156634 0.579217 -0.392363
O94   O     O_R   0.587627 0.171342 0.622928 -0.233649
N24   N     N_R   0.597205 0.839363 0.998270 0.282536
O95   O     O_R   0.589889 0.812050 0.919240 -0.344498
O96   O     O_R   0.603256 0.837578 0.149367 -0.238709
N25   N     N_R   0.126598 0.757434 0.374480 0.270040
O97   O     O_R   0.122612 0.743701 0.510370 -0.268940
O98   O     O_R   0.108103 0.784428 0.336852 -0.321373
N26   N     N_R   0.184689 0.274565 0.088543 0.257352
O99   O     O_R   0.149483 0.278367 0.091174 -0.251820
O100  O     O_R   0.201606 0.259272 0.205845 -0.426702
N27   N     N_R   0.621890 0.258896 0.343022 0.273446
O101  O     O_R   0.603437 0.285030 0.292562 -0.305737
O102  O     O_R   0.615902 0.246782 0.480396 -0.252116
N28   N     N_R   0.681537 0.772097 0.081188 0.256555
O103  O     O_R   0.646492 0.776906 0.084356 -0.252138
O104  O     O_R   0.697907 0.755976 0.197310 -0.430096
N29   N     N_R   0.272217 0.676408 0.855778 0.230270
O105  O     O_R   0.269859 0.694771 0.729846 -0.363348
O106  O     O_R   0.287831 0.647096 0.850625 -0.363071
N30   N     N_R   0.265576 0.323837 0.297022 0.217934
O107  O     O_R   0.299790 0.328653 0.340781 -0.345662
O108  O     O_R   0.252763 0.336529 0.164913 -0.392234
N31   N     N_R   0.775657 0.174382 0.882449 0.228814
O109  O     O_R   0.774090 0.191322 0.752225 -0.362479
O110  O     O_R   0.791900 0.145296 0.886964 -0.360112
N32   N     N_R   0.762226 0.820331 0.287663 0.218770
O111  O     O_R   0.796811 0.823496 0.328863 -0.343355
O112  O     O_R   0.749536 0.833996 0.157539 -0.389943
N33   N     N_R   0.119371 0.602208 0.014668 0.283852
O113  O     O_R   0.120707 0.630760 0.941390 -0.355307
O114  O     O_R   0.138911 0.577284 0.967363 -0.312488
N34   N     N_R   0.148452 0.423008 0.634879 0.261322
O115  O     O_R   0.180319 0.420984 0.709639 -0.410631
O116  O     O_R   0.146577 0.433907 0.491615 -0.377118
N35   N     N_R   0.620737 0.101440 0.020642 0.278382
O117  O     O_R   0.623512 0.129821 0.946966 -0.361801
O118  O     O_R   0.639973 0.076013 0.976805 -0.341825
N36   N     N_R   0.647811 0.921721 0.630943 0.264221
O119  O     O_R   0.679745 0.919613 0.705083 -0.408387
O120  O     O_R   0.645879 0.931952 0.486614 -0.361543
C185  C     C_3   0.030116 0.654769 0.096684 -0.365427
C186  C     C_3   0.045458 0.686016 0.018850 -0.593275
H121  H     H_    0.028277 0.694240 0.917091 0.223423
H122  H     H_    0.048253 0.707301 0.102040 0.278573
H123  H     H_    0.073040 0.680303 0.978704 0.280132
H124  H     H_    0.048315 0.650190 0.200125 0.189554
H125  H     H_    0.032908 0.632721 0.018752 0.241013
C187  C     C_3   0.021677 0.343114 0.499861 -0.354139
C188  C     C_3   0.055108 0.337570 0.608825 -0.758030
H126  H     H_    0.051155 0.350216 0.721213 0.216679
H127  H     H_    0.060525 0.310500 0.628213 0.319226
H128  H     H_    0.079119 0.348350 0.554411 0.288322
H129  H     H_    0.023404 0.325360 0.401141 0.233571
H130  H     H_    0.023047 0.369184 0.454817 0.268350
C189  C     C_3   0.530525 0.153106 0.076827 -0.407905
C190  C     C_3   0.537962 0.184020 0.978037 -0.499242
H131  H     H_    0.513235 0.191359 0.907387 0.253773
H132  H     H_    0.546833 0.205577 0.052602 0.261384
H133  H     H_    0.560374 0.178485 0.900229 0.292852
H134  H     H_    0.552390 0.151858 0.169925 0.192388
H135  H     H_    0.532820 0.130177 0.004095 0.245611
C191  C     C_3   0.520982 0.842581 0.500143 -0.357546
C192  C     C_3   0.554492 0.836800 0.608070 -0.759120
H136  H     H_    0.550801 0.849555 0.720401 0.218699
H137  H     H_    0.559701 0.809697 0.627456 0.318909
H138  H     H_    0.578451 0.847382 0.552747 0.289126
H139  H     H_    0.522360 0.824799 0.401321 0.232999
H140  H     H_    0.522529 0.868633 0.454973 0.268153

loop_
_geom_bond_atom_site_label_1
_geom_bond_atom_site_label_2
_geom_bond_distance
_ccdc_geom_bond_type
C104  N28   1.442057 S    
N19   O85   1.300963 A    
C25   H49   1.113409 S    
N29   O105  1.301755 A    
C189  C190  1.527634 S    
C2    H10   1.111703 S    
C116  C120  1.413836 A    
P8    Ba4   3.452931 S    
C191  H140  1.110187 S    
N33   O113  1.301393 A    
C76   C164  1.398836 A    
C101  C105  1.416122 A    
C119  N7    1.383096 Am   
C62   C150  1.431574 A    
C35   C67   1.420940 A    
C41   C57   1.359612 D    
C94   C110  1.426782 A    
C113  C117  1.413502 A    
C162  C174  1.391495 A    
C182  H112  1.110488 S    
C30   H58   1.105927 S    
C115  C119  1.413426 A    
C15   H27   1.107859 S    
C179  H110  1.106730 S    
C90   C166  1.433213 A    
C79   H95   1.085195 S    
N10   O67   1.300511 A    
C82   C130  1.503659 S    
C89   C93   1.423311 A    
C36   C68   1.413537 A    
N1    C37   1.390488 Am   
C68   C72   1.398566 A    
C175  H91   1.077620 S    
O42   C6    1.405305 S    
O31   Ba3   2.730803 S    
N8    C144  1.483548 S    
C121  O53   1.219378 D    
C44   C60   1.363424 D    
C28   H52   1.113519 S    
C16   C20   1.529257 S    
P9    O41   1.758235 S    
N5    C141  1.472678 S    
C125  C141  1.362347 D    
C5    C9    1.547133 S    
C56   H64   1.077119 S    
C53   H61   1.084826 S    
O18   C22   1.389897 S    
C171  H87   1.083912 S    
C192  H137  1.107047 S    
C51   C79   1.314636 D    
C52   C80   1.312544 D    
C182  H113  1.106780 S    
O40   C15   1.393742 S    
N31   O109  1.301746 A    
O3    Ba3   2.840258 S    
C36   O52   1.221171 D    
N3    C59   1.469510 S    
C13   H29   1.109158 S    
C87   C145  1.432780 A    
C43   C59   1.359968 D    
Ba3   O48   3.006901 S    
C115  C171  1.397033 A    
C190  H133  1.108525 S    
C40   C76   1.412961 A    
Ba1   O46   3.006901 S    
C50   C54   1.328490 D    
C27   H51   1.113401 S    
C82   C134  1.324463 D    
P12   O44   1.757496 S    
N32   O112  1.301440 A    
N35   O118  1.300758 A    
C148  C160  1.417663 A    
H3    C31   1.108207 S    
C149  C153  1.422903 A    
C181  C182  1.526816 S    
N31   O110  1.301563 A    
C10   N18   1.459732 S    
C42   C46   1.511690 S    
C183  H120  1.107410 S    
N30   O108  1.301493 A    
Ba4   O48   2.780278 S    
C186  H122  1.107680 S    
C16   H32   1.109135 S    
C95   C111  1.430793 A    
C180  H106  1.111041 S    
C97   C101  1.398299 A    
C4    H12   1.111620 S    
C85   C93   1.422961 A    
C140  C144  1.534599 S    
C81   H97   1.084493 S    
N22   O91   1.300573 A    
N20   O88   1.299469 A    
N2    C38   1.396421 Am   
C17   N9    1.459476 S    
C184  H117  1.110863 S    
O22   P13   1.738767 S    
C154  C174  1.415981 A    
C12   H20   1.111290 S    
C63   C67   1.408649 A    
C140  N36   1.439382 S    
N11   O69   1.300520 A    
C186  H123  1.109288 S    
C11   H23   1.108538 S    
C150  C154  1.424648 A    
C161  C173  1.388621 A    
O16   P15   1.541855 D    
C189  H135  1.110713 S    
N26   O99   1.300017 A    
P10   O42   1.757812 S    
C146  C158  1.418435 A    
C166  N30   1.434909 S    
C67   C71   1.399968 A    
O10   P13   1.750164 S    
N14   O76   1.296503 A    
C187  C188  1.512274 S    
C92   C168  1.432487 A    
O12   P15   1.748514 S    
C168  N32   1.435724 S    
C37   O57   1.217786 D    
N25   O97   1.301514 A    
C170  H86   1.082319 S    
C41   H77   1.084904 S    
P3    O7    1.554423 S    
H2    C30   1.111481 S    
C14   H30   1.109349 S    
C6    C187  1.539021 S    
N32   O111  1.301615 A    
C5    H13   1.110745 S    
N12   O71   1.300447 A    
C7    H15   1.112061 S    
C33   O49   1.221893 D    
C104  C108  1.416321 A    
C18   N10   1.460242 S    
C44   H80   1.082758 S    
P1    C133  1.877800 S    
C71   H67   1.083573 S    
O23   P16   1.764976 S    
C162  H82   1.083914 S    
C99   H71   1.075009 S    
C87   C99   1.413042 A    
C21   H41   1.109801 S    
N19   O86   1.296944 A    
C185  H125  1.110578 S    
C34   C66   1.414598 A    
C17   H37   1.105680 S    
N14   O75   1.300432 A    
C3    C31   1.539769 S    
N23   O94   1.298841 A    
C146  C150  1.419400 A    
C172  H88   1.082719 S    
C28   H56   1.113229 S    
C1    C29   1.537545 S    
C163  C175  1.388976 A    
C137  C141  1.522746 S    
P9    O29   1.754786 S    
C24   H48   1.111491 S    
C25   C177  1.522875 S    
C107  C123  1.419771 A    
C22   C26   1.534695 S    
P12   O32   1.777766 S    
H4    C32   1.111530 S    
C137  N33   1.436371 S    
C177  H104  1.108714 S    
C8    C191  1.538426 S    
N8    C124  1.394006 Am   
C179  C180  1.527306 S    
C62   C66   1.405160 A    
C180  H108  1.108983 S    
N15   O78   1.301160 A    
C86   C148  1.424465 A    
C84   H100  1.084049 S    
C189  H134  1.097968 S    
C39   C75   1.408051 A    
C3    H11   1.100391 S    
C33   N1    1.388089 Am   
C27   H55   1.112004 S    
P5    O25   1.556140 D    
C187  H130  1.110033 S    
O5    Ba2   2.784149 S    
C114  C118  1.414486 A    
C89   C155  1.430822 A    
O7    Ba4   2.784149 S    
C90   C156  1.438962 A    
C15   H31   1.108855 S    
C38   O58   1.220715 D    
N16   O80   1.296632 A    
C42   H78   1.082565 S    
C113  C169  1.397765 A    
C3    N15   1.459246 S    
C96   C112  1.426772 A    
C31   H59   1.106286 S    
C128  C132  1.517626 S    
C32   H60   1.105538 S    
N34   O115  1.301069 A    
C127  N23   1.447043 S    
O19   C23   1.392825 S    
P13   C130  1.873190 S    
C23   C27   1.534112 S    
P15   C132  1.875040 S    
P2    O18   1.745141 S    
C86   C98   1.412806 A    
P16   C131  1.896410 S    
C122  O54   1.218979 D    
O8    Ba3   2.781721 S    
C126  C142  1.374469 D    
C181  H114  1.108486 S    
C23   H43   1.110280 S    
C64   C68   1.405191 A    
C97   H69   1.075438 S    
C190  H132  1.107127 S    
C185  C186  1.534196 S    
N6    C142  1.482890 S    
P1    Ba1   3.452270 S    
C188  H127  1.107021 S    
C123  O55   1.219690 D    
P3    Ba3   3.452270 S    
O38   C13   1.392591 S    
C120  O64   1.220321 D    
N18   O83   1.300986 A    
O43   C7    1.403978 S    
C176  H92   1.074103 S    
P5    O37   1.748437 S    
C36   N4    1.392569 Am   
P4    O8    1.553320 S    
C13   H25   1.108537 S    
C88   C146  1.426891 A    
C183  C184  1.527540 S    
P5    Ba1   3.452902 S    
C17   H33   1.110894 S    
C181  H115  1.103414 S    
C19   H35   1.111581 S    
Ba2   O45   3.007089 S    
C37   C73   1.407325 A    
C8    H16   1.105701 S    
C83   C135  1.339223 D    
C192  H136  1.102265 S    
C49   C53   1.339586 D    
C103  C107  1.415673 A    
C72   H68   1.083880 S    
C52   C56   1.328149 D    
C83   H99   1.084489 S    
C118  N6    1.392413 Am   
N13   O73   1.300416 A    
P14   C129  1.879419 S    
O6    Ba1   2.781721 S    
Ba1   Ba2   4.658746 S    
O39   C16   1.396500 S    
C83   C131  1.523762 S    
C70   H66   1.083893 S    
C41   C45   1.510970 S    
C16   H28   1.109174 S    
P4    C136  1.858035 S    
N10   O68   1.300218 A    
C114  C170  1.397153 A    
C72   C160  1.390436 A    
N36   O119  1.301077 A    
C62   C74   1.401877 A    
C55   C59   1.519168 S    
C86   C94   1.417866 A    
P2    C134  1.854292 S    
C128  N24   1.439016 S    
N27   O101  1.301222 A    
C164  C176  1.393186 A    
C109  C113  1.408244 A    
C152  C156  1.425333 A    
C91   C167  1.430284 A    
O24   P15   1.739946 S    
C81   C129  1.517189 S    
C45   C77   1.496100 S    
C12   H24   1.109041 S    
C153  C173  1.412356 A    
N24   O95   1.300464 A    
C9    H17   1.110801 S    
N4    C40   1.395116 Am   
N9    O66   1.300736 A    
C106  C110  1.407128 A    
C11   H19   1.112724 S    
C178  H101  1.110876 S    
O13   P14   1.537156 D    
C8    C12   1.547521 S    
C163  H83   1.083747 S    
P2    Ba2   3.452242 S    
C92   C154  1.436343 A    
C98   C102  1.399638 A    
C84   C132  1.504860 S    
C42   C58   1.364715 D    
N17   O81   1.300367 A    
P11   O43   1.748173 S    
P1    O1    1.556442 D    
C56   C60   1.514201 S    
C93   C109  1.430681 A    
O9    P14   1.730909 S    
P6    O38   1.746483 S    
P3    O3    1.556442 D    
C73   C161  1.399493 A    
P4    O20   1.742932 S    
C48   C80   1.500452 S    
C14   H26   1.107042 S    
Ba3   O47   2.782698 S    
P8    O47   1.558632 S    
C89   C165  1.429615 A    
P6    Ba2   3.452931 S    
Ba1   O45   2.782698 S    
C90   C94   1.426722 A    
N5    C121  1.390228 Am   
C167  N31   1.437178 S    
C34   O50   1.221276 D    
N7    C123  1.389139 Am   
C20   N12   1.459615 S    
N21   O90   1.300029 A    
C159  H75   1.075743 S    
C44   C48   1.512978 S    
C160  H76   1.076364 S    
O41   C5    1.407047 S    
C82   H98   1.084180 S    
C81   C133  1.334637 D    
C35   N3    1.388046 Am   
O44   C8    1.403737 S    
C24   H44   1.109378 S    
C9    H21   1.109452 S    
N1    C57   1.469771 S    
N33   O114  1.301408 A    
P7    O27   1.556140 D    
C38   C74   1.411737 A    
C5    C185  1.553639 S    
N29   O106  1.301562 A    
C6    C10   1.547949 S    
C54   H62   1.080324 S    
O11   P16   1.728911 S    
C2    H6    1.105065 S    
N22   O92   1.301425 A    
C191  H139  1.106128 S    
C2    C30   1.527965 S    
O23   C31   1.412182 S    
C69   C157  1.396033 A    
P9    O33   1.536399 D    
C24   C28   1.532074 S    
O21   C29   1.412316 S    
P10   O30   1.777653 S    
C43   C47   1.511885 S    
C105  C121  1.420105 A    
C136  C140  1.358580 D    
C184  H118  1.108565 S    
P1    O5    1.554423 S    
C182  H111  1.110849 S    
P8    C51   1.840361 S    
P11   C48   1.857270 S    
P12   O36   1.530370 D    
C173  H89   1.077277 S    
N2    C58   1.477637 S    
C138  C142  1.533883 S    
C178  H103  1.106224 S    
C179  H109  1.107666 S    
C10   H18   1.110881 S    
C135  C139  1.355249 D    
C125  C129  1.522719 S    
C100  C104  1.400346 A    
N26   O100  1.300719 A    
C3    H7    1.111072 S    
N23   O93   1.300964 A    
C117  N5    1.384496 Am   
C26   H54   1.114258 S    
C85   C97   1.412588 A    
C107  C111  1.410870 A    
C34   N2    1.392251 Am   
P6    O26   1.556712 D    
P11   O35   1.535680 D    
P8    O40   1.747413 S    
C27   C181  1.523303 S    
C100  H72   1.074153 S    
C145  C157  1.419964 A    
C15   C19   1.530632 S    
C124  O56   1.219042 D    
C77   H93   1.085027 S    
C103  N27   1.436669 S    
C1    N13   1.459143 S    
N12   O72   1.300749 A    
C4    C32   1.528548 S    
O29   Ba1   2.730803 S    
C192  H138  1.104943 S    
C125  N21   1.442264 S    
C191  C192  1.510882 S    
O24   C32   1.392939 S    
C9    N17   1.464485 S    
C23   H47   1.107706 S    
C88   C100  1.413496 A    
C91   C95   1.423566 A    
C145  C149  1.418388 A    
C168  C172  1.400906 A    
C21   H45   1.107529 S    
C11   N19   1.458024 S    
O9    Ba1   2.732732 S    
Ba3   Ba4   4.658746 S    
C116  C172  1.397284 A    
C25   H53   1.110885 S    
C185  H124  1.092581 S    
C98   H70   1.075081 S    
C1    H9    1.110138 S    
C20   H40   1.105680 S    
N7    C143  1.469117 S    
C164  H84   1.083865 S    
C127  C143  1.362882 D    
C40   O60   1.221049 D    
C118  O62   1.220530 D    
C7    C11   1.540330 S    
C61   C149  1.432694 A    
C63   C151  1.432404 A    
O32   Ba4   2.733135 S    
C64   C152  1.431402 A    
P6    C49   1.840545 S    
C29   H57   1.107128 S    
C1    H5    1.103362 S    
C169  H85   1.083874 S    
C138  N34   1.439912 S    
C183  H119  1.106622 S    
C20   H36   1.110422 S    
O27   Ba3   2.839882 S    
N30   O107  1.301607 A    
C174  H90   1.074917 S    
Ba4   O47   3.007089 S    
C186  H121  1.094992 S    
C6    H14   1.106176 S    
C180  H107  1.110731 S    
N28   O104  1.300605 A    
C147  C151  1.418279 A    
C165  C169  1.398522 A    
C148  C152  1.418732 A    
C155  C175  1.412182 A    
N27   O102  1.301596 A    
C167  C171  1.398478 A    
P1    O17   1.746549 S    
P3    O19   1.746273 S    
C184  H116  1.111059 S    
P12   C47   1.856697 S    
O20   C24   1.388650 S    
P4    O4    1.555870 D    
C64   C76   1.401933 A    
C18   H38   1.109192 S    
C33   C65   1.421729 A    
N34   O116  1.299174 A    
N9    O65   1.300674 A    
O25   Ba1   2.839882 S    
P5    C50   1.843133 S    
P6    O45   1.558632 S    
C110  C114  1.402363 A    
C75   C163  1.399974 A    
C112  C116  1.402773 A    
C105  C109  1.410352 A    
O30   Ba2   2.733135 S    
C91   C153  1.431175 A    
C88   C96   1.419034 A    
C26   C179  1.519613 S    
C69   H65   1.083580 S    
N25   O98   1.301214 A    
N20   O87   1.300980 A    
C4    H8    1.105321 S    
C13   C17   1.529251 S    
C157  H73   1.075368 S    
O11   Ba3   2.732732 S    
C19   N11   1.460126 S    
C61   C65   1.408700 A    
C127  C131  1.522711 S    
C2    N14   1.450792 S    
N13   O74   1.297226 A    
O14   P13   1.541534 D    
C188  H126  1.102385 S    
C51   C55   1.338486 D    
C108  C112  1.406562 A    
C84   C136  1.325325 D    
N18   O84   1.299546 A    
C126  N22   1.439194 S    
N17   O82   1.300366 A    
O28   Ba4   2.840620 S    
P2    O2    1.555870 D    
C101  N25   1.436650 S    
P7    O39   1.747527 S    
C43   H79   1.084968 S    
C139  N35   1.438817 S    
N11   O70   1.300161 A    
C80   H96   1.085806 S    
C111  C115  1.409153 A    
P5    O46   1.557507 S    
Ba2   O46   2.780278 S    
C61   C73   1.402361 A    
N6    C122  1.393745 Am   
C55   H63   1.084638 S    
N35   O117  1.301659 A    
C108  C124  1.417215 A    
C151  C155  1.422307 A    
C158  H74   1.075712 S    
O10   Ba2   2.730398 S    
C166  C170  1.401688 A    
N3    C39   1.390883 Am   
C28   C183  1.516479 S    
C92   C96   1.425644 A    
O1    Ba1   2.840258 S    
O21   P14   1.753524 S    
C22   H42   1.106219 S    
C35   O51   1.221933 D    
C39   O59   1.218429 D    
C71   C159  1.395767 A    
C53   C57   1.519537 S    
C177  H105  1.103034 S    
C7    C189  1.545336 S    
N15   O77   1.300229 A    
C120  N8    1.392639 Am   
C119  O63   1.221749 D    
C47   C79   1.496835 S    
O15   P16   1.541263 D    
C78   H94   1.085368 S    
C10   H22   1.108966 S    
N36   O120  1.299147 A    
C19   H39   1.109638 S    
N28   O103  1.299785 A    
C65   C69   1.399628 A    
C147  C159  1.419284 A    
O37   C14   1.397665 S    
C74   C162  1.398978 A    
O26   Ba2   2.840620 S    
C187  H129  1.105985 S    
P10   O34   1.531907 D    
C139  C143  1.525636 S    
O22   C30   1.392261 S    
P10   C45   1.858092 S    
P11   O31   1.752897 S    
C106  C122  1.416856 A    
N24   O96   1.301471 A    
P2    O6    1.553320 S    
C49   C77   1.315103 D    
O4    Ba4   2.839527 S    
H1    C29   1.111564 S    
N16   O79   1.300449 A    
C102  C106  1.416400 A    
P8    O28   1.556712 D    
P7    O48   1.557507 S    
C14   C18   1.529707 S    
C178  H102  1.110492 S    
O12   Ba4   2.730398 S    
C126  C130  1.518247 S    
C87   C95   1.423457 A    
C26   H50   1.111936 S    
C99   C103  1.398274 A    
C134  C138  1.358132 D    
C165  N29   1.437336 S    
C4    N16   1.451597 S    
C161  H81   1.083764 S    
C177  C178  1.527029 S    
C12   N20   1.459547 S    
C50   C78   1.314499 D    
P7    Ba3   3.452902 S    
C190  H131  1.099341 S    
O2    Ba2   2.839527 S    
C85   C147  1.432269 A    
C156  C176  1.416984 A    
C63   C75   1.403009 A    
O17   C21   1.393252 S    
C188  H128  1.105895 S    
C117  O61   1.221005 D    
N4    C60   1.476161 S    
C54   C58   1.517708 S    
P9    C46   1.864330 S    
C128  C144  1.374615 D    
P3    C135  1.888226 S    
C18   H34   1.111539 S    
N21   O89   1.301382 A    
C66   C70   1.398586 A    
C46   C78   1.503434 S    
P4    Ba4   3.452242 S    
C21   C25   1.533850 S    
P7    C52   1.837400 S    
C102  N26   1.441702 S    
C22   H46   1.110515 S    
C70   C158  1.391243 A    
C133  C137  1.353461 D    
