data_mof_unit_59869.cif
_audit_creation_date              2012-12-10T17:25:34-0500
_audit_creation_method            fapswitch 2.2
_symmetry_space_group_name_H-M    P1
_symmetry_Int_Tables_number       1
_space_group_crystal_system       triclinic
_cell_length_a                    10.156935
_cell_length_b                    10.533998
_cell_length_c                    23.350771
_cell_angle_alpha                 89.698694
_cell_angle_beta                  81.015522
_cell_angle_gamma                 95.1498
_cell_volume                      2457.28581346

loop_
_atom_site_label
_atom_site_type_symbol
_atom_type_description
_atom_site_fract_x
_atom_site_fract_y
_atom_site_fract_z
_atom_type_partial_charge
C1    C     C_R   0.556418 0.735235 0.494618 0.776653
C2    C     C_R   0.400806 0.403273 0.306005 -0.068478
C3    C     C_R   0.590307 0.539176 0.760014 -0.107664
C4    C     C_R   0.401776 0.401553 0.246186 -0.033209
C5    C     C_R   0.486152 0.460095 0.791849 0.259633
C6    C     C_R   0.496772 0.479329 0.208901 0.172225
C7    C     C_2   0.587558 0.872683 0.482264 0.286979
C8    C     C_2   0.412062 0.128309 0.496175 0.318949
C9    C     C_2   0.494165 0.931476 0.460307 -0.160429
C10   C     C_2   0.500091 0.068945 0.459446 -0.167834
C11   C     C_2   0.922822 0.499501 0.509709 -0.102778
C12   C     C_R   0.443854 0.265282 0.502562 0.750054
C13   C     C_2   0.066594 0.473414 0.505907 -0.042088
C14   C     C_R   0.500375 0.501074 0.610498 0.858891
C15   C     C_R   0.499072 0.496831 0.389643 0.844148
C16   C     C_R   0.566198 0.389707 0.115805 0.504209
C17   C     C_R   0.402552 0.535829 0.886071 0.569231
C18   C     C_R   0.413807 0.551657 0.124820 0.510479
C19   C     C_R   0.554943 0.373851 0.876866 0.570790
C20   C     C_R   0.407394 0.547703 0.065554 -0.021197
C21   C     C_R   0.557025 0.373861 0.936562 -0.023801
C22   C     C_R   0.483301 0.462471 0.031079 -0.016546
C23   C     C_R   0.386731 0.394973 0.764322 0.037222
C24   C     C_R   0.480098 0.458153 0.971171 -0.015657
C25   C     C_R   0.563214 0.382295 0.056297 -0.018793
C26   C     C_R   0.401178 0.539239 0.945911 -0.021731
C27   C     C_R   0.327884 0.626974 0.040068 -0.135601
C28   C     C_R   0.635229 0.293454 0.962192 -0.139495
C29   C     C_R   0.324817 0.622791 0.980722 -0.142164
C30   C     C_R   0.638279 0.297620 0.021578 -0.137006
C31   C     C_2   0.125873 0.671527 0.546769 0.518220
C32   C     C_2   0.887804 0.375625 0.427208 0.568319
C33   C     C_2   0.274880 0.308207 0.795581 0.465107
C34   C     C_R   0.594084 0.560966 0.230481 0.018945
C35   C     C_2   0.695488 0.643248 0.190837 0.481178
C36   C     C_2   0.704602 0.648120 0.668321 0.467122
C37   C     C_2   0.304215 0.312968 0.344256 0.493356
C38   C     C_3   0.263748 0.101235 0.582656 0.058039
C39   C     C_3   0.177720 0.994905 0.618756 -0.716338
C40   C     C_3   0.813431 0.886562 0.492934 0.106937
C41   C     C_3   0.930218 0.986535 0.495280 -0.758437
C42   C     C_R   0.393722 0.412577 0.704736 -0.286053
C43   C     C_R   0.593044 0.563771 0.290312 -0.157033
C44   C     C_R   0.497722 0.492124 0.672738 -0.108102
C45   C     C_R   0.496578 0.487372 0.327883 -0.164671
C46   C     C_R   0.597476 0.557044 0.700281 -0.066521
H1    H     H_    0.268502 0.692913 0.065783 0.202987
H2    H     H_    0.404768 0.879391 0.448945 0.160888
H3    H     H_    0.098173 0.385748 0.486389 0.176001
H4    H     H_    0.879813 0.560099 0.543517 0.190794
H5    H     H_    0.182493 0.757888 0.527892 0.073998
H6    H     H_    0.819128 0.301831 0.413131 0.062964
H7    H     H_    0.198024 0.265746 0.772249 0.060242
H8    H     H_    0.695834 0.641909 0.144366 0.061632
H9    H     H_    0.701914 0.676813 0.623909 0.054819
H10   H     H_    0.311052 0.301877 0.389821 0.057508
H11   H     H_    0.205045 0.185442 0.583204 0.172128
H12   H     H_    0.694916 0.227801 0.936439 0.199433
H13   H     H_    0.354265 0.125313 0.603503 0.134771
H14   H     H_    0.234435 0.909712 0.619619 0.265522
H15   H     H_    0.149389 0.027031 0.663862 0.214884
H16   H     H_    0.085267 0.968687 0.600040 0.263638
H17   H     H_    0.830718 0.840280 0.449912 0.161593
H18   H     H_    0.812065 0.815634 0.528502 0.169167
H19   H     H_    0.916799 0.035399 0.537541 0.256404
H20   H     H_    0.025345 0.940361 0.490218 0.225130
H21   H     H_    0.936072 0.058420 0.459784 0.257976
H22   H     H_    0.263270 0.685731 0.962201 0.199821
H23   H     H_    0.700115 0.234955 0.040087 0.200431
H24   H     H_    0.318715 0.362260 0.682731 0.141187
H25   H     H_    0.666225 0.626860 0.308055 0.191563
H26   H     H_    0.663662 0.589453 0.782800 0.181311
H27   H     H_    0.329745 0.338497 0.227806 0.186492
H28   H     H_    0.590239 0.120253 0.435885 0.155168
N1    N     N_R   0.492816 0.473909 0.148305 -0.370169
N2    N     N_R   0.478985 0.454402 0.853183 -0.338059
N3    N     N_2   0.842710 0.448880 0.476480 -0.175182
N4    N     N_2   0.157290 0.551120 0.523520 -0.156387
O1    O     O_R   0.431060 0.692470 0.504730 -0.630401
O2    O     O_2   0.329363 0.613824 0.860648 -0.537649
O3    O     O_2   0.342302 0.632514 0.158845 -0.522492
O4    O     O_2   0.628551 0.294998 0.842576 -0.537085
O5    O     O_2   0.043632 0.678429 0.590497 -0.584370
O6    O     O_2   0.997664 0.400624 0.397774 -0.572792
O7    O     O_2   0.267061 0.281634 0.847010 -0.545702
O8    O     O_2   0.780261 0.713820 0.209567 -0.536737
O9    O     O_2   0.797139 0.693819 0.691598 -0.514105
O10   O     O_2   0.216027 0.247935 0.325033 -0.525282
O11   O     O_3   0.296834 0.059651 0.525164 -0.617792
O12   O     O_R   0.568940 0.307530 0.495270 -0.620579
O13   O     O_3   0.693430 0.946605 0.501003 -0.612843
O14   O     O_R   0.651120 0.659650 0.489640 -0.633241
O15   O     O_R   0.348880 0.340350 0.510360 -0.620044
O16   O     O_R   0.389950 0.516450 0.591390 -0.585931
O17   O     O_R   0.610050 0.483550 0.408610 -0.612834
O18   O     O_R   0.610020 0.483630 0.576300 -0.620165
O19   O     O_R   0.389980 0.516370 0.423700 -0.605450
O20   O     O_2   0.641777 0.314027 0.141144 -0.531631
Zn1   Zn    Zn3+2 0.353060 0.521920 0.510080 0.961927
Zn2   Zn    Zn3+2 0.646940 0.478080 0.489920 0.941488

loop_
_geom_bond_atom_site_label_1
_geom_bond_atom_site_label_2
_ccdc_geom_bond_type
C18   N1    A    
C27   C29   A    
C16   N1    A    
C10   H28   S    
C37   O10   D    
C6    N1    S    
C41   H21   S    
C38   O11   S    
C23   C42   A    
C17   C26   A    
C12   O12   A    
C19   N2    A    
C19   C21   A    
C24   C26   A    
C40   H17   S    
C15   O17   A    
C38   C39   S    
C35   O8    D    
C29   H22   S    
C42   H24   S    
C18   O3    S    
C31   O5    D    
N3    Zn2   S    
C34   C35   S    
O12   Zn2   S    
C33   O7    D    
C32   H6    S    
C11   N3    D    
C32   N3    S    
O1    Zn1   S    
C37   H10   S    
C23   C33   S    
C22   C25   A    
C17   N2    A    
C36   C46   S    
C19   O4    S    
C9    C10   S    
O15   Zn1   S    
C2    C45   A    
C35   H8    S    
C42   C44   A    
C15   O19   A    
C39   H15   S    
C14   O18   A    
O19   Zn1   S    
C44   C46   A    
C36   O9    D    
C33   H7    S    
C32   O6    D    
C4    C6    A    
O17   Zn2   S    
C25   C30   A    
C41   H19   S    
C17   O2    S    
C6    C34   A    
C2    C4    A    
C38   H11   S    
C5    C23   A    
C8    C12   S    
C7    O13   S    
C43   C45   A    
C4    H27   S    
C26   C29   A    
C13   H3    S    
C40   C41   S    
C21   C28   A    
C20   C22   A    
C1    O14   A    
C1    O1    A    
C22   C24   A    
C12   O15   A    
C15   C45   S    
C30   H23   S    
O14   Zn2   S    
C31   N4    S    
C14   C44   S    
C27   H1    S    
C16   C25   A    
C7    C9    D    
C39   H16   S    
C13   N4    D    
C43   H25   S    
C1    C7    S    
C34   C43   A    
C31   H5    S    
C3    C5    A    
C41   H20   S    
C20   C27   A    
C28   H12   S    
C3    C46   A    
C40   H18   S    
C5    N2    S    
C28   C30   A    
C3    H26   S    
C11   H4    S    
C11   C13   S    
C2    C37   S    
C16   O20   S    
O16   Zn1   S    
C39   H14   S    
O18   Zn2   S    
C18   C20   A    
C40   O13   S    
C38   H13   S    
C9    H2    S    
C8    C10   D    
C21   C24   A    
N4    Zn1   S    
C36   H9    S    
C8    O11   S    
C14   O16   A    
