data_mof_unit_56277.cif
_audit_creation_date              2013-03-05T15:39:28-0500
_audit_creation_method            fapswitch 2.2
_symmetry_space_group_name_H-M    P1
_symmetry_Int_Tables_number       1
_space_group_crystal_system       triclinic
_cell_length_a                    16.828299
_cell_length_b                    16.91698
_cell_length_c                    16.920146
_cell_angle_alpha                 66.771579
_cell_angle_beta                  67.458522
_cell_angle_gamma                 67.424051
_cell_volume                      3931.58619486

loop_
_atom_site_label
_atom_site_type_symbol
_atom_site_description
_atom_site_fract_x
_atom_site_fract_y
_atom_site_fract_z
_atom_type_partial_charge
O1    O     O_R   0.124540 0.978640 0.385460 -0.590798
O2    O     O_R   0.875460 0.021360 0.614540 -0.585286
O3    O     O_R   0.978640 0.385460 0.124540 -0.586781
O4    O     O_R   0.021360 0.614540 0.875460 -0.589090
O5    O     O_R   0.385460 0.124540 0.978640 -0.585576
O6    O     O_R   0.614540 0.875460 0.021360 -0.588054
O7    O     O_R   0.614540 0.021360 0.875460 -0.585441
O8    O     O_R   0.385460 0.978640 0.124540 -0.588093
O9    O     O_R   0.875460 0.614540 0.021360 -0.590662
O10   O     O_R   0.124540 0.385460 0.978640 -0.586746
O11   O     O_R   0.021360 0.875460 0.614540 -0.586704
O12   O     O_R   0.978640 0.124540 0.385460 -0.589110
C1    C     C_R   0.599094 0.010600 0.600698 0.096440
C2    C     C_R   0.409172 0.967234 0.403885 0.082263
C3    C     C_R   0.012583 0.602429 0.598535 0.079187
C4    C     C_R   0.981338 0.403549 0.399728 0.085326
C5    C     C_R   0.591205 0.596303 0.031726 0.082441
C6    C     C_R   0.401218 0.399808 0.988061 0.098095
Cu1   Cu    Cu3+1 0.995180 0.995180 0.424630 0.925526
Cu2   Cu    Cu3+1 0.004820 0.004820 0.575370 0.926499
Cu3   Cu    Cu3+1 0.995180 0.424630 0.995180 0.924266
Cu4   Cu    Cu3+1 0.004820 0.575370 0.004820 0.925369
Cu5   Cu    Cu3+1 0.424630 0.995180 0.995180 0.921487
Cu6   Cu    Cu3+1 0.575370 0.004820 0.004820 0.922293
C7    C     C_R   0.028120 0.829191 0.565170 0.807239
C8    C     C_R   0.982171 0.169019 0.431043 0.806249
C9    C     C_R   0.829769 0.567139 0.021843 0.793381
C10   C     C_R   0.170003 0.432962 0.978113 0.816449
C11   C     C_R   0.566905 0.022557 0.829771 0.808096
C12   C     C_R   0.434188 0.973972 0.170714 0.803611
C13   C     C_R   0.433134 0.170268 0.977292 0.808323
C14   C     C_R   0.565860 0.829300 0.025900 0.803557
C15   C     C_R   0.972177 0.434734 0.170727 0.806019
C16   C     C_R   0.017109 0.569258 0.831195 0.807986
C17   C     C_R   0.170232 0.978243 0.432826 0.794124
C18   C     C_R   0.830033 0.021660 0.567110 0.815831
O13   O     O_R   0.013780 0.867370 0.487190 -0.592618
O14   O     O_R   0.986220 0.132630 0.512810 -0.594096
O15   O     O_R   0.867370 0.487190 0.013780 -0.595230
O16   O     O_R   0.132630 0.512810 0.986220 -0.591468
O17   O     O_R   0.487190 0.013780 0.867370 -0.595119
O18   O     O_R   0.512810 0.986220 0.132630 -0.594187
O19   O     O_R   0.512810 0.132630 0.986220 -0.594948
O20   O     O_R   0.487190 0.867370 0.013780 -0.594518
O21   O     O_R   0.986220 0.512810 0.132630 -0.592889
O22   O     O_R   0.013780 0.487190 0.867370 -0.594537
O23   O     O_R   0.132630 0.986220 0.512810 -0.595069
O24   O     O_R   0.867370 0.013780 0.487190 -0.591603
C19   C     C_R   0.550352 0.998531 0.551114 -0.020073
C20   C     C_R   0.462163 0.975659 0.452120 -0.024898
C21   C     C_R   0.002519 0.551765 0.548372 -0.016085
C22   C     C_R   0.989692 0.454835 0.450511 -0.018652
C23   C     C_R   0.538385 0.548090 0.023047 -0.024968
C24   C     C_R   0.449837 0.449451 0.000208 -0.020716
C25   C     C_R   0.521608 0.070968 0.480101 0.057523
C26   C     C_R   0.488708 0.903442 0.524852 0.053440
C27   C     C_R   0.013769 0.457391 0.581779 0.069451
C28   C     C_R   0.008370 0.539618 0.408023 0.063989
C29   C     C_R   0.515454 0.574782 0.941923 0.062592
C30   C     C_R   0.462230 0.429466 0.085306 0.055899
C31   C     C_R   0.485530 0.056610 0.425220 0.063791
C32   C     C_R   0.537823 0.913471 0.571190 0.055413
C33   C     C_R   0.478814 0.520273 0.927727 0.057860
C34   C     C_R   0.511411 0.475706 0.095332 0.053719
C35   C     C_R   0.978744 0.421026 0.544523 0.043135
C36   C     C_R   0.984966 0.594493 0.462963 0.058132
C37   C     C_R   0.557555 0.018099 0.687664 -0.223288
C38   C     C_R   0.449267 0.957316 0.317733 -0.218882
C39   C     C_R   0.039223 0.682093 0.554132 -0.227937
C40   C     C_R   0.997614 0.309761 0.431699 -0.217095
C41   C     C_R   0.682896 0.558040 0.025295 -0.190965
C42   C     C_R   0.312498 0.440271 0.984315 -0.228471
C43   C     C_R   0.317323 0.974439 0.441894 -0.191216
C44   C     C_R   0.687777 0.014419 0.560199 -0.228843
C45   C     C_R   0.442716 0.312676 0.980898 -0.223366
C46   C     C_R   0.551005 0.682533 0.041497 -0.219589
C47   C     C_R   0.958036 0.446825 0.318291 -0.213807
C48   C     C_R   0.995486 0.571928 0.692194 -0.185314
H1    H     H_    0.489195 0.013993 0.719047 0.151821
H2    H     H_    0.520074 0.950663 0.288450 0.158898
H3    H     H_    0.055507 0.707865 0.482130 0.141409
H4    H     H_    0.022342 0.272395 0.489980 0.147021
H5    H     H_    0.714782 0.492309 0.015531 0.144728
H6    H     H_    0.280518 0.507385 0.990813 0.146859
H7    H     H_    0.285421 0.984662 0.507396 0.142951
H8    H     H_    0.719775 0.007715 0.493191 0.147064
H9    H     H_    0.511100 0.281284 0.985011 0.151532
H10   H     H_    0.480288 0.711995 0.047447 0.160181
H11   H     H_    0.941790 0.518843 0.291923 0.139043
H12   H     H_    0.963208 0.519211 0.730943 0.133195
C49   C     C_R   0.605462 0.026818 0.734859 -0.063141
C50   C     C_R   0.397028 0.962927 0.266988 -0.070294
C51   C     C_R   0.038414 0.732850 0.603330 -0.060738
C52   C     C_R   0.980080 0.263454 0.389925 -0.062668
C53   C     C_R   0.733530 0.605563 0.029208 -0.068806
C54   C     C_R   0.265056 0.393875 0.974183 -0.062099
C55   C     C_R   0.266520 0.970784 0.394375 -0.067700
C56   C     C_R   0.735081 0.025133 0.606351 -0.062400
C57   C     C_R   0.394684 0.265306 0.972627 -0.062596
C58   C     C_R   0.603056 0.733065 0.036680 -0.070265
C59   C     C_R   0.961693 0.396663 0.267003 -0.062194
C60   C     C_R   0.018241 0.610966 0.737084 -0.066830
C61   C     C_R   0.693288 0.031990 0.693123 -0.226282
C62   C     C_R   0.306897 0.965952 0.306778 -0.230438
C63   C     C_R   0.036274 0.693424 0.692947 -0.228047
C64   C     C_R   0.965484 0.306640 0.305976 -0.224488
C65   C     C_R   0.693076 0.693148 0.034113 -0.230488
C66   C     C_R   0.306808 0.307002 0.967558 -0.226737
H13   H     H_    0.730298 0.038229 0.729510 0.173457
H14   H     H_    0.267160 0.968170 0.268108 0.176810
H15   H     H_    0.043952 0.729008 0.729432 0.174159
H16   H     H_    0.961005 0.269235 0.269279 0.174007
H17   H     H_    0.732685 0.731718 0.032307 0.176896
H18   H     H_    0.269698 0.270478 0.961688 0.172918
C67   C     C_3   0.581638 0.832946 0.638303 -0.415749
C68   C     C_3   0.677311 0.788006 0.592543 -0.335886
C69   C     C_3   0.719840 0.704497 0.658057 -0.873000
H19   H     H_    0.719212 0.721539 0.715401 0.260551
H20   H     H_    0.683037 0.653338 0.683191 0.246896
H21   H     H_    0.790300 0.675605 0.623806 0.249789
H22   H     H_    0.676288 0.768800 0.537457 0.222708
H23   H     H_    0.718746 0.835507 0.564153 0.229850
H24   H     H_    0.582978 0.852294 0.693023 0.212615
H25   H     H_    0.543279 0.782936 0.672541 0.201248
C70   C     C_3   0.483096 0.122613 0.332541 -0.403768
C71   C     C_3   0.576717 0.103158 0.266434 -0.353308
C72   C     C_3   0.575014 0.145339 0.168768 -0.832744
H26   H     H_    0.519974 0.133908 0.157566 0.273136
H27   H     H_    0.567422 0.217935 0.148368 0.230786
H28   H     H_    0.639397 0.115106 0.125523 0.239140
H29   H     H_    0.622311 0.128057 0.278009 0.205403
H30   H     H_    0.606499 0.029904 0.277957 0.217545
H31   H     H_    0.432115 0.119721 0.308273 0.211295
H32   H     H_    0.461390 0.192820 0.333439 0.192500
C73   C     C_3   0.936730 0.693249 0.431073 -0.414953
C74   C     C_3   0.853178 0.706351 0.405412 -0.338788
C75   C     C_3   0.810646 0.805301 0.365049 -0.875996
H33   H     H_    0.796757 0.844726 0.410277 0.251618
H34   H     H_    0.856241 0.831987 0.299847 0.254429
H35   H     H_    0.746732 0.813406 0.353888 0.238272
H36   H     H_    0.869703 0.671043 0.355740 0.215242
H37   H     H_    0.804081 0.677579 0.465724 0.218460
H38   H     H_    0.912663 0.725811 0.484586 0.211367
H39   H     H_    0.982753 0.728370 0.372734 0.202621
C76   C     C_3   0.921766 0.357089 0.607359 -0.417615
C77   C     C_3   0.851493 0.392472 0.684984 -0.342752
C78   C     C_3   0.792900 0.329378 0.745054 -0.860500
H40   H     H_    0.753166 0.326261 0.707467 0.257546
H41   H     H_    0.834865 0.261133 0.770728 0.255565
H42   H     H_    0.746374 0.354050 0.802996 0.234491
H43   H     H_    0.884746 0.398990 0.726633 0.215172
H44   H     H_    0.808328 0.459594 0.658015 0.221532
H45   H     H_    0.883911 0.348778 0.571373 0.218007
H46   H     H_    0.965207 0.290480 0.634635 0.186986
C79   C     C_3   0.531658 0.451625 0.184057 -0.392137
C80   C     C_3   0.613952 0.370318 0.194081 -0.349440
C81   C     C_3   0.652884 0.364633 0.264751 -0.852180
H47   H     H_    0.677481 0.423996 0.244250 0.257931
H48   H     H_    0.601593 0.361068 0.330231 0.256095
H49   H     H_    0.709960 0.303623 0.272347 0.241490
H50   H     H_    0.595903 0.307477 0.213403 0.207235
H51   H     H_    0.666932 0.374302 0.129661 0.220901
H52   H     H_    0.542845 0.509054 0.190459 0.213662
H53   H     H_    0.472742 0.439451 0.241276 0.179115
C82   C     C_3   0.476240 0.534591 0.833527 -0.403214
C83   C     C_3   0.570077 0.496148 0.777904 -0.343828
C84   C     C_3   0.574521 0.523617 0.679315 -0.875259
H54   H     H_    0.523843 0.502748 0.671017 0.258178
H55   H     H_    0.562694 0.597195 0.650638 0.250155
H56   H     H_    0.641976 0.491018 0.642211 0.249012
H57   H     H_    0.620685 0.519105 0.783759 0.216124
H58   H     H_    0.587799 0.421960 0.803932 0.224775
H59   H     H_    0.430580 0.502012 0.833196 0.208558
H60   H     H_    0.449008 0.606258 0.800555 0.198824
C85   C     C_3   0.468421 0.814657 0.549075 -0.392182
C86   C     C_3   0.386005 0.804901 0.630081 -0.348571
C87   C     C_3   0.351624 0.729256 0.639789 -0.857443
H61   H     H_    0.328890 0.744124 0.580584 0.258149
H62   H     H_    0.404931 0.665054 0.646619 0.256663
H63   H     H_    0.294123 0.722248 0.700386 0.241562
H64   H     H_    0.402398 0.791024 0.692538 0.208261
H65   H     H_    0.331170 0.867836 0.623126 0.220909
H66   H     H_    0.457166 0.808161 0.491733 0.212370
H67   H     H_    0.527171 0.757206 0.561747 0.182205
C88   C     C_3   0.525643 0.164938 0.464603 -0.400319
C89   C     C_3   0.431795 0.224238 0.497563 -0.339448
C90   C     C_3   0.430736 0.322425 0.464385 -0.885889
H68   H     H_    0.478773 0.331923 0.487872 0.258810
H69   H     H_    0.448493 0.345583 0.390322 0.253305
H70   H     H_    0.362786 0.363703 0.489910 0.247593
H71   H     H_    0.382095 0.217466 0.474125 0.214466
H72   H     H_    0.410597 0.202691 0.571900 0.223124
H73   H     H_    0.568982 0.165477 0.499652 0.208492
H74   H     H_    0.556610 0.195088 0.393145 0.198375
C91   C     C_3   0.418457 0.362343 0.165752 -0.413863
C92   C     C_3   0.322440 0.407974 0.210161 -0.339070
C93   C     C_3   0.279388 0.341906 0.292379 -0.865581
H75   H     H_    0.280417 0.285227 0.274018 0.260068
H76   H     H_    0.315623 0.315784 0.344153 0.247742
H77   H     H_    0.208767 0.376037 0.320952 0.250374
H78   H     H_    0.322853 0.462462 0.230736 0.222840
H79   H     H_    0.281626 0.437254 0.161981 0.229704
H80   H     H_    0.417877 0.307281 0.146369 0.212103
H81   H     H_    0.456414 0.328404 0.216140 0.198821
C94   C     C_3   0.518651 0.667123 0.875652 -0.402763
C95   C     C_3   0.424991 0.733549 0.894202 -0.353234
C96   C     C_3   0.426871 0.831251 0.854012 -0.832541
H82   H     H_    0.482274 0.841378 0.865878 0.272809
H83   H     H_    0.433768 0.853428 0.781464 0.230211
H84   H     H_    0.362754 0.874013 0.885318 0.238986
H85   H     H_    0.380249 0.722874 0.867501 0.205509
H86   H     H_    0.394089 0.721210 0.967396 0.217560
H87   H     H_    0.569398 0.691319 0.879058 0.211173
H88   H     H_    0.541371 0.665494 0.805642 0.191029
C97   C     C_3   0.059038 0.570186 0.309932 -0.415025
C98   C     C_3   0.143470 0.593041 0.299110 -0.341023
C99   C     C_3   0.187189 0.634281 0.200853 -0.875534
H89   H     H_    0.200436 0.590488 0.160138 0.252022
H90   H     H_    0.142670 0.700573 0.174560 0.254406
H91   H     H_    0.251565 0.643502 0.194225 0.238141
H92   H     H_    0.127743 0.641275 0.335836 0.215182
H93   H     H_    0.191679 0.531250 0.327479 0.217073
H94   H     H_    0.082787 0.516683 0.277452 0.210150
H95   H     H_    0.014795 0.629413 0.273432 0.202299
C100  C     C_3   0.071098 0.391962 0.644923 -0.398607
C101  C     C_3   0.165863 0.403344 0.611474 -0.337661
C102  C     C_3   0.222855 0.334509 0.673656 -0.857292
H96   H     H_    0.190889 0.340682 0.742648 0.264107
H97   H     H_    0.231411 0.265736 0.674527 0.247734
H98   H     H_    0.289876 0.346046 0.650022 0.245548
H99   H     H_    0.198115 0.394992 0.543264 0.212339
H100  H     H_    0.163719 0.470959 0.607911 0.234286
H101  H     H_    0.039435 0.394349 0.714619 0.190299
H102  H     H_    0.079109 0.322337 0.648724 0.194595

loop_
_geom_bond_atom_site_label_1
_geom_bond_atom_site_label_2
_geom_bond_distance
_ccdc_geom_bond_type
C70   H32   1.105041 S    
C38   H2    1.079971 S    
O6    C14   1.297059 A    
C83   H58   1.111448 S    
C6    C45   1.400278 A    
O7    C11   1.300355 A    
O10   C10   1.300904 A    
C48   C60   1.404459 A    
C15   O21   1.291191 A    
C9    C53   1.470306 S    
C78   H40   1.110828 S    
C88   H74   1.108223 S    
C17   O23   1.293090 A    
C97   H95   1.109649 S    
C76   C77   1.538709 S    
C23   C29   1.421381 A    
C73   C74   1.538660 S    
C84   H55   1.109860 S    
C24   C30   1.422361 A    
C94   C95   1.544174 S    
C48   H12   1.076074 S    
C99   H91   1.110556 S    
C86   H65   1.108598 S    
C57   C66   1.392964 A    
C75   H34   1.110742 S    
C34   C79   1.529357 S    
C47   H11   1.080343 S    
C82   C83   1.535296 S    
C70   C71   1.543607 S    
C13   O19   1.284490 A    
C15   C59   1.462504 S    
C100  H102  1.111124 S    
C80   C81   1.526387 S    
C40   C52   1.405164 A    
Cu3   O22   1.955701 S    
C39   C51   1.405910 A    
C69   H20   1.110273 S    
C23   C34   1.421675 A    
O9    Cu4   1.956513 S    
O5    C13   1.300446 A    
C3    C48   1.407041 A    
C41   C53   1.409960 A    
C24   C33   1.417153 A    
O3    C15   1.302482 A    
C82   H59   1.106824 S    
C56   C61   1.394175 A    
C92   C93   1.527054 S    
O8    Cu5   1.963654 S    
O2    C18   1.301016 A    
C68   C69   1.527562 S    
C60   C63   1.387522 A    
C4    C47   1.409455 A    
C66   H18   1.083442 S    
C89   H71   1.110673 S    
C93   H76   1.109874 S    
C98   H92   1.109089 S    
C65   H17   1.083299 S    
C90   H70   1.108087 S    
C74   H37   1.109713 S    
Cu1   O13   1.955111 S    
C7    O13   1.291724 A    
C47   C59   1.405990 A    
C95   H85   1.110486 S    
C28   C36   1.414306 A    
C81   H47   1.111062 S    
C52   C64   1.386661 A    
C102  H96   1.111108 S    
C9    O15   1.292481 A    
C87   H62   1.109096 S    
O5    Cu5   1.962803 S    
C5    C46   1.399896 A    
Cu5   Cu6   2.672806 S    
C94   H87   1.106762 S    
C16   O22   1.291670 A    
C3    C21   1.509675 S    
C46   H10   1.080310 S    
O9    C9    1.302968 A    
C27   C100  1.528040 S    
C28   C97   1.524992 S    
C29   C94   1.528761 S    
C73   H38   1.108269 S    
C61   H13   1.083422 S    
C63   H15   1.083593 S    
C80   H51   1.109343 S    
C83   H57   1.111270 S    
C81   H48   1.109165 S    
Cu3   Cu4   2.687335 S    
C53   C65   1.394595 A    
C89   H72   1.111901 S    
C14   C58   1.465045 S    
C45   C57   1.409830 A    
C84   H56   1.110360 S    
C41   H5    1.081893 S    
O10   Cu3   1.956512 S    
C6    C42   1.398312 A    
C86   H64   1.107300 S    
C3    C39   1.410194 A    
C75   H35   1.110573 S    
O4    C16   1.299460 A    
O11   Cu2   1.958427 S    
O1    Cu1   1.956753 S    
C67   H24   1.107057 S    
C68   H22   1.109091 S    
C26   C85   1.530133 S    
O2    Cu2   1.956753 S    
C96   H82   1.110029 S    
Cu2   O23   1.960375 S    
C2    C43   1.404491 A    
C46   C58   1.403521 A    
C78   H42   1.109831 S    
C37   H1    1.083558 S    
C98   C99   1.527546 S    
C44   C56   1.405469 A    
C69   H21   1.110088 S    
C49   C61   1.393210 A    
C84   H54   1.110735 S    
C6    C24   1.486467 S    
C95   C96   1.527205 S    
C8    O14   1.290717 A    
C64   H16   1.083551 S    
C91   H81   1.101973 S    
C79   H52   1.109115 S    
C99   H89   1.109578 S    
C19   C25   1.417180 A    
C20   C26   1.422357 A    
Cu5   O20   1.962613 S    
C91   C92   1.529792 S    
O12   C8    1.300710 A    
C21   C36   1.427432 A    
C93   H77   1.110082 S    
C43   C55   1.409962 A    
C97   C98   1.538925 S    
C72   H27   1.105740 S    
C74   H36   1.108930 S    
C96   H84   1.110336 S    
O4    Cu4   1.959040 S    
C85   C86   1.539242 S    
Cu3   O15   1.959883 S    
C71   H30   1.110118 S    
C7    C51   1.463577 S    
C87   H63   1.110491 S    
Cu4   O16   1.959881 S    
Cu4   O21   1.955699 S    
C37   C49   1.409675 A    
C100  C101  1.535702 S    
C14   O20   1.287960 A    
C4    C40   1.409928 A    
C101  C102  1.527263 S    
C16   C60   1.461052 S    
C22   C28   1.425604 A    
Cu6   O18   1.963689 S    
C43   H7    1.081742 S    
C42   H6    1.083856 S    
C68   H23   1.109777 S    
C77   H44   1.112371 S    
C76   H46   1.110462 S    
C45   H9    1.083595 S    
C86   C87   1.526142 S    
C102  H97   1.110857 S    
C94   H88   1.104796 S    
C5    C41   1.404146 A    
C81   H49   1.110485 S    
C13   C57   1.466328 S    
C8    C52   1.461620 S    
C83   C84   1.524409 S    
C1    C19   1.486483 S    
O3    Cu3   1.959038 S    
C99   H90   1.110746 S    
C101  H99   1.111776 S    
C92   H79   1.109590 S    
C72   H26   1.110070 S    
C36   C73   1.524677 S    
C5    C23   1.492686 S    
C11   C49   1.466591 S    
O1    C17   1.303008 A    
C85   H66   1.109176 S    
C77   C78   1.525953 S    
C1    C37   1.400182 A    
C70   H31   1.106897 S    
C59   C64   1.386960 A    
C20   C31   1.421885 A    
C73   H39   1.109847 S    
C58   C65   1.392848 A    
C2    C38   1.400073 A    
C19   C32   1.422301 A    
C11   O17   1.284693 A    
Cu1   O24   1.960375 S    
C4    C22   1.511654 S    
C88   H73   1.106647 S    
C74   C75   1.527703 S    
C97   H94   1.107777 S    
C80   H50   1.107655 S    
C18   C56   1.463834 S    
O6    Cu6   1.962803 S    
C79   H53   1.107369 S    
C44   H8    1.083859 S    
C78   H41   1.110812 S    
C75   H33   1.109437 S    
C29   C33   1.418798 A    
Cu5   O17   1.963691 S    
C10   C54   1.463322 S    
C30   C34   1.426556 A    
C100  H101  1.102502 S    
Cu1   Cu2   2.687715 S    
C82   H60   1.107717 S    
C72   H28   1.110301 S    
O8    C12   1.296864 A    
C32   C67   1.529519 S    
C51   C63   1.387176 A    
C69   H19   1.111351 S    
C62   H14   1.083285 S    
C92   H78   1.109429 S    
C88   C89   1.536604 S    
C2    C20   1.492973 S    
C71   H29   1.110363 S    
C71   C72   1.526866 S    
C101  H100  1.108544 S    
C25   C31   1.418915 A    
O12   Cu1   1.958427 S    
C38   C50   1.403348 A    
C76   H45   1.109056 S    
C18   O24   1.291355 A    
Cu2   O14   1.955109 S    
C26   C32   1.426911 A    
C25   C88   1.530000 S    
C54   C66   1.393843 A    
C93   H75   1.110984 S    
C40   H4    1.079888 S    
C98   H93   1.110362 S    
C90   H69   1.108468 S    
C55   C62   1.394969 A    
C39   H3    1.079899 S    
C50   C62   1.393237 A    
C33   C82   1.530144 S    
C67   H25   1.101850 S    
C77   H43   1.110367 S    
C42   C54   1.405351 A    
O11   C7    1.303047 A    
C95   H86   1.110599 S    
C21   C27   1.429113 A    
C90   H68   1.110691 S    
C102  H98   1.109824 S    
C91   H80   1.107117 S    
C1    C44   1.398569 A    
C87   H61   1.111017 S    
C79   C80   1.540139 S    
C96   H83   1.105439 S    
Cu6   O19   1.962613 S    
C10   O16   1.291005 A    
C12   O18   1.288485 A    
C31   C70   1.529854 S    
C67   C68   1.529164 S    
C89   C90   1.524434 S    
C17   C55   1.471147 S    
C35   C76   1.525552 S    
C22   C35   1.424773 A    
O7    Cu6   1.963656 S    
C30   C91   1.529417 S    
C85   H67   1.108328 S    
C27   C35   1.411536 A    
C12   C50   1.465636 S    
