data_mof_unit_25214.cif
_audit_creation_date              2012-12-10T19:00:12-0500
_audit_creation_method            fapswitch 2.2
_symmetry_space_group_name_H-M    P1
_symmetry_Int_Tables_number       1
_space_group_crystal_system       triclinic
_cell_length_a                    9.715171
_cell_length_b                    10.814273
_cell_length_c                    13.505222
_cell_angle_alpha                 90.098439
_cell_angle_beta                  72.542287
_cell_angle_gamma                 89.807413
_cell_volume                      1353.52322627

loop_
_atom_site_label
_atom_site_type_symbol
_atom_type_description
_atom_site_fract_x
_atom_site_fract_y
_atom_site_fract_z
_atom_type_partial_charge
C1    C     C_R   0.500140 0.737167 0.499285 0.771407
C2    C     C_R   0.441332 0.494844 0.978444 0.082455
C3    C     C_R   0.472248 0.533063 0.873109 -0.002973
C4    C     C_R   0.547499 0.513683 0.030110 0.012447
C5    C     C_R   0.682499 0.562385 0.973446 0.034146
C6    C     C_R   0.713385 0.579390 0.866608 0.426440
C7    C     C_R   0.601204 0.593703 0.826002 -0.299211
C8    C     C_R   0.524021 0.487753 0.135497 -0.257711
C9    C     C_R   0.753660 0.582033 0.130855 0.136443
C10   C     C_R   0.373709 0.511004 0.817296 -0.087613
C11   C     C_R   0.380210 0.936936 0.490839 0.140662
C12   C     C_R   0.421311 0.506069 0.700438 0.764953
C13   C     C_R   0.503833 0.870621 0.490703 -0.097533
C14   C     C_R   0.633699 0.935026 0.477223 -0.226215
C15   C     C_R   0.633974 0.063839 0.477255 -0.218806
C16   C     C_R   0.504515 0.129430 0.490509 -0.097558
C17   C     C_R   0.380569 0.064300 0.490990 0.123944
C18   C     C_3   0.231837 0.071842 0.565353 -0.472460
C19   C     C_3   0.231014 0.931583 0.564755 -0.479000
C20   C     C_R   0.939719 0.397397 0.470526 0.235787
C21   C     C_R   0.910640 0.597953 0.536534 -0.079919
C22   C     C_R   0.057964 0.597612 0.537112 -0.066686
C23   C     C_R   0.500703 0.262888 0.498855 0.798878
C24   C     C_R   0.085855 0.397699 0.470087 0.239430
C25   C     C_3   0.134110 0.334766 0.367171 -0.495072
C26   C     C_3   0.977413 0.333235 0.368007 -0.494952
C27   C     C_R   0.578466 0.505466 0.300658 0.791884
C28   C     C_R   0.780173 0.600646 0.024533 -0.237844
C29   C     C_R   0.623750 0.522029 0.187109 -0.071595
C30   C     C_R   0.229867 0.490251 0.876337 0.106385
C31   C     C_R   0.197372 0.450497 0.979394 -0.201393
C32   C     C_R   0.303459 0.446853 0.028464 -0.191001
Cu1   Cu    Cu3+1 0.359330 0.500020 0.500010 0.936448
Cu2   Cu    Cu3+1 0.640670 0.499980 0.499990 0.923614
H1    H     H_    0.733831 0.111271 0.471796 0.157348
H2    H     H_    0.229900 0.112205 0.641574 0.198218
H3    H     H_    0.153217 0.113070 0.529627 0.191160
H4    H     H_    0.227557 0.890229 0.640782 0.193567
H5    H     H_    0.152527 0.892831 0.527866 0.190264
H6    H     H_    0.844302 0.678189 0.566117 0.142545
H7    H     H_    0.098728 0.677022 0.567770 0.145820
H8    H     H_    0.202795 0.394933 0.305647 0.205008
H9    H     H_    0.178840 0.241026 0.371827 0.190759
H10   H     H_    0.956707 0.390792 0.306018 0.203035
H11   H     H_    0.932061 0.238483 0.374085 0.185243
H12   H     H_    0.871295 0.656107 0.983152 0.165023
H13   H     H_    0.426797 0.442950 0.180125 0.147472
H14   H     H_    0.270488 0.414795 0.107466 0.128630
H15   H     H_    0.087682 0.427979 0.024045 0.130721
H16   H     H_    0.625021 0.638331 0.751454 0.177901
H17   H     H_    0.733658 0.886605 0.471237 0.162413
N1    N     N_R   0.852320 0.499070 0.499340 -0.197060
N2    N     N_R   0.148230 0.499110 0.499340 -0.192080
O1    O     O_R   0.381190 0.680360 0.500000 -0.578937
O2    O     O_R   0.618780 0.680320 0.499990 -0.592884
O3    O     O_R   0.323230 0.500000 0.650990 -0.578366
O4    O     O_R   0.560820 0.499960 0.650980 -0.595929
O5    O     O_R   0.381220 0.319680 0.500010 -0.576710
O6    O     O_R   0.618810 0.319640 0.500000 -0.582291
O7    O     O_R   0.439180 0.500040 0.349020 -0.578108
O8    O     O_R   0.676770 0.500000 0.349010 -0.576616
C33   C     C_3   0.861955 0.635850 0.179836 -0.401153
C34   C     C_3   0.806209 0.756062 0.237517 -0.771297
H18   H     H_    0.699667 0.742398 0.295775 0.251009
H19   H     H_    0.883469 0.789166 0.277760 0.231542
H20   H     H_    0.795174 0.828016 0.181760 0.237890
H21   H     H_    0.892316 0.568350 0.231008 0.217833
H22   H     H_    0.965248 0.657084 0.119304 0.192007
O9    O     O_3   0.847866 0.552013 0.799902 -0.646045
C35   C     C_3   0.845873 0.434937 0.750979 0.039913
H23   H     H_    0.950298 0.422753 0.689986 0.159726
H24   H     H_    0.763791 0.431205 0.709270 0.193311
C36   C     C_3   0.825989 0.324458 0.825688 -0.396496
H25   H     H_    0.905865 0.328222 0.869484 0.215112
H26   H     H_    0.716059 0.326420 0.882004 0.223826
C37   C     C_3   0.844870 0.202248 0.766271 -0.908994
H27   H     H_    0.764539 0.194981 0.722813 0.259498
H28   H     H_    0.828727 0.123980 0.821639 0.259210
H29   H     H_    0.955265 0.195442 0.710856 0.250746
C38   C     C_3   0.109285 0.533570 0.838981 -0.316607
C39   C     C_3   0.118899 0.674080 0.820087 -0.781562
H30   H     H_    0.119052 0.723409 0.892286 0.227036
H31   H     H_    0.218621 0.698774 0.757893 0.232032
H32   H     H_    0.026540 0.708550 0.795883 0.266176
H33   H     H_    0.106592 0.481592 0.769859 0.240487
H34   H     H_    0.007977 0.510789 0.898166 0.210873

loop_
_geom_bond_atom_site_label_1
_geom_bond_atom_site_label_2
_ccdc_geom_bond_type
C23   O5    A    
C34   H19   S    
Cu1   O5    S    
C27   C29   S    
C32   H14   S    
C36   H25   S    
C37   H29   S    
C4    C8    A    
C25   H9    S    
C39   H30   S    
C26   H10   S    
C23   O6    A    
C28   H12   S    
C33   C34   S    
C33   H21   S    
C8    C29   A    
C19   H5    S    
C18   H3    S    
C37   H28   S    
C3    C7    A    
C27   O7    A    
C30   C31   A    
C22   H7    S    
C15   C16   A    
C2    C32   A    
C18   C19   S    
C38   H34   S    
C27   O8    A    
C26   H11   S    
C14   H17   S    
C16   C17   A    
Cu2   O4    S    
C35   H23   S    
C6    O9    S    
C9    C29   A    
C30   C38   S    
Cu1   O3    S    
C34   H20   S    
Cu2   O2    S    
C21   C22   A    
C36   H26   S    
C31   H15   S    
C15   H1    S    
C39   H31   S    
Cu1   Cu2   S    
C22   N2    A    
Cu1   N2    S    
C9    C33   S    
C20   C24   A    
C37   H27   S    
C24   N2    A    
C4    C5    A    
C25   C26   S    
Cu2   O8    S    
C2    C4    A    
C1    O1    A    
C38   H33   S    
C19   H4    S    
C5    C28   A    
C10   C30   A    
C31   C32   A    
C11   C19   S    
C35   C36   S    
C17   C18   S    
C24   C25   S    
C12   O3    A    
C10   C12   S    
C12   O4    A    
C16   C23   S    
Cu2   O6    S    
C36   C37   S    
C1    C13   S    
C39   H32   S    
Cu1   O1    S    
C11   C17   A    
C7    H16   S    
C38   C39   S    
C25   H8    S    
C6    C7    A    
Cu1   O7    S    
Cu2   N1    S    
C33   H22   S    
C2    C3    A    
C1    O2    A    
C8    H13   S    
C20   N1    A    
C3    C10   A    
C11   C13   A    
C5    C6    A    
C21   H6    S    
C20   C26   S    
O9    C35   S    
C34   H18   S    
C14   C15   A    
C35   H24   S    
C13   C14   A    
C18   H2    S    
C21   N1    A    
C9    C28   A    
