data_mof_unit_12546.cif
_audit_creation_date              2012-12-11T16:56:14-0500
_audit_creation_method            fapswitch 2.2
_symmetry_space_group_name_H-M    P1
_symmetry_Int_Tables_number       1
_space_group_crystal_system       triclinic
_cell_length_a                    6.964613
_cell_length_b                    14.658852
_cell_length_c                    16.127405
_cell_angle_alpha                 90.428061
_cell_angle_beta                  89.645524
_cell_angle_gamma                 90.009251
_cell_volume                      1646.42141555

loop_
_atom_site_label
_atom_site_type_symbol
_atom_type_description
_atom_site_fract_x
_atom_site_fract_y
_atom_site_fract_z
_atom_type_partial_charge
O1    O     O_R   0.505830 0.583360 0.413880 -0.538592
O2    O     O_R   0.175830 0.595460 0.585520 -0.542858
O3    O     O_R   0.005520 0.416640 0.586120 -0.539426
C1    C     C_R   0.344446 0.617257 0.614299 0.706398
O4    O     O_R   0.176120 0.594390 0.414490 -0.544133
O5    O     O_R   0.005810 0.415570 0.413870 -0.539685
C2    C     C_R   0.345474 0.615398 0.385432 0.716807
O6    O     O_R   0.505540 0.584430 0.586130 -0.535374
O7    O     O_3   0.339200 0.441330 0.500000 -0.382572
V1    V     V_3+5 0.064350 0.510880 0.500000 1.385025
O8    O     O_R   0.676100 0.404540 0.414480 -0.552105
C3    C     C_R   0.845212 0.383686 0.385048 0.717100
O9    O     O_R   0.675810 0.405610 0.585510 -0.539618
C4    C     C_R   0.844850 0.382637 0.612526 0.725075
V2    V     V_3+5 0.564340 0.489120 0.500000 1.378943
O10   O     O_3   0.839360 0.558670 0.500000 -0.370390
C5    C     C_2   0.734326 0.198525 0.777393 -0.229488
C6    C     C_2   0.884911 0.191100 0.829678 0.322790
H1    H     H_    0.619437 0.148490 0.780084 0.084471
C7    C     C_2   0.711924 0.272822 0.715415 -0.105474
C8    C     C_2   0.861965 0.310482 0.675375 -0.267692
H2    H     H_    0.567033 0.292571 0.698861 0.120754
H3    H     H_    0.005845 0.285882 0.686844 0.162372
C9    C     C_R   0.726381 0.244659 0.191096 -0.113400
C10   C     C_R   0.881995 0.184338 0.184664 -0.206683
C11   C     C_R   0.023971 0.189154 0.246872 0.482164
C12   C     C_R   0.014661 0.258169 0.308829 -0.202296
H4    H     H_    0.120682 0.260676 0.356868 0.152515
C13   C     C_R   0.858426 0.317665 0.315260 -0.167297
C14   C     C_R   0.712571 0.307696 0.256987 0.031719
C15   C     C_3   0.506845 0.282787 0.272183 0.566517
C16   C     C_3   0.519669 0.218483 0.197035 -0.261687
H5    H     H_    0.440878 0.239018 0.140770 0.147406
H6    H     H_    0.501160 0.144970 0.210373 0.189480
C17   C     C_R   0.512908 0.692044 0.734671 0.060038
C18   C     C_R   0.354405 0.685332 0.682484 -0.097893
C19   C     C_R   0.203714 0.747877 0.699174 -0.192425
H7    H     H_    0.077754 0.748624 0.660250 0.121235
C20   C     C_R   0.215848 0.811551 0.765946 -0.177246
H8    H     H_    0.098691 0.859014 0.775690 0.116293
C21   C     C_R   0.378663 0.814637 0.818434 -0.119498
C22   C     C_R   0.524312 0.752977 0.798801 0.052435
C23   C     C_3   0.714744 0.718565 0.826351 0.121760
C24   C     C_3   0.700432 0.648614 0.754329 -0.393578
H9    H     H_    0.830061 0.770419 0.820326 0.108926
H10   H     H_    0.682362 0.576652 0.774296 0.187175
H11   H     H_    0.808399 0.659125 0.704440 0.144451
C25   C     C_R   0.526077 0.701421 0.275329 0.094822
C26   C     C_R   0.357009 0.685676 0.319952 -0.153159
C27   C     C_R   0.198929 0.741937 0.302859 -0.310975
H12   H     H_    0.069493 0.731176 0.338610 0.142550
C28   C     C_R   0.205362 0.809117 0.238955 0.455418
C29   C     C_R   0.374248 0.816159 0.188531 -0.207068
C30   C     C_R   0.532753 0.763422 0.210792 0.047823
C31   C     C_3   0.660342 0.703518 0.159420 -0.394139
C32   C     C_3   0.655423 0.636092 0.230683 -0.407482
H13   H     H_    0.804453 0.734006 0.148997 0.210533
H14   H     H_    0.588090 0.677558 0.102683 0.163889
H15   H     H_    0.796239 0.628819 0.262047 0.172848
H16   H     H_    0.583213 0.570821 0.214893 0.171373
O11   O     O_R   0.229930 0.912420 0.917160 -0.543964
O12   O     O_R   0.559420 0.902500 0.088780 -0.540893
O13   O     O_R   0.729660 0.081330 0.089380 -0.547554
C33   C     C_R   0.389153 0.880841 0.117690 0.747374
O14   O     O_R   0.559650 0.901420 0.917750 -0.550102
O15   O     O_R   0.729880 0.080250 0.917130 -0.553552
C34   C     C_R   0.390901 0.880016 0.888685 0.665301
O16   O     O_R   0.229700 0.913500 0.089410 -0.498936
O17   O     O_3   0.396250 0.055540 0.003280 -0.379234
V3    V     V_3+5 0.671130 0.986010 0.003260 1.414923
O18   O     O_R   0.059600 0.091310 0.917720 -0.547498
C35   C     C_R   0.891412 0.115119 0.890901 0.617358
O19   O     O_R   0.059370 0.092380 0.088750 -0.513474
C36   C     C_R   0.890396 0.114006 0.117819 0.778190
V4    V     V_3+5 0.171120 0.007820 0.003230 1.468209
O20   O     O_3   0.896130 0.938240 0.003240 -0.363009
N1    N     N_2   0.704012 0.676574 0.907363 -0.494357
H17   H     H_    0.640271 0.717738 0.951778 0.254084
C37   C     C_3   0.883027 0.638026 0.935509 -0.516372
H18   H     H_    0.858947 0.602447 0.995221 0.192679
H19   H     H_    0.991036 0.692904 0.945101 0.187779
H20   H     H_    0.939111 0.587692 0.889568 0.216096
O21   O     O_3   0.047738 0.863778 0.219604 -0.537836
C38   C     C_3   0.919624 0.877448 0.286750 -0.256516
H21   H     H_    0.820648 0.933994 0.271172 0.153552
H22   H     H_    0.995706 0.895271 0.345053 0.107138
H23   H     H_    0.830392 0.816375 0.297094 0.145478
O22   O     O_3   0.013478 0.263582 0.836019 -0.546539
C39   C     C_3   0.204711 0.234486 0.822952 -0.227661
H24   H     H_    0.217301 0.175189 0.779518 0.097039
H25   H     H_    0.274036 0.219309 0.883080 0.169180
H26   H     H_    0.286141 0.291648 0.795011 0.147096
O23   O     O_3   0.163740 0.122279 0.249672 -0.547697
C40   C     C_3   0.145769 0.073128 0.324237 -0.242586
H27   H     H_    0.994371 0.053622 0.337159 0.104536
H28   H     H_    0.199685 0.112730 0.377913 0.147279
H29   H     H_    0.234335 0.010475 0.319021 0.168429
N2    N     N_2   0.377359 0.360887 0.263587 -0.523156
H30   H     H_    0.383649 0.406123 0.312771 0.259574
C41   C     C_3   0.357717 0.406301 0.184457 -0.598884
H31   H     H_    0.285140 0.473126 0.193820 0.193690
H32   H     H_    0.265444 0.365349 0.142510 0.214822
H33   H     H_    0.500216 0.418476 0.155342 0.195802
N3    N     N_2   0.473743 0.235593 0.351188 -0.510063
H34   H     H_    0.431596 0.277507 0.399561 0.258384
C42   C     C_3   0.596994 0.161796 0.378988 -0.593536
H35   H     H_    0.516553 0.118654 0.423422 0.184161
H36   H     H_    0.722411 0.189365 0.412875 0.183191
H37   H     H_    0.646743 0.117440 0.327419 0.193207

loop_
_geom_bond_atom_site_label_1
_geom_bond_atom_site_label_2
_ccdc_geom_bond_type
C31   C32   S    
C1    C18   S    
O23   C40   S    
C3    C13   S    
C12   C13   A    
C21   C22   A    
C17   C18   A    
C38   H23   S    
C1    O6    A    
N3    C42   S    
C20   C21   A    
C29   C30   A    
O11   V4    S    
O16   V4    S    
C25   C30   A    
C11   C12   A    
C19   H7    S    
C33   O16   A    
C4    C8    S    
C18   C19   A    
C38   H22   S    
O5    C3    A    
C14   C15   S    
C29   C33   S    
C42   H35   S    
O14   V3    S    
C5    C7    S    
O12   V3    S    
C10   C36   S    
O19   C36   A    
C15   N2    S    
C17   C22   A    
O12   C33   A    
O8    V2    S    
O15   C35   A    
C15   C16   S    
O14   C34   A    
C27   C28   A    
O1    V2    S    
C39   H25   S    
O7    V1    S    
C24   H11   S    
O22   C39   S    
C11   O23   S    
O9    C4    A    
O19   V4    S    
C40   H27   S    
N3    H34   S    
C24   H10   S    
C27   H12   S    
N1    C37   S    
C8    H3    S    
C6    C35   S    
C9    C10   A    
C2    C26   S    
C21   C34   S    
C20   H8    S    
C37   H19   S    
C40   H29   S    
C10   C11   A    
N1    H17   S    
C41   H33   S    
C6    O22   S    
C32   H16   S    
C16   H6    S    
C28   O21   S    
O2    C1    A    
V4    O20   S    
C9    C16   S    
C13   C14   A    
O11   C34   A    
O21   C38   S    
O13   V3    S    
C41   H32   S    
C5    C6    D    
C38   H21   S    
C39   H26   S    
C40   H28   S    
C17   C24   S    
C23   H9    S    
O3    C4    A    
C25   C26   A    
C7    H2    S    
C26   C27   A    
O6    V2    S    
N2    C41   S    
O9    V2    S    
C23   C24   S    
V3    O20   S    
C22   C23   S    
O2    V1    S    
C28   C29   A    
O4    C2    A    
C25   C32   S    
C30   C31   S    
O1    C2    A    
O5    V1    S    
C37   H20   S    
O8    C3    A    
O13   C36   A    
C23   N1    S    
C32   H15   S    
C15   N3    S    
C31   H13   S    
O7    V2    S    
O4    V1    S    
C19   C20   A    
O3    V1    S    
V1    O10   S    
C16   H5    S    
O18   V4    S    
O15   V3    S    
C42   H36   S    
C41   H31   S    
C5    H1    S    
O17   V4    S    
O17   V3    S    
C9    C14   A    
C37   H18   S    
O18   C35   A    
C7    C8    D    
N2    H30   S    
C31   H14   S    
C12   H4    S    
C39   H24   S    
V2    O10   S    
C42   H37   S    
