data_mof_unit_30028.cif
_audit_creation_date              2012-12-11T15:55:58-0500
_audit_creation_method            fapswitch 2.2
_symmetry_space_group_name_H-M    P1
_symmetry_Int_Tables_number       1
_space_group_crystal_system       triclinic
_cell_length_a                    11.145462
_cell_length_b                    10.942191
_cell_length_c                    18.697072
_cell_angle_alpha                 90.442525
_cell_angle_beta                  90.23413
_cell_angle_gamma                 59.441368
_cell_volume                      1963.45658706

loop_
_atom_site_label
_atom_site_type_symbol
_atom_type_description
_atom_site_fract_x
_atom_site_fract_y
_atom_site_fract_z
_atom_type_partial_charge
C1    C     C_R   0.361448 0.764249 0.394651 0.531547
C2    C     C_R   0.235345 0.407475 0.208654 -0.160990
C3    C     C_R   0.255689 0.414516 0.281252 -0.029505
C4    C     C_R   0.418203 0.379717 0.382706 0.547372
C5    C     C_R   0.964403 0.582799 0.451387 -0.069583
C6    C     C_R   0.958708 0.672166 0.396772 -0.096255
C7    C     C_R   0.041767 0.615076 0.335795 -0.084449
C8    C     C_R   0.134883 0.467995 0.330271 0.044862
C9    C     C_R   0.391858 0.369215 0.306727 0.006208
C10   C     C_R   0.957487 0.295565 0.195466 0.009204
C11   C     C_R   0.985500 0.178850 0.238591 0.016602
C12   C     C_R   0.597941 0.246962 0.134094 0.036532
C13   C     C_R   0.940546 0.197747 0.309244 0.012380
C14   C     C_R   0.875135 0.441007 0.301426 -0.162330
C15   C     C_R   0.914496 0.424367 0.230386 -0.176220
C16   C     C_R   0.782148 0.376133 0.403950 0.527839
C17   C     C_3   0.958278 0.060189 0.228757 -0.263678
C18   C     C_3   0.913787 0.078112 0.306887 -0.284643
C19   C     C_R   0.868936 0.333612 0.339205 0.009817
C20   C     C_R   0.367888 0.813561 0.168853 0.008291
C21   C     C_R   0.450032 0.846117 0.212293 0.005266
C22   C     C_R   0.438686 0.844161 0.287529 0.014826
C23   C     C_R   0.348467 0.345369 0.161559 0.003073
C24   C     C_R   0.290294 0.745284 0.273101 -0.168296
C25   C     C_R   0.300629 0.748278 0.199371 -0.170205
C26   C     C_3   0.605154 0.751477 0.217104 -0.241901
C27   C     C_3   0.591671 0.763055 0.296911 -0.036917
C28   C     C_R   0.342505 0.771726 0.603260 0.552504
C29   C     C_R   0.352782 0.800231 0.318616 0.000751
C30   C     C_R   0.296037 0.302805 0.807095 0.049216
C31   C     C_R   0.408725 0.193977 0.770608 0.006055
C32   C     C_R   0.421647 0.194843 0.698203 0.031769
C33   C     C_R   0.195889 0.408899 0.692293 -0.172687
C34   C     C_R   0.502705 0.323226 0.258158 -0.165036
C35   C     C_R   0.182262 0.404007 0.766831 -0.111086
C36   C     C_3   0.561630 0.126137 0.784657 -0.006225
C37   C     C_3   0.578367 0.125141 0.704315 0.020985
C38   C     C_R   0.323274 0.312310 0.659176 -0.004708
C39   C     C_R   0.820758 0.324877 0.835062 -0.030025
C40   C     C_R   0.369340 0.347339 0.594264 0.541444
C41   C     C_R   0.747783 0.458549 0.803516 0.011051
C42   C     C_R   0.737822 0.469745 0.730572 -0.016965
C43   C     C_R   0.850136 0.216271 0.716873 0.319382
C44   C     C_R   0.864561 0.203318 0.791391 -0.093824
C45   C     C_R   0.481686 0.309810 0.185476 -0.027405
C46   C     C_3   0.761390 0.587955 0.810197 -0.259471
C47   C     C_3   0.755435 0.595986 0.729525 -0.260449
C48   C     C_R   0.795231 0.350637 0.685837 0.026462
C49   C     C_R   0.289931 0.869807 0.820663 0.053421
C50   C     C_R   0.187631 0.859061 0.783708 0.040343
C51   C     C_R   0.195083 0.843597 0.710664 0.051391
C52   C     C_R   0.763290 0.376459 0.610485 0.579281
C53   C     C_R   0.389038 0.882359 0.706835 -0.171793
C54   C     C_R   0.384747 0.892836 0.781177 -0.164280
C55   C     C_3   0.139014 0.756334 0.793807 0.222508
C56   C     C_R   0.134858 0.377909 0.383815 -0.055003
C57   C     C_3   0.148888 0.736887 0.713442 -0.194207
C58   C     C_R   0.303538 0.842346 0.671990 0.026170
C59   C     C_R   0.977179 0.287144 0.117722 0.560907
C60   C     C_R   0.326274 0.296843 0.092209 0.547470
C61   C     C_R   0.310462 0.892930 0.103040 0.542876
C62   C     C_R   0.883669 0.308664 0.904678 0.542681
C63   C     C_R   0.291626 0.284742 0.883444 0.577870
C64   C     C_R   0.742057 0.122694 0.006896 -0.080548
C65   C     C_R   0.272341 0.900141 0.896426 0.575412
C66   C     C_R   0.665496 0.270462 0.014340 -0.068768
C67   C     C_R   0.050847 0.435716 0.444478 -0.072749
C68   C     C_R   0.596182 0.332438 0.078137 -0.100017
C69   C     C_R   0.677534 0.097861 0.126790 0.134135
C70   C     C_R   0.751762 0.036675 0.063788 -0.048021
Cr1   Cr    Cr6+3 0.601740 0.606840 0.505840 0.983833
Cr2   Cr    Cr6+3 0.291500 0.601560 0.495070 1.012876
Cr3   Cr    Cr6+3 0.606780 0.291630 0.499130 1.024636
Cr4   Cr    Cr6+3 0.062440 0.063060 0.008240 0.999488
Cr5   Cr    Cr6+3 0.062950 0.375000 0.998920 1.015082
Cr6   Cr    Cr6+3 0.374550 0.061770 0.992470 1.004415
F1    F     F_    0.896897 0.098245 0.675504 -0.664379
F2    F     F_    0.236137 0.635738 0.829723 -0.650224
H1    H     H_    0.604752 0.297214 0.276858 0.110225
H2    H     H_    0.988563 0.988219 0.340807 0.153437
H3    H     H_    0.235277 0.696415 0.294431 0.144816
H4    H     H_    0.810800 0.922372 0.057525 0.107645
H5    H     H_    0.242287 0.714394 0.166550 0.137857
H6    H     H_    0.666060 0.794564 0.193587 0.189365
H7    H     H_    0.639350 0.642481 0.197170 0.123289
H8    H     H_    0.625616 0.661249 0.323606 0.180962
H9    H     H_    0.114067 0.496164 0.662483 0.114421
H10   H     H_    0.088066 0.483561 0.792892 0.140022
H11   H     H_    0.609091 0.019514 0.809645 0.162320
H12   H     H_    0.900661 0.627364 0.498710 0.108877
H13   H     H_    0.621976 0.190730 0.685576 0.213272
H14   H     H_    0.054474 0.366693 0.486646 0.111259
H15   H     H_    0.918643 0.098073 0.814221 0.147822
H16   H     H_    0.862783 0.568368 0.831034 0.158177
H17   H     H_    0.668992 0.677685 0.836471 0.140552
H18   H     H_    0.662673 0.691541 0.708868 0.169453
H19   H     H_    0.855603 0.572491 0.704763 0.130443
H20   H     H_    0.466411 0.893108 0.677470 0.160131
H21   H     H_    0.457801 0.915669 0.807466 0.140162
H22   H     H_    0.031351 0.805870 0.815373 0.116768
H23   H     H_    0.891423 0.785896 0.402118 0.117342
H24   H     H_    0.792250 0.074273 0.956692 0.119348
H25   H     H_    0.233162 0.630148 0.696272 0.176374
H26   H     H_    0.046142 0.775508 0.687283 0.120793
H27   H     H_    0.654820 0.337656 0.969836 0.121388
H28   H     H_    0.530471 0.446857 0.081450 0.110499
H29   H     H_    0.207232 0.264580 0.380972 0.113418
H30   H     H_    0.132205 0.440082 0.189570 0.133435
H31   H     H_    0.631026 0.849454 0.384550 0.245004
H32   H     H_    0.588092 0.952919 0.312224 0.247414
H33   H     H_    0.539886 0.324709 0.800973 0.256796
H34   H     H_    0.038446 0.686037 0.294863 0.098174
H35   H     H_    0.576905 0.225052 0.875040 0.251849
H36   H     H_    0.755156 0.933987 0.688473 0.253720
H37   H     H_    0.644703 0.988772 0.619102 0.254281
H38   H     H_    0.709237 0.028426 0.228720 0.224592
H39   H     H_    0.571702 0.033904 0.187682 0.253146
H40   H     H_    0.843434 0.542171 0.325377 0.176345
H41   H     H_    0.902502 0.516147 0.202378 0.138406
H42   H     H_    0.053009 0.958336 0.217083 0.163825
H43   H     H_    0.873776 0.089697 0.190493 0.167120
H44   H     H_    0.803123 0.111292 0.315368 0.139295
N1    N     N_3   0.645927 0.847572 0.329297 -0.646439
N2    N     N_3   0.599211 0.221317 0.820703 -0.662913
N3    N     N_3   0.649788 0.981276 0.674846 -0.669740
N4    N     N_3   0.675144 0.007564 0.180649 -0.659536
O1    O     O_R   0.748670 0.497520 0.427970 -0.540753
O2    O     O_R   0.417470 0.174910 0.067830 -0.500197
O3    O     O_R   0.375160 0.946380 0.070880 -0.493871
O4    O     O_R   0.476470 0.723930 0.429450 -0.512744
O5    O     O_R   0.160500 0.919670 0.926690 -0.503884
O6    O     O_R   0.933140 0.190380 0.936050 -0.522033
O7    O     O_R   0.909010 0.403210 0.925030 -0.520139
O8    O     O_R   0.179590 0.361290 0.918480 -0.489111
O9    O     O_R   0.391360 0.170840 0.907510 -0.541714
O10   O     O_R   0.350950 0.942600 0.922260 -0.524718
O11   O     O_3   0.166650 0.166610 0.999880 -0.277425
O12   O     O_R   0.300170 0.471020 0.567120 -0.505523
O13   O     O_R   0.264730 0.744140 0.416740 -0.526973
O14   O     O_R   0.309440 0.472410 0.418220 -0.488598
O15   O     O_R   0.501630 0.260530 0.414310 -0.525065
O16   O     O_R   0.727920 0.305730 0.428950 -0.511316
O17   O     O_R   0.738670 0.496020 0.588600 -0.538697
O18   O     O_R   0.467190 0.722540 0.578350 -0.505278
O19   O     O_R   0.254720 0.742640 0.577370 -0.508204
O20   O     O_R   0.491630 0.259030 0.574940 -0.528693
O21   O     O_R   0.718640 0.304340 0.577850 -0.459040
O22   O     O_3   0.500010 0.500010 0.500020 -0.272848
O23   O     O_R   0.186620 0.923750 0.087000 -0.531492
O24   O     O_R   0.957350 0.194160 0.084660 -0.492296
O25   O     O_R   0.935120 0.407280 0.085350 -0.527508
O26   O     O_R   0.203800 0.365060 0.067090 -0.522485

loop_
_geom_bond_atom_site_label_1
_geom_bond_atom_site_label_2
_ccdc_geom_bond_type
C36   H11   S    
C66   C68   A    
C12   C69   A    
C23   C45   A    
C22   C29   A    
Cr4   O6    S    
C41   C42   A    
C5    C67   A    
C8    C56   A    
Cr6   O10   S    
Cr5   O8    S    
C7    C8    A    
C39   C41   A    
Cr3   O15   S    
C53   C54   A    
C64   H24   S    
C12   C68   A    
C26   C27   S    
C49   C65   S    
C13   C18   S    
Cr3   O21   S    
C62   O7    A    
C36   C37   S    
C36   N2    S    
C10   C15   A    
C26   H7    S    
C30   C31   A    
H32   N1    S    
C20   C25   A    
Cr2   O19   S    
C7    H34   S    
C60   O26   A    
C6    H23   S    
C20   C61   S    
C39   C62   S    
C24   C29   A    
C44   H15   S    
C17   H42   S    
Cr2   O13   S    
C46   H17   S    
Cr5   O25   S    
C14   H40   S    
C40   O12   A    
C55   H22   S    
C41   C46   S    
Cr4   O23   S    
C28   O18   A    
C64   C70   A    
H39   N4    S    
C5    H12   S    
C1    O13   A    
C61   O3    A    
Cr2   O12   S    
Cr1   O22   S    
H38   N4    S    
Cr4   O5    S    
Cr1   O1    S    
C68   H28   S    
C30   C63   S    
C65   O5    A    
Cr6   O9    S    
C50   C51   A    
C37   N3    S    
Cr3   O16   S    
Cr6   O11   S    
C23   C60   S    
C57   H25   S    
Cr4   O11   S    
C52   O17   A    
C13   C19   A    
Cr3   O22   S    
C63   O8    A    
C62   O6    A    
C60   O2    A    
C24   C25   A    
C3    C8    S    
Cr5   O11   S    
C4    O15   A    
C51   C58   A    
H36   N3    S    
C27   N1    S    
H31   N1    S    
Cr2   O22   S    
C59   O25   A    
C63   O9    A    
C27   H8    S    
C16   O16   A    
C43   C44   A    
C56   H29   S    
C3    C9    A    
C34   H1    S    
C4    O14   A    
C35   H10   S    
C31   C32   A    
C46   H16   S    
C24   H3    S    
C48   C52   S    
Cr5   O26   S    
C47   H18   S    
Cr6   O3    S    
C1    C29   S    
C17   C18   S    
C28   O19   A    
C34   C45   A    
C42   C48   A    
C32   C37   S    
C6    C7    A    
C18   H44   S    
C51   C57   S    
C30   C35   A    
C17   H43   S    
C69   N4    S    
C1    O4    A    
C52   O21   A    
C32   C38   A    
C22   C27   S    
C55   C57   S    
C9    C34   A    
Cr6   O2    S    
C54   H21   S    
C66   H27   S    
Cr1   O17   S    
C43   C48   A    
C59   O24   A    
C55   F2    S    
C57   H26   S    
C46   C47   S    
C11   C17   S    
C26   H6    S    
H33   N2    S    
C31   C36   S    
C14   C19   A    
C50   C55   S    
C12   C45   S    
H37   N3    S    
C53   C58   A    
Cr5   O7    S    
C39   C44   A    
C28   C58   S    
C53   H20   S    
C43   F1    S    
C56   C67   A    
C33   C38   A    
C47   H19   S    
C40   O20   A    
Cr3   O20   S    
C2    C3    A    
C33   H9    S    
Cr1   O4    S    
C38   C40   S    
C11   C13   A    
C5    C6    A    
H35   N2    S    
C16   C19   S    
C21   C26   S    
C2    H30   S    
C67   H14   S    
C33   C35   A    
C15   H41   S    
C10   C59   S    
C42   C47   S    
C69   C70   A    
C70   H4    S    
C16   O1    A    
C65   O10   A    
C10   C11   A    
Cr2   O14   S    
C20   C21   A    
C18   H2    S    
C49   C50   A    
C2    C23   A    
C25   H5    S    
C14   C15   A    
Cr4   O24   S    
C4    C9    S    
C21   C22   A    
C61   O23   A    
C49   C54   A    
C37   H13   S    
C64   C66   A    
Cr1   O18   S    
