data_mof_unit_24337.cif
_audit_creation_date              2012-12-10T17:46:33-0500
_audit_creation_method            fapswitch 2.2
_symmetry_space_group_name_H-M    P1
_symmetry_Int_Tables_number       1
_space_group_crystal_system       triclinic
_cell_length_a                    20.791748
_cell_length_b                    21.21695
_cell_length_c                    14.742587
_cell_angle_alpha                 90.000167
_cell_angle_beta                  127.810155
_cell_angle_gamma                 89.999395
_cell_volume                      5138.07260267

loop_
_atom_site_label
_atom_site_type_symbol
_atom_type_description
_atom_site_fract_x
_atom_site_fract_y
_atom_site_fract_z
_atom_type_partial_charge
C1    C     C_R   0.603726 0.914511 0.632628 0.803692
C2    C     C_R   0.396269 0.085487 0.367366 0.803686
C3    C     C_R   0.397633 0.913393 0.369067 0.802524
C4    C     C_R   0.602369 0.086603 0.630936 0.802531
C5    C     C_R   0.102369 0.413395 0.630936 0.802529
C6    C     C_R   0.897630 0.586604 0.369064 0.802531
C7    C     C_R   0.896275 0.414510 0.367373 0.803692
C8    C     C_R   0.103728 0.585487 0.632633 0.803695
C9    C     C_R   0.344848 0.762102 0.942262 -0.226061
C10   C     C_R   0.655261 0.237798 0.057885 -0.226074
C11   C     C_R   0.705801 0.799519 0.116814 -0.229647
C12   C     C_R   0.294332 0.200550 0.883315 -0.229622
C13   C     C_R   0.794235 0.299493 0.883231 -0.229658
C14   C     C_R   0.205752 0.700501 0.116777 -0.229635
C15   C     C_R   0.155039 0.262013 0.057596 -0.226048
C16   C     C_R   0.844746 0.737801 0.942125 -0.226069
C17   C     C_R   0.322577 0.004868 0.666515 -0.321024
C18   C     C_R   0.677423 0.995134 0.333484 -0.321049
C19   C     C_R   0.822576 0.495146 0.666514 -0.321046
C20   C     C_R   0.177423 0.504872 0.333485 -0.321026
C21   C     C_R   0.352044 0.002837 0.603453 0.070417
C22   C     C_R   0.647956 0.997166 0.396547 0.070407
C23   C     C_R   0.852043 0.497173 0.603452 0.070406
C24   C     C_R   0.147956 0.502838 0.396547 0.070418
C25   C     C_R   0.488021 0.998609 0.775099 -0.000008
C26   C     C_R   0.511979 0.001390 0.224901 -0.000036
C27   C     C_R   0.988021 0.501388 0.775100 -0.000023
C28   C     C_R   0.011979 0.498610 0.224901 -0.000008
C29   C     C_R   0.461890 0.000190 0.844832 -0.025262
C30   C     C_R   0.538110 0.999808 0.155168 -0.025258
C31   C     C_R   0.961889 0.499815 0.844831 -0.025260
C32   C     C_R   0.038110 0.500196 0.155168 -0.025257
C33   C     C_R   0.376979 0.003774 0.786895 0.162969
C34   C     C_R   0.623020 0.996225 0.213105 0.162978
C35   C     C_R   0.876979 0.496237 0.786893 0.162972
C36   C     C_R   0.123020 0.503781 0.213106 0.162978
C37   C     C_R   0.516107 0.998696 0.968555 0.076209
C38   C     C_R   0.483893 0.001301 0.031445 0.076191
C39   C     C_R   0.016106 0.501310 0.968555 0.076204
C40   C     C_R   0.983892 0.498705 0.031444 0.076201
C41   C     C_R   0.398690 0.005447 0.968477 -0.244979
C42   C     C_R   0.601309 0.994548 0.031523 -0.244987
C43   C     C_R   0.898689 0.494562 0.968475 -0.244989
C44   C     C_R   0.101309 0.505461 0.031524 -0.244955
C45   C     C_R   0.346683 0.006495 0.849078 -0.200659
C46   C     C_R   0.653317 0.993501 0.150922 -0.200715
C47   C     C_R   0.846682 0.493518 0.849075 -0.200700
C48   C     C_R   0.153316 0.506508 0.150923 -0.200677
C49   C     C_R   0.656041 0.139734 0.698910 -0.054631
C50   C     C_R   0.343967 0.860256 0.301102 -0.054640
C51   C     C_R   0.333497 0.131460 0.288307 -0.053095
C52   C     C_R   0.666469 0.868517 0.711654 -0.053079
C53   C     C_R   0.166487 0.631467 0.711681 -0.053083
C54   C     C_R   0.833534 0.368513 0.288353 -0.053081
C55   C     C_R   0.843963 0.639738 0.301096 -0.054632
C56   C     C_R   0.156041 0.360263 0.698915 -0.054634
C57   C     C_R   0.745691 0.224394 0.730640 -0.198475
C58   C     C_R   0.254280 0.775618 0.269342 -0.198462
C59   C     C_R   0.219856 0.198701 0.228878 -0.196522
C60   C     C_R   0.779948 0.801136 0.770881 -0.196532
C61   C     C_R   0.280033 0.698786 0.770994 -0.196525
C62   C     C_R   0.720053 0.301136 0.229124 -0.196535
C63   C     C_R   0.754338 0.724415 0.269397 -0.198470
C64   C     C_R   0.245788 0.275660 0.730738 -0.198462
C65   C     C_R   0.699505 0.171509 0.668738 -0.191637
C66   C     C_R   0.300467 0.828505 0.331238 -0.191621
C67   C     C_R   0.279345 0.155575 0.306147 -0.193794
C68   C     C_R   0.720513 0.844309 0.693682 -0.193817
C69   C     C_R   0.220572 0.655639 0.693760 -0.193815
C70   C     C_R   0.779486 0.344311 0.306319 -0.193811
C71   C     C_R   0.800514 0.671522 0.331285 -0.191634
C72   C     C_R   0.199575 0.328533 0.668817 -0.191636
C73   C     C_R   0.659619 0.161024 0.791511 -0.251255
C74   C     C_R   0.340427 0.838937 0.208544 -0.251259
C75   C     C_R   0.326710 0.149986 0.191832 -0.256883
C76   C     C_R   0.673317 0.850043 0.808198 -0.256869
C77   C     C_R   0.173319 0.649952 0.808207 -0.256868
C78   C     C_R   0.826694 0.350032 0.191820 -0.256875
C79   C     C_R   0.840379 0.661025 0.208488 -0.251251
C80   C     C_R   0.159560 0.338933 0.791451 -0.251265
C81   C     C_R   0.702488 0.215866 0.851750 0.090433
C82   C     C_R   0.297549 0.784097 0.148307 0.090429
C83   C     C_R   0.265519 0.191655 0.110578 0.089485
C84   C     C_R   0.734446 0.808310 0.889368 0.089487
C85   C     C_R   0.234475 0.691656 0.889416 0.089483
C86   C     C_R   0.765567 0.308298 0.110651 0.089491
C87   C     C_R   0.797523 0.715875 0.148266 0.090435
C88   C     C_R   0.202456 0.284100 0.851701 0.090418
C89   C     C_R   0.747664 0.246714 0.821898 0.163075
C90   C     C_R   0.252335 0.753275 0.178119 0.163065
C91   C     C_R   0.213158 0.217461 0.132174 0.164803
C92   C     C_R   0.786695 0.782413 0.867637 0.164817
C93   C     C_R   0.286767 0.717517 0.867737 0.164814
C94   C     C_R   0.713312 0.282408 0.132374 0.164817
C95   C     C_R   0.752361 0.746733 0.178135 0.163070
C96   C     C_R   0.247717 0.253307 0.821941 0.163071
C97   C     C_R   0.703136 0.239851 0.942363 0.064696
C98   C     C_R   0.296922 0.760092 0.057722 0.064699
C99   C     C_R   0.257022 0.210045 0.010958 0.065174
C100  C     C_R   0.742980 0.789941 0.989026 0.065172
C101  C     C_R   0.242996 0.710033 0.989061 0.065174
C102  C     C_R   0.757038 0.289926 0.010998 0.065175
C103  C     C_R   0.796876 0.739860 0.057653 0.064695
C104  C     C_R   0.203059 0.260077 0.942254 0.064696
C105  C     C_R   0.349442 0.783659 0.034875 -0.222063
C106  C     C_R   0.650656 0.216251 0.965259 -0.222062
C107  C     C_R   0.700417 0.820541 0.023262 -0.223117
C108  C     C_R   0.299681 0.179504 0.976827 -0.223143
C109  C     C_R   0.799615 0.320517 0.976778 -0.223122
C110  C     C_R   0.200389 0.679462 0.023249 -0.223126
C111  C     C_R   0.150473 0.283593 0.965016 -0.222066
C112  C     C_R   0.849352 0.716255 0.034752 -0.222060
Cu1   Cu    Cu3+1 0.526640 0.000000 0.436960 0.934187
Cu2   Cu    Cu3+1 0.473360 0.000000 0.563040 0.934201
Cu3   Cu    Cu3+1 0.026640 0.500000 0.436960 0.934199
Cu4   Cu    Cu3+1 0.973360 0.500000 0.563040 0.934185
H1    H     H_    0.386128 0.781404 0.927723 0.147305
H2    H     H_    0.614010 0.218472 0.072460 0.147302
H3    H     H_    0.672341 0.824322 0.140301 0.150331
H4    H     H_    0.327867 0.175792 0.859907 0.150324
H5    H     H_    0.827708 0.324288 0.859759 0.150323
H6    H     H_    0.172252 0.675724 0.140223 0.150331
H7    H     H_    0.113701 0.281268 0.072064 0.147293
H8    H     H_    0.885994 0.718472 0.927546 0.147308
H9    H     H_    0.369931 0.008069 0.009142 0.130977
H10   H     H_    0.630068 0.991923 0.990857 0.130948
H11   H     H_    0.869929 0.491942 0.009140 0.130955
H12   H     H_    0.130067 0.508091 0.990858 0.130959
H13   H     H_    0.370662 0.866721 0.183745 0.149732
H14   H     H_    0.629415 0.133218 0.816336 0.149710
H15   H     H_    0.628618 0.867526 0.816608 0.151493
H16   H     H_    0.371500 0.132594 0.183534 0.151516
H17   H     H_    0.871397 0.367510 0.183416 0.151494
H18   H     H_    0.128587 0.632502 0.816576 0.151501
H19   H     H_    0.129303 0.366702 0.816235 0.149746
H20   H     H_    0.870567 0.633212 0.183645 0.149704
H21   H     H_    0.302553 0.844211 0.402900 0.156273
H22   H     H_    0.697390 0.155823 0.597042 0.156272
H23   H     H_    0.716460 0.858273 0.619661 0.153614
H24   H     H_    0.283343 0.141568 0.380108 0.153595
H25   H     H_    0.783531 0.358282 0.380333 0.153614
H26   H     H_    0.216534 0.641665 0.619754 0.153609
H27   H     H_    0.197503 0.344249 0.597170 0.156278
H28   H     H_    0.802635 0.655839 0.402988 0.156274
H29   H     H_    0.320484 0.717829 0.754751 0.135022
H30   H     H_    0.679631 0.282070 0.245401 0.135016
H31   H     H_    0.720594 0.748163 0.293360 0.134773
H32   H     H_    0.279607 0.251957 0.706855 0.134787
H33   H     H_    0.779448 0.248136 0.706691 0.134770
H34   H     H_    0.220494 0.751897 0.293262 0.134779
H35   H     H_    0.179350 0.217696 0.245055 0.135024
H36   H     H_    0.820366 0.782065 0.754598 0.135018
H37   H     H_    0.396758 0.817587 0.089101 0.146532
H38   H     H_    0.603361 0.182303 0.911062 0.146534
H39   H     H_    0.664229 0.862300 0.981650 0.142784
H40   H     H_    0.335915 0.137769 0.018491 0.142803
H41   H     H_    0.835812 0.362270 0.018398 0.142787
H42   H     H_    0.164179 0.637716 0.981614 0.142788
H43   H     H_    0.103122 0.317489 0.910733 0.146532
H44   H     H_    0.896647 0.682306 0.088949 0.146538
H45   H     H_    0.690052 0.995984 0.489347 0.123713
H46   H     H_    0.309948 0.004021 0.510653 0.123690
H47   H     H_    0.190052 0.504021 0.489348 0.123699
H48   H     H_    0.809947 0.495993 0.510651 0.123715
H49   H     H_    0.257444 0.007514 0.621293 0.138641
H50   H     H_    0.742556 0.992490 0.378706 0.138643
H51   H     H_    0.757443 0.492507 0.621290 0.138644
H52   H     H_    0.242555 0.507520 0.378708 0.138641
N1    N     N_R   0.433280 0.000000 0.657760 -0.174746
N2    N     N_R   0.566720 0.000000 0.342240 -0.174753
N3    N     N_R   0.933280 0.500000 0.657760 -0.174755
N4    N     N_R   0.066720 0.500000 0.342240 -0.174748
O1    O     O_R   0.600040 0.935040 0.546740 -0.587633
O2    O     O_R   0.399960 0.064960 0.453260 -0.587619
O3    O     O_R   0.399960 0.935040 0.453260 -0.586252
O4    O     O_R   0.600040 0.064960 0.546740 -0.586258
O5    O     O_R   0.100040 0.435040 0.546740 -0.586249
O6    O     O_R   0.899960 0.564960 0.453260 -0.586257
O7    O     O_R   0.899960 0.435040 0.453260 -0.587634
O8    O     O_R   0.100040 0.564960 0.546740 -0.587627
O9    O     O_R   0.555010 0.935070 0.653220 -0.589212
O10   O     O_R   0.444990 0.064930 0.346780 -0.589207
O11   O     O_R   0.444990 0.935070 0.346780 -0.587313
O12   O     O_R   0.555010 0.064930 0.653220 -0.587310
O13   O     O_R   0.055010 0.435070 0.653220 -0.587324
O14   O     O_R   0.944990 0.564930 0.346780 -0.587309
O15   O     O_R   0.944990 0.435070 0.346780 -0.589211
O16   O     O_R   0.055010 0.564930 0.653220 -0.589209
H53   H     H_    0.281670 0.009626 0.804750 0.144958
H54   H     H_    0.718329 0.990370 0.195250 0.144953
H55   H     H_    0.781669 0.490393 0.804746 0.144953
H56   H     H_    0.218328 0.509643 0.195252 0.144954
H57   H     H_    0.448580 0.003221 0.188169 0.120548
H58   H     H_    0.551420 0.996779 0.811831 0.120518
H59   H     H_    0.948580 0.496778 0.188168 0.120518
H60   H     H_    0.051421 0.503209 0.811833 0.120538

loop_
_geom_bond_atom_site_label_1
_geom_bond_atom_site_label_2
_ccdc_geom_bond_type
C72   H27   S    
C105  H37   S    
C88   C96   A    
C14   H6    S    
Cu4   O6    S    
Cu2   N1    S    
C33   C45   A    
C5    C56   S    
C53   C77   A    
C5    O13   A    
C6    C55   S    
C109  H41   S    
C76   C84   A    
C79   C87   A    
C13   H5    S    
C18   H50   S    
C107  H39   S    
C61   C69   A    
C8    O16   A    
C99   C108  A    
Cu4   O16   S    
C1    O1    A    
C80   H19   S    
C19   H51   S    
C10   H2    S    
C32   C36   A    
C7    O15   A    
C51   C75   A    
C23   H48   S    
C1    C52   S    
C50   C74   A    
C60   H36   S    
C76   H15   S    
C61   C93   A    
C70   H25   S    
C10   C94   A    
C9    C105  A    
Cu3   Cu4   S    
C21   N1    A    
C63   C95   A    
C28   H59   S    
C55   C79   A    
C62   C70   A    
C14   C110  A    
C2    O10   A    
C63   H31   S    
C37   C42   A    
C61   H29   S    
C14   C90   A    
C13   C109  A    
C86   C94   A    
C59   C67   A    
C12   H4    S    
C85   C93   A    
C58   C66   A    
C40   C43   A    
C20   C24   A    
C29   C33   A    
C56   C72   A    
C57   H33   S    
C34   C46   A    
C97   C102  A    
C52   C68   A    
C81   C89   A    
C78   C86   A    
C32   C40   A    
C99   C104  A    
C53   C69   A    
C83   C99   A    
C6    O6    A    
C47   H55   S    
C82   C98   A    
C15   H7    S    
C17   C33   A    
C46   H54   S    
C73   C81   A    
C88   C104  A    
C3    C50   S    
C28   N4    A    
C60   C92   A    
C25   C29   A    
C20   H52   S    
C30   C34   A    
C27   C31   A    
C84   C100  A    
C15   C111  A    
C28   C32   A    
C102  C109  A    
C64   C96   A    
C38   C41   A    
C11   H3    S    
C43   H11   S    
C39   C40   A    
C12   C108  A    
C22   H45   S    
C1    O9    A    
C51   C67   A    
C106  H38   S    
C69   H26   S    
C100  C103  A    
C17   C21   A    
Cu4   N3    S    
C87   C95   A    
C103  C112  A    
C19   C23   A    
C37   C38   A    
C49   C65   A    
C41   H9    S    
C22   N2    A    
Cu3   O15   S    
C8    O8    A    
C98   C105  A    
Cu1   O10   S    
C54   C70   A    
C57   C65   A    
C45   H53   S    
C4    O4    A    
C7    C54   S    
C7    O7    A    
C59   C91   A    
C82   C90   A    
C4    O12   A    
C67   H24   S    
C18   C34   A    
C5    O5    A    
Cu3   O5    S    
C57   C89   A    
C58   C90   A    
Cu1   O4    S    
C87   C103  A    
C65   H22   S    
C3    O3    A    
Cu2   O3    S    
C79   H20   S    
C3    O11   A    
C26   C30   A    
C62   C94   A    
C42   C46   A    
C49   C73   A    
C10   C106  A    
C24   H47   S    
C77   H18   S    
C97   C106  A    
C86   C102  A    
C9    C93   A    
C85   C101  A    
C75   H16   S    
C16   C112  A    
Cu1   O1    S    
Cu1   Cu2   S    
C74   C82   A    
C11   C95   A    
Cu3   O14   S    
C73   H14   S    
C44   H12   S    
C100  C107  A    
C21   H46   S    
C112  H44   S    
C13   C89   A    
C18   C22   A    
Cu3   O8    S    
C111  H43   S    
Cu3   N4    S    
C52   C76   A    
C110  H42   S    
C8    C53   S    
C104  C111  A    
C50   C66   A    
C16   C92   A    
C39   C44   A    
C59   H35   S    
Cu2   O9    S    
C83   C91   A    
Cu4   O13   S    
C6    O14   A    
C108  H40   S    
C56   C80   A    
C98   C101  A    
C4    C49   S    
C60   C68   A    
C25   N1    A    
C101  C110  A    
C80   C88   A    
C17   H49   S    
C2    O2    A    
C11   C107  A    
C26   H57   S    
C75   C83   A    
Cu1   O11   S    
C66   H21   S    
C81   C97   A    
C77   C85   A    
Cu2   O12   S    
C31   C35   A    
C31   C39   A    
C36   C48   A    
Cu1   N2    S    
C64   C72   A    
C16   H8    S    
C24   N4    A    
C78   H17   S    
C55   C71   A    
C48   H56   S    
C2    C51   S    
C42   H10   S    
C15   C91   A    
C20   C36   A    
C44   C48   A    
Cu2   O2    S    
C23   N3    A    
C26   N2    A    
C62   H30   S    
C74   H13   S    
C29   C37   A    
C25   H58   S    
C41   C45   A    
C12   C96   A    
C68   H23   S    
C19   C35   A    
C27   H60   S    
C84   C92   A    
C30   C38   A    
C35   C47   A    
Cu4   O7    S    
C27   N3    A    
C43   C47   A    
C63   C71   A    
C64   H32   S    
C9    H1    S    
C58   H34   S    
C71   H28   S    
C54   C78   A    
