data_mof_unit_55648.cif
_audit_creation_date              2012-12-10T20:00:02-0500
_audit_creation_method            fapswitch 2.2
_symmetry_space_group_name_H-M    P1
_symmetry_Int_Tables_number       1
_space_group_crystal_system       triclinic
_cell_length_a                    15.069235
_cell_length_b                    14.216934
_cell_length_c                    8.911463
_cell_angle_alpha                 90.113223
_cell_angle_beta                  90.515736
_cell_angle_gamma                 89.322942
_cell_volume                      1908.96288509

loop_
_atom_site_label
_atom_site_type_symbol
_atom_type_description
_atom_site_fract_x
_atom_site_fract_y
_atom_site_fract_z
_atom_type_partial_charge
C1    C     C_R   0.327721 0.500507 0.502803 0.996358
C2    C     C_R   0.450828 0.894896 0.393749 -0.418352
C3    C     C_R   0.500001 0.499982 0.218634 0.918201
C4    C     C_R   0.500253 0.500096 0.781370 0.929205
C5    C     C_R   0.501104 0.052284 0.498792 0.099417
C6    C     C_R   0.501503 0.945806 0.498425 0.098340
C7    C     C_1   0.500253 0.500154 0.065385 -0.219845
C8    C     C_1   0.500341 0.500323 0.934625 -0.208979
C9    C     C_R   0.097492 0.559066 0.379591 0.337784
C10   C     C_R   0.905684 0.412704 0.425861 0.368002
C11   C     C_R   0.908239 0.579858 0.489712 0.348960
C12   C     C_R   0.672414 0.499439 0.493240 0.969535
C13   C     C_R   0.092433 0.429170 0.558477 0.384005
C14   C     C_R   0.185672 0.573041 0.420633 0.307927
C15   C     C_R   0.813933 0.412400 0.444705 0.270063
C16   C     C_R   0.815936 0.583136 0.483453 0.279099
C17   C     C_R   0.184872 0.426233 0.563182 0.251163
C18   C     C_R   0.231602 0.500734 0.497534 -0.401446
C19   C     C_R   0.768570 0.498125 0.474837 -0.409315
C20   C     C_R   0.049113 0.491972 0.459904 -0.156886
C21   C     C_R   0.952753 0.495072 0.457252 -0.135152
C22   C     C_3   0.376358 0.251432 0.201526 0.063102
C23   C     C_R   0.481726 0.203304 0.370433 0.533402
C24   C     C_3   0.364219 0.266462 0.033732 -0.768079
C25   C     C_3   0.603550 0.771192 0.848496 0.108198
C26   C     C_3   0.695522 0.804069 0.895446 -0.866658
C27   C     C_3   0.600976 0.210308 0.855523 0.059726
C28   C     C_3   0.642275 0.284331 0.957041 -0.748587
C29   C     C_3   0.421823 0.769938 0.139317 0.118755
C30   C     C_3   0.337327 0.805153 0.061965 -0.851555
C31   C     C_3   0.029123 0.577054 0.151192 0.137110
C32   C     C_3   0.984398 0.648297 0.048346 -0.870699
C33   C     C_3   0.956219 0.317489 0.238006 0.117155
C34   C     C_R   0.549873 0.793883 0.604565 0.564175
C35   C     C_3   0.987571 0.217706 0.204361 -0.825072
C36   C     C_3   0.953240 0.686892 0.666558 0.120278
C37   C     C_3   0.958125 0.793305 0.681000 -0.826156
C38   C     C_3   0.029832 0.414179 0.789920 0.157186
C39   C     C_3   0.937337 0.390320 0.844068 -0.918274
C40   C     C_3   0.184034 0.728873 0.480810 0.214295
C41   C     C_3   0.244915 0.812044 0.502796 -0.825268
C42   C     C_3   0.776163 0.268596 0.537910 0.180232
C43   C     C_3   0.747671 0.170954 0.488412 -0.827647
C44   C     C_3   0.780123 0.717644 0.356856 0.176639
C45   C     C_R   0.520286 0.203516 0.629606 0.531119
C46   C     C_3   0.725771 0.808326 0.362050 -0.811320
C47   C     C_3   0.223611 0.271044 0.577592 0.184945
C48   C     C_3   0.273837 0.197849 0.670034 -0.855590
C49   C     C_R   0.453761 0.795377 0.391399 0.534418
C50   C     C_R   0.485318 0.104165 0.367625 -0.388687
C51   C     C_R   0.553274 0.893605 0.601700 -0.415320
C52   C     C_R   0.516466 0.103511 0.630733 -0.427128
H1    H     H_    0.476052 0.068706 0.261159 0.166571
H2    H     H_    0.586569 0.709983 0.919473 0.158026
H3    H     H_    0.553059 0.826888 0.873497 0.091009
H4    H     H_    0.716414 0.863815 0.824586 0.247158
H5    H     H_    0.694435 0.827167 0.014320 0.203797
H6    H     H_    0.744488 0.745550 0.883514 0.266657
H7    H     H_    0.655395 0.175646 0.791393 0.119037
H8    H     H_    0.568255 0.157869 0.928310 0.158748
H9    H     H_    0.693695 0.251207 0.030451 0.210928
H10   H     H_    0.673567 0.339834 0.888525 0.225747
H11   H     H_    0.590533 0.316961 0.028751 0.296848
H12   H     H_    0.597911 0.929763 0.677141 0.164926
H13   H     H_    0.444805 0.705891 0.079084 0.167060
H14   H     H_    0.475166 0.823018 0.126213 0.086757
H15   H     H_    0.313048 0.870714 0.116380 0.235906
H16   H     H_    0.350901 0.819967 0.942055 0.203153
H17   H     H_    0.285038 0.750922 0.068605 0.285178
H18   H     H_    0.979086 0.522807 0.174874 0.108457
H19   H     H_    0.086607 0.544423 0.092002 0.118999
H20   H     H_    0.034165 0.697658 0.003569 0.253933
H21   H     H_    0.951643 0.610338 0.954943 0.185406
H22   H     H_    0.932799 0.688657 0.110021 0.254748
H23   H     H_    0.524256 0.065706 0.735085 0.149570
H24   H     H_    0.006143 0.366276 0.192199 0.106665
H25   H     H_    0.890922 0.328904 0.180581 0.157240
H26   H     H_    0.994016 0.207918 0.081264 0.205727
H27   H     H_    0.053187 0.204305 0.258539 0.243977
H28   H     H_    0.938999 0.166486 0.247576 0.256138
H29   H     H_    0.012477 0.655294 0.722584 0.120076
H30   H     H_    0.892144 0.664009 0.725492 0.155027
H31   H     H_    0.958080 0.813635 0.801368 0.209053
H32   H     H_    0.899796 0.826605 0.624446 0.268907
H33   H     H_    0.019784 0.819246 0.628817 0.237090
H34   H     H_    0.408008 0.931612 0.314908 0.165002
H35   H     H_    0.034623 0.492439 0.787202 0.093496
H36   H     H_    0.079608 0.387037 0.872334 0.159101
H37   H     H_    0.930917 0.313018 0.856670 0.259068
H38   H     H_    0.924931 0.424760 0.953738 0.192984
H39   H     H_    0.886668 0.416250 0.762468 0.242418
H40   H     H_    0.166679 0.702916 0.595044 0.100346
H41   H     H_    0.122765 0.755200 0.423950 0.202366
H42   H     H_    0.262468 0.842155 0.392411 0.273589
H43   H     H_    0.210539 0.867332 0.569481 0.187223
H44   H     H_    0.305540 0.789406 0.565068 0.256819
H45   H     H_    0.344009 0.311160 0.260905 0.163524
H46   H     H_    0.732398 0.293056 0.630091 0.144313
H47   H     H_    0.845258 0.262572 0.582583 0.179020
H48   H     H_    0.678653 0.173519 0.444170 0.258891
H49   H     H_    0.792229 0.144502 0.398774 0.255132
H50   H     H_    0.751239 0.121633 0.584751 0.189933
H51   H     H_    0.755367 0.674180 0.261262 0.105776
H52   H     H_    0.850063 0.737165 0.335657 0.180779
H53   H     H_    0.737960 0.846058 0.469419 0.268985
H54   H     H_    0.744724 0.854860 0.268099 0.187423
H55   H     H_    0.654277 0.792273 0.350312 0.238033
H56   H     H_    0.342006 0.184958 0.231323 0.106475
H57   H     H_    0.254207 0.274055 0.464738 0.102701
H58   H     H_    0.153885 0.247240 0.564941 0.180616
H59   H     H_    0.342017 0.222434 0.694022 0.277691
H60   H     H_    0.239164 0.185975 0.777614 0.248230
H61   H     H_    0.277664 0.130380 0.607247 0.203412
H62   H     H_    0.393250 0.205971 0.971390 0.255301
H63   H     H_    0.292410 0.272579 0.006051 0.205963
H64   H     H_    0.397424 0.331897 0.998457 0.283938
N1    N     N_R   0.500000 0.252470 0.500000 -0.162037
N2    N     N_R   0.500000 0.747530 0.500000 -0.176481
O1    O     O_R   0.369060 0.579480 0.500010 -0.556830
O2    O     O_3   0.605191 0.740619 0.697256 -0.539951
O3    O     O_3   0.537229 0.253996 0.760253 -0.577908
O4    O     O_3   0.403226 0.744676 0.289566 -0.537146
O5    O     O_3   0.056866 0.623094 0.283324 -0.553491
O6    O     O_3   0.950077 0.329121 0.394659 -0.558668
O7    O     O_3   0.954843 0.662067 0.513353 -0.576254
O8    O     O_3   0.044253 0.370172 0.649552 -0.563241
O9    O     O_3   0.225788 0.658399 0.391638 -0.529690
O10   O     O_3   0.768234 0.330468 0.414337 -0.568208
O11   O     O_3   0.772538 0.669384 0.494892 -0.534373
O12   O     O_R   0.630940 0.420520 0.499990 -0.589671
O13   O     O_3   0.228594 0.359372 0.650374 -0.578130
O14   O     O_R   0.630940 0.579480 0.499990 -0.541925
O15   O     O_R   0.369060 0.420520 0.500010 -0.623000
O16   O     O_R   0.500000 0.579460 0.285340 -0.613764
O17   O     O_R   0.500000 0.420540 0.714660 -0.551017
O18   O     O_R   0.500000 0.579460 0.714660 -0.621167
O19   O     O_R   0.500000 0.420540 0.285340 -0.573646
O20   O     O_3   0.467986 0.249780 0.236616 -0.584155
Zn1   Zn    Zn3+2 0.500000 0.606140 0.500000 1.023305
Zn2   Zn    Zn3+2 0.500000 0.393860 0.500000 1.017597

loop_
_geom_bond_atom_site_label_1
_geom_bond_atom_site_label_2
_ccdc_geom_bond_type
C34   N2    A    
C24   H62   S    
C17   O13   S    
C14   C18   A    
C23   O20   S    
C36   O7    S    
C40   H41   S    
C4    C8    S    
C52   H23   S    
O12   Zn2   S    
C44   H52   S    
C7    C8    T    
C32   H20   S    
O14   Zn1   S    
C15   C19   A    
C34   C51   A    
C12   O12   A    
C5    C6    S    
C37   H33   S    
C36   C37   S    
C11   O7    S    
C3    C7    S    
C10   C15   A    
C42   H46   S    
C32   H22   S    
C38   C39   S    
C41   H44   S    
C46   H53   S    
C35   H28   S    
C1    O1    A    
C9    C20   A    
C9    O5    S    
C31   H18   S    
C41   H42   S    
C36   H30   S    
C33   O6    S    
C5    C52   A    
C3    O19   A    
C6    C51   A    
C39   H38   S    
C30   H15   S    
C42   O10   S    
C4    O18   A    
C28   H9    S    
C31   H19   S    
C22   H45   S    
C29   O4    S    
C2    C6    A    
O18   Zn1   S    
C1    O15   A    
C39   H39   S    
C38   O8    S    
C44   H51   S    
C44   C46   S    
C10   C21   A    
C34   O2    S    
O17   Zn2   S    
O19   Zn2   S    
C50   H1    S    
C43   H48   S    
C32   H21   S    
C23   C50   A    
C45   C52   A    
C45   O3    S    
C44   O11   S    
C47   H57   S    
C40   O9    S    
C11   C21   A    
C40   H40   S    
C14   O9    S    
C47   O13   S    
C9    C14   A    
C43   H49   S    
C29   C30   S    
C2    C49   A    
C11   C16   A    
C33   H24   S    
C47   C48   S    
C36   H29   S    
C46   H55   S    
C17   C18   A    
C1    C18   S    
C37   H32   S    
C25   H2    S    
C16   O11   S    
C26   H6    S    
C24   H63   S    
C4    O17   A    
C29   H13   S    
C13   O8    S    
C40   C41   S    
C48   H60   S    
C24   H64   S    
C15   O10   S    
C22   C24   S    
C5    C50   A    
N1    Zn2   S    
C42   C43   S    
N2    Zn1   S    
C25   O2    S    
O16   Zn1   S    
C30   H17   S    
C45   N1    A    
C12   O14   A    
C13   C20   A    
C31   C32   S    
C51   H12   S    
C25   H3    S    
C26   H4    S    
C23   N1    A    
C47   H58   S    
C22   O20   S    
C35   H26   S    
C10   O6    S    
C13   C17   A    
C38   H35   S    
C27   H8    S    
C3    O16   A    
O1    Zn1   S    
C25   C26   S    
C43   H50   S    
C31   O5    S    
C27   H7    S    
C42   H47   S    
C33   H25   S    
C41   H43   S    
C16   C19   A    
C22   H56   S    
C49   O4    S    
C46   H54   S    
C12   C19   S    
C35   H27   S    
C33   C35   S    
C2    H34   S    
C26   H5    S    
C29   H14   S    
C49   N2    A    
C48   H59   S    
C20   C21   S    
O15   Zn2   S    
C38   H36   S    
C27   C28   S    
C27   O3    S    
C28   H11   S    
C37   H31   S    
C39   H37   S    
C30   H16   S    
C48   H61   S    
C28   H10   S    
