data_mof_unit_58597.cif
_audit_creation_date              2012-12-11T14:41:08-0500
_audit_creation_method            fapswitch 2.2
_symmetry_space_group_name_H-M    P1
_symmetry_Int_Tables_number       1
_space_group_crystal_system       triclinic
_cell_length_a                    24.630347
_cell_length_b                    17.568354
_cell_length_c                    15.597898
_cell_angle_alpha                 90.798464
_cell_angle_beta                  129.120312
_cell_angle_gamma                 90.370006
_cell_volume                      5234.84823471

loop_
_atom_site_label
_atom_site_type_symbol
_atom_type_description
_atom_site_fract_x
_atom_site_fract_y
_atom_site_fract_z
_atom_type_partial_charge
C1    C     C_R   0.346282 0.363080 0.229758 0.207716
C2    C     C_R   0.682446 0.620401 0.500823 -0.015510
C3    C     C_3   0.242043 0.205215 0.831360 -0.321327
C4    C     C_3   0.505534 0.287445 0.800918 -0.269565
C5    C     C_3   0.548954 0.649788 0.911140 -0.199151
C6    C     C_3   0.048144 0.843843 0.904678 -0.182565
C7    C     C_3   0.044160 0.147867 0.905559 -0.186417
C8    C     C_R   0.180679 0.873146 0.501991 -0.022447
C9    C     C_R   0.154024 0.171245 0.499036 -0.020046
C10   C     C_R   0.317007 0.388389 0.501443 -0.009849
C11   C     C_R   0.355152 0.675581 0.506622 -0.044278
C12   C     C_R   0.851790 0.826069 0.503433 -0.051767
C13   C     C_R   0.856421 0.176810 0.506424 -0.052377
C14   C     C_3   0.271183 0.349528 0.599443 0.100353
C15   C     C_3   0.341468 0.750622 0.630445 0.058361
C16   C     C_3   0.840151 0.751966 0.627529 0.050989
C17   C     C_R   0.336842 0.612406 0.203539 0.187736
C18   C     C_3   0.835332 0.240809 0.627719 0.055218
C19   C     C_3   0.798486 0.686018 0.624113 -0.468271
C20   C     C_3   0.791262 0.302203 0.625596 -0.453326
C21   C     C_3   0.227013 0.287076 0.599015 -0.467277
C22   C     C_3   0.297645 0.813630 0.626211 -0.455950
C23   C     C_3   0.194142 0.338224 0.390524 -0.373353
C24   C     C_3   0.237163 0.693229 0.445897 -0.345433
C25   C     C_3   0.734594 0.802277 0.443549 -0.355963
C26   C     C_3   0.734903 0.196257 0.431610 -0.347757
C27   C     C_3   0.299250 0.254508 0.509034 -0.442059
C28   C     C_R   0.844340 0.866442 0.222410 0.193101
C29   C     C_3   0.304838 0.803738 0.450091 -0.450341
C30   C     C_3   0.803399 0.695452 0.445919 -0.446800
C31   C     C_3   0.811344 0.307534 0.463237 -0.447329
C32   C     C_3   0.270622 0.335252 0.500182 0.289794
C33   C     C_3   0.311393 0.729678 0.509512 0.307714
C34   C     C_3   0.809083 0.770179 0.506155 0.319800
C35   C     C_3   0.811171 0.229229 0.508328 0.311670
C36   C     C_3   0.729998 0.671794 0.503720 0.369537
C37   C     C_3   0.727961 0.321202 0.504163 0.355757
C38   C     C_3   0.194672 0.231721 0.498416 0.363686
C39   C     C_R   0.834935 0.106564 0.199246 0.186899
C40   C     C_3   0.229433 0.823909 0.505220 0.354350
C41   C     C_3   0.691420 0.748462 0.455728 -0.388554
C42   C     C_3   0.688197 0.246177 0.440374 -0.393117
C43   C     C_3   0.148699 0.279010 0.391447 -0.391862
C44   C     C_3   0.191957 0.745375 0.455446 -0.381013
C45   C     C_R   0.657440 0.372996 0.776489 0.517038
C46   C     C_R   0.664353 0.616722 0.793499 0.507532
C47   C     C_R   0.166782 0.895236 0.798282 0.520116
C48   C     C_R   0.165357 0.113482 0.798000 0.534915
C49   C     C_3   0.750185 0.640077 0.434392 -0.405223
C50   C     C_R   0.628588 0.336288 0.817858 -0.214286
C51   C     C_3   0.756569 0.359549 0.450797 -0.401338
C52   C     C_3   0.253479 0.193590 0.505280 -0.405261
C53   C     C_3   0.250486 0.856296 0.437977 -0.400391
C54   C     C_2   0.667784 0.286573 0.909889 -0.160852
C55   C     C_2   0.694787 0.665362 0.973762 -0.122994
C56   C     C_2   0.192074 0.831448 0.960343 -0.196328
C57   C     C_2   0.195506 0.157143 0.981294 -0.105121
C58   C     C_2   0.713624 0.241825 0.917269 -0.000176
C59   C     C_2   0.763612 0.652466 0.039237 -0.102371
C60   C     C_2   0.231878 0.779924 0.961864 -0.036623
C61   C     C_R   0.646221 0.634769 0.859653 -0.204526
C62   C     C_2   0.264987 0.146901 0.046756 -0.133625
C63   C     C_2   0.324421 0.691555 0.061371 -0.160881
C64   C     C_2   0.353782 0.247465 0.136745 -0.175651
C65   C     C_2   0.814768 0.165079 0.036765 -0.160154
C66   C     C_2   0.851272 0.753140 0.126317 -0.159628
C67   C     C_2   0.284766 0.742268 0.061487 -0.138076
C68   C     C_2   0.311091 0.200951 0.138716 -0.131603
C69   C     C_2   0.769756 0.214253 0.023559 -0.111956
C70   C     C_2   0.810396 0.705790 0.130976 -0.144067
C71   C     C_R   0.613645 0.390514 0.408250 -0.138668
C72   C     C_R   0.146615 0.872915 0.859362 -0.214169
C73   C     C_R   0.614950 0.603992 0.408273 -0.134428
C74   C     C_R   0.114412 0.891713 0.408788 -0.142663
C75   C     C_R   0.096368 0.134598 0.406625 -0.129268
C76   C     C_R   0.385424 0.402039 0.592109 -0.081733
C77   C     C_R   0.410849 0.637870 0.596152 -0.074922
C78   C     C_R   0.909317 0.863291 0.593998 -0.066728
C79   C     C_R   0.911350 0.138313 0.596087 -0.069050
C80   C     C_R   0.687105 0.394115 0.592158 -0.118584
C81   C     C_R   0.689372 0.599901 0.591569 -0.125316
C82   C     C_R   0.187792 0.895973 0.592806 -0.099547
C83   C     C_R   0.147128 0.129532 0.864644 -0.224865
C84   C     C_R   0.175717 0.130381 0.590827 -0.127691
C85   C     C_R   0.311583 0.402371 0.410264 -0.111251
C86   C     C_R   0.334603 0.638369 0.411462 -0.120225
C87   C     C_R   0.830917 0.863273 0.409876 -0.121058
C88   C     C_R   0.836657 0.140045 0.411612 -0.113064
C89   C     C_R   0.565173 0.370091 0.773764 0.557077
C90   C     C_R   0.576822 0.608611 0.801482 0.496148
C91   C     C_R   0.076935 0.893471 0.801169 0.521190
C92   C     C_R   0.076924 0.106095 0.802958 0.496797
C93   C     C_R   0.440983 0.358912 0.238591 -0.166375
C94   C     C_R   0.679156 0.370066 0.501145 -0.008007
C95   C     C_R   0.430462 0.618528 0.209392 -0.168401
C96   C     C_R   0.940052 0.861536 0.234299 -0.160274
C97   C     C_R   0.926786 0.109778 0.201271 -0.171701
C98   C     C_R   0.380027 0.319654 0.200913 0.074708
C99   C     C_R   0.362898 0.642124 0.153890 0.088213
C100  C     C_R   0.877954 0.824048 0.192480 0.077819
C101  C     C_R   0.858164 0.129497 0.142500 0.083457
C102  C     C_3   0.758698 0.442892 0.866835 -0.213240
C103  C     C_3   0.738865 0.704989 0.812935 -0.271083
C104  C     C_3   0.276636 0.948119 0.930577 -0.157560
H1    H     H_    0.325447 0.346082 0.678606 0.093133
H2    H     H_    0.285542 0.798511 0.681373 0.197156
H3    H     H_    0.051415 0.788113 0.873161 0.111459
H4    H     H_    0.000309 0.841114 0.897043 0.190337
H5    H     H_    0.047040 0.204977 0.878086 0.098430
H6    H     H_    0.087135 0.141094 0.995292 0.149937
H7    H     H_    0.994658 0.145375 0.893233 0.191789
H8    H     H_    0.787267 0.700192 0.680810 0.183347
H9    H     H_    0.773128 0.282235 0.671198 0.202506
H10   H     H_    0.172294 0.395935 0.377760 0.193086
H11   H     H_    0.239402 0.636018 0.477539 0.214177
H12   H     H_    0.735995 0.860299 0.474407 0.202768
H13   H     H_    0.732623 0.136655 0.452407 0.199643
H14   H     H_    0.682892 0.774921 0.511593 0.189589
H15   H     H_    0.672843 0.215269 0.484237 0.190837
H16   H     H_    0.106708 0.307798 0.386521 0.176532
H17   H     H_    0.396387 0.772223 0.679289 0.090266
H18   H     H_    0.182095 0.718994 0.509109 0.199011
H19   H     H_    0.786337 0.707301 0.362262 0.170399
H20   H     H_    0.799006 0.300289 0.381533 0.171588
H21   H     H_    0.300854 0.243458 0.440148 0.182080
H22   H     H_    0.288390 0.790475 0.366616 0.168137
H23   H     H_    0.353705 0.249845 0.587682 0.154126
H24   H     H_    0.356568 0.833811 0.498706 0.166612
H25   H     H_    0.855538 0.668492 0.493867 0.167189
H26   H     H_    0.864235 0.334889 0.521003 0.166678
H27   H     H_    0.773401 0.582747 0.463121 0.156785
H28   H     H_    0.895461 0.733992 0.676261 0.088596
H29   H     H_    0.781013 0.415984 0.491232 0.155700
H30   H     H_    0.286375 0.158485 0.580515 0.157121
H31   H     H_    0.273034 0.914889 0.468035 0.160309
H32   H     H_    0.702916 0.634155 0.345887 0.164022
H33   H     H_    0.713095 0.369109 0.361638 0.166003
H34   H     H_    0.230635 0.154954 0.432197 0.166785
H35   H     H_    0.203707 0.859533 0.349186 0.162006
H36   H     H_    0.192025 0.324503 0.318610 0.171752
H37   H     H_    0.211614 0.685176 0.356753 0.160861
H38   H     H_    0.708106 0.807007 0.353966 0.162755
H39   H     H_    0.890978 0.260699 0.685275 0.087986
H40   H     H_    0.713440 0.195194 0.343905 0.163501
H41   H     H_    0.639095 0.740339 0.373124 0.153460
H42   H     H_    0.639366 0.257327 0.355488 0.151536
H43   H     H_    0.123275 0.242212 0.316214 0.151856
H44   H     H_    0.140317 0.751097 0.371907 0.151857
H45   H     H_    0.287898 0.751538 0.133755 0.139714
H46   H     H_    0.300050 0.212716 0.194831 0.158098
H47   H     H_    0.772727 0.232251 0.093669 0.137861
H48   H     H_    0.800329 0.717287 0.188446 0.148900
H49   H     H_    0.713207 0.231756 0.847811 0.163859
H50   H     H_    0.830403 0.633634 0.655309 0.150435
H51   H     H_    0.785682 0.612913 0.015108 0.180207
H52   H     H_    0.225752 0.765863 0.887870 0.165019
H53   H     H_    0.288020 0.110939 0.020838 0.177463
H54   H     H_    0.325358 0.684272 0.992989 0.160626
H55   H     H_    0.365492 0.235173 0.081528 0.140213
H56   H     H_    0.816865 0.149378 0.971276 0.160498
H57   H     H_    0.861390 0.742156 0.068827 0.145108
H58   H     H_    0.666251 0.294250 0.977646 0.151227
H59   H     H_    0.675552 0.707663 0.999536 0.154609
H60   H     H_    0.196288 0.844627 0.032491 0.141717
H61   H     H_    0.824299 0.354354 0.669751 0.146135
H62   H     H_    0.175467 0.196344 0.009156 0.154043
H63   H     H_    0.593304 0.387324 0.323325 0.094000
H64   H     H_    0.592816 0.607666 0.322632 0.092971
H65   H     H_    0.093909 0.887890 0.323814 0.095239
H66   H     H_    0.069623 0.145121 0.320662 0.095540
H67   H     H_    0.406208 0.405402 0.676989 0.175164
H68   H     H_    0.440086 0.651319 0.682361 0.156041
H69   H     H_    0.938431 0.850882 0.679522 0.160357
H70   H     H_    0.939427 0.150835 0.682257 0.148447
H71   H     H_    0.734643 0.397740 0.676351 0.148110
H72   H     H_    0.261965 0.255971 0.677355 0.135539
H73   H     H_    0.737163 0.593425 0.674906 0.150841
H74   H     H_    0.234809 0.900606 0.677599 0.162757
H75   H     H_    0.226054 0.133887 0.671257 0.164879
H76   H     H_    0.263403 0.411209 0.328944 0.156552
H77   H     H_    0.291551 0.652349 0.327952 0.131053
H78   H     H_    0.784643 0.851241 0.327495 0.141771
H79   H     H_    0.795416 0.155822 0.328174 0.130796
H80   H     H_    0.477588 0.342607 0.225705 0.115109
H81   H     H_    0.462966 0.625459 0.185565 0.119729
H82   H     H_    0.976710 0.846214 0.221108 0.115292
H83   H     H_    0.328595 0.868015 0.659095 0.150906
H84   H     H_    0.956547 0.109764 0.171990 0.119193
H85   H     H_    0.749787 0.464844 0.924368 0.141942
H86   H     H_    0.739880 0.483868 0.800219 0.166496
H87   H     H_    0.816003 0.437877 0.914939 0.167205
H88   H     H_    0.734531 0.741647 0.866972 0.177521
H89   H     H_    0.700945 0.723618 0.725908 0.156036
H90   H     H_    0.792407 0.713995 0.840474 0.183106
H91   H     H_    0.308629 0.911538 0.003825 0.148000
H92   H     H_    0.246794 0.988628 0.941636 0.122842
H93   H     H_    0.313214 0.982372 0.927198 0.172507
H94   H     H_    0.184818 0.312160 0.596788 0.191647
H95   H     H_    0.244377 0.235231 0.896486 0.189054
H96   H     H_    0.200660 0.231858 0.751092 0.147893
H97   H     H_    0.293215 0.215225 0.850490 0.168427
H98   H     H_    0.547773 0.254145 0.872317 0.171686
H99   H     H_    0.486927 0.259470 0.721705 0.120871
H100  H     H_    0.460878 0.286470 0.801881 0.159834
H101  H     H_    0.547871 0.707161 0.880441 0.111517
H102  H     H_    0.595529 0.643458 0.999093 0.149086
H103  H     H_    0.502843 0.645383 0.907997 0.198194
H104  H     H_    0.092597 0.852389 0.993898 0.143255
I1    I     I_    0.235861 0.362675 0.136321 -0.483655
I2    I     I_    0.229260 0.587170 0.119843 -0.429572
I3    I     I_    0.733115 0.872278 0.117463 -0.457618
I4    I     I_    0.728328 0.082865 0.125518 -0.434108
I5    I     I_    0.235765 0.461137 0.601040 -0.411918
I6    I     I_    0.342075 0.656972 0.721980 -0.439128
I7    I     I_    0.838274 0.847364 0.717613 -0.460013
I8    I     I_    0.827119 0.138655 0.697821 -0.438098
N1    N     N_R   0.389430 0.421450 0.294590 -0.061311
N2    N     N_R   0.581780 0.577610 0.443390 -0.036641
N3    N     N_R   0.081780 0.922390 0.443390 -0.040826
N4    N     N_R   0.081780 0.077610 0.443390 -0.039704
N5    N     N_R   0.419850 0.423100 0.556610 -0.048352
N6    N     N_R   0.419850 0.576900 0.556610 -0.032610
N7    N     N_R   0.919850 0.923100 0.556610 -0.031930
N8    N     N_R   0.919850 0.076900 0.556610 -0.030316
N9    N     N_R   0.627410 0.423100 0.556610 -0.042170
N10   N     N_R   0.627410 0.576900 0.556610 -0.037107
N11   N     N_R   0.127410 0.923100 0.556610 -0.038073
N12   N     N_R   0.389430 0.578550 0.294590 -0.068900
N13   N     N_R   0.127410 0.076900 0.556610 -0.033023
N14   N     N_R   0.374220 0.422390 0.443390 -0.050248
N15   N     N_R   0.374220 0.577610 0.443390 -0.034225
N16   N     N_R   0.874220 0.922390 0.443390 -0.037892
N17   N     N_R   0.874220 0.077610 0.443390 -0.034905
N18   N     N_R   0.555000 0.424040 0.705410 -0.128344
N19   N     N_R   0.555000 0.575960 0.705410 -0.128132
N20   N     N_R   0.055000 0.924040 0.705410 -0.136338
N21   N     N_R   0.055000 0.075960 0.705410 -0.134992
N22   N     N_R   0.446630 0.421450 0.294590 -0.053697
N23   N     N_R   0.889430 0.921450 0.294590 -0.062547
N24   N     N_R   0.446630 0.578550 0.294590 -0.057241
N25   N     N_R   0.946630 0.921450 0.294590 -0.055991
N26   N     N_R   0.946630 0.078550 0.294590 -0.058291
N27   N     N_R   0.889430 0.078550 0.294590 -0.070037
N28   N     N_R   0.612200 0.424040 0.705410 -0.148967
N29   N     N_R   0.612200 0.575960 0.705410 -0.134459
N30   N     N_R   0.112200 0.924040 0.705410 -0.136513
N31   N     N_R   0.112200 0.075960 0.705410 -0.133979
N32   N     N_R   0.581780 0.422390 0.443390 -0.036185
Ni1   Ni    Ni4+2 0.382890 0.500000 0.370170 0.255312
Ni2   Ni    Ni4+2 0.882890 0.000000 0.370170 0.266607
Ni3   Ni    Ni4+2 0.618740 0.500000 0.629830 0.196175
Ni4   Ni    Ni4+2 0.118740 0.000000 0.629830 0.237754
Ni5   Ni    Ni4+2 0.514090 0.500000 0.370170 0.206614
Ni6   Ni    Ni4+2 0.014090 0.000000 0.370170 0.204642
Ni7   Ni    Ni4+2 0.487550 0.500000 0.629830 0.275258
Ni8   Ni    Ni4+2 0.987550 0.000000 0.629830 0.299900
O1    O     O_3   0.727075 0.370559 0.821932 -0.635144
O2    O     O_3   0.729233 0.626896 0.821011 -0.658711
O3    O     O_3   0.234108 0.902451 0.833143 -0.640646
O4    O     O_3   0.230376 0.125621 0.826727 -0.636667
O5    O     O_3   0.527101 0.363942 0.810798 -0.600649
O6    O     O_3   0.544978 0.589493 0.846712 -0.588974
O7    O     O_3   0.043320 0.906806 0.845087 -0.569532
O8    O     O_3   0.043704 0.086561 0.845719 -0.563707

loop_
_geom_bond_atom_site_label_1
_geom_bond_atom_site_label_2
_ccdc_geom_bond_type
C46   O2    S    
C97   H84   S    
C13   C79   A    
C10   C85   A    
N28   Ni3   S    
C55   C59   D    
C67   H45   S    
C52   H30   S    
C104  H93   S    
N21   Ni8   S    
C25   H38   S    
C53   H31   S    
C26   H13   S    
C65   C101  S    
C21   H94   S    
C87   H78   S    
N5    Ni7   S    
C79   N8    A    
C71   C94   A    
N30   Ni4   S    
C19   H8    S    
C61   C90   A    
C28   I3    S    
C88   N17   A    
C49   H27   S    
C95   H81   S    
N24   Ni5   S    
C50   C54   S    
N4    N13   A    
C10   C32   S    
C8    C82   A    
C86   N15   A    
C64   C68   D    
C14   C21   S    
C18   H39   S    
N3    Ni6   S    
C31   H20   S    
N12   N24   A    
C31   H26   S    
C19   C36   S    
C15   I6    S    
C28   N23   A    
C20   H9    S    
C37   C51   S    
C17   N12   A    
C95   C99   A    
C42   H15   S    
C4    H100  S    
C64   H55   S    
C38   C52   S    
C11   C86   A    
C3    O4    S    
C29   C33   S    
C22   H83   S    
C102  H85   S    
C23   C43   S    
N21   N31   A    
C66   C100  S    
C37   C42   S    
C74   H65   S    
C63   C99   S    
C11   C77   A    
C16   C34   S    
C97   N26   A    
C27   H23   S    
N7    Ni8   S    
C104  H91   S    
C14   H1    S    
C21   C38   S    
C60   C67   S    
C47   O3    S    
C4    O5    S    
C56   C72   S    
C12   C78   A    
C74   N3    A    
C39   I4    S    
C78   H69   S    
C3    H95   S    
C6    H3    S    
C57   C83   S    
C6    O7    S    
C103  H90   S    
C41   H14   S    
N14   Ni1   S    
C18   C35   S    
C93   N22   A    
C6    H104  S    
C25   C34   S    
C28   C100  A    
N9    N32   A    
C64   C98   S    
N29   Ni3   S    
C73   N2    A    
N9    Ni3   S    
N27   Ni2   S    
C71   H63   S    
C29   H22   S    
C27   H21   S    
N23   Ni2   S    
C79   H70   S    
C36   C41   S    
N1    Ni1   S    
C71   N32   A    
C73   H64   S    
C85   H76   S    
N19   Ni7   S    
N17   Ni2   S    
C39   C101  A    
N1    N22   A    
C39   N27   A    
N2    N10   A    
C15   C22   S    
N10   Ni3   S    
C47   C72   A    
C16   I7    S    
C63   C67   D    
C92   N21   A    
C81   N10   A    
C30   C34   S    
N22   Ni5   S    
C1    I1    S    
C69   H47   S    
C96   H82   S    
C23   H36   S    
C57   C62   D    
C70   H48   S    
C27   C52   S    
C5    H102  S    
C17   I2    S    
C25   H12   S    
C14   C32   S    
C72   C91   A    
C59   H51   S    
N32   Ni5   S    
C88   H79   S    
C57   H62   S    
C46   C61   A    
N6    Ni7   S    
C5    H101  S    
C91   N20   A    
C54   H58   S    
C56   C60   D    
C66   H57   S    
N4    Ni6   S    
C104  O3    S    
C89   N18   A    
N5    N14   A    
C76   H67   S    
N8    N17   A    
C60   H52   S    
C77   H68   S    
C20   H61   S    
C58   H49   S    
N20   N30   A    
C86   H77   S    
C77   N6    A    
C50   C89   A    
C52   H34   S    
C90   O6    S    
C11   C33   S    
C24   H37   S    
C21   H72   S    
C22   C40   S    
C82   H74   S    
C75   H66   S    
C8    C74   A    
C3    H96   S    
C104  H92   S    
C62   H53   S    
C41   H41   S    
C7    O8    S    
N23   N25   A    
N20   Ni8   S    
C45   O1    S    
C84   N13   A    
C17   C99   A    
C45   N28   A    
C65   H56   S    
C92   O8    S    
C2    C73   A    
C51   H33   S    
C30   C49   S    
N6    N15   A    
C18   I8    S    
C37   C94   S    
C5    O6    S    
C24   C44   S    
C103  O2    S    
C31   C35   S    
C9    C84   A    
C46   N29   A    
N16   Ni2   S    
C80   C94   A    
N15   Ni1   S    
C91   O7    S    
N7    N16   A    
N8    Ni8   S    
N12   Ni1   S    
C54   C58   D    
C2    C36   S    
C93   H80   S    
C65   C69   D    
C68   H46   S    
C56   H60   S    
C48   O4    S    
C15   H17   S    
C12   C87   A    
N26   N27   A    
C27   C32   S    
C53   H35   S    
C10   C76   A    
C49   H32   S    
N31   Ni4   S    
C85   N14   A    
C80   H71   S    
C31   C51   S    
C4    H99   S    
N18   N28   A    
C1    C98   A    
C102  O1    S    
C58   C69   S    
C13   C35   S    
N25   Ni6   S    
C78   N7    A    
C76   N5    A    
C48   N31   A    
C30   H25   S    
C9    C75   A    
C82   N11   A    
C43   H16   S    
C24   C33   S    
C48   C83   A    
C62   C68   S    
C23   C32   S    
C93   C98   A    
C55   H59   S    
C38   C43   S    
C22   H2    S    
C4    H98   S    
C36   C49   S    
C23   H10   S    
C45   C50   A    
C20   C37   S    
C51   H29   S    
C66   C70   D    
C80   N9    A    
C29   C53   S    
C75   N4    A    
C16   C19   S    
N26   Ni6   S    
C55   C61   S    
C13   C88   A    
C44   H18   S    
C9    C38   S    
C102  H86   S    
N2    Ni5   S    
C7    H7    S    
C90   N19   A    
C18   C20   S    
C95   N24   A    
C26   C42   S    
C96   C100  A    
C16   H28   S    
C96   N25   A    
N13   Ni4   S    
C43   H43   S    
C15   C33   S    
C59   C70   S    
C81   H73   S    
C5    H103  S    
C7    H5    S    
C26   C35   S    
C40   C44   S    
C3    H97   S    
C89   O5    S    
C30   H19   S    
C14   I5    S    
C24   H11   S    
C83   C92   A    
C40   C53   S    
C29   H24   S    
C26   H40   S    
C102  H87   S    
C19   H50   S    
C6    H4    S    
C84   H75   S    
C25   C41   S    
C2    C81   A    
C1    N1    A    
C103  H88   S    
C8    C40   S    
C63   H54   S    
N3    N11   A    
C44   H44   S    
C12   C34   S    
N18   Ni7   S    
N19   N29   A    
C47   N30   A    
C97   C101  A    
C7    H6    S    
C87   N16   A    
C103  H89   S    
N11   Ni4   S    
C42   H42   S    
