data_mof_unit_41072.cif
_audit_creation_date              2012-12-10T17:33:15-0500
_audit_creation_method            fapswitch 2.2
_symmetry_space_group_name_H-M    P1
_symmetry_Int_Tables_number       1
_space_group_crystal_system       triclinic
_cell_length_a                    12.004408
_cell_length_b                    12.811968
_cell_length_c                    13.654004
_cell_angle_alpha                 91.058777
_cell_angle_beta                  79.487337
_cell_angle_gamma                 94.549886
_cell_volume                      2058.21404676

loop_
_atom_site_label
_atom_site_type_symbol
_atom_type_description
_atom_site_fract_x
_atom_site_fract_y
_atom_site_fract_z
_atom_type_partial_charge
C1    C     C_R   0.523120 0.700318 0.500912 0.883360
C2    C     C_R   0.476880 0.299681 0.499088 0.883358
C3    C     C_R   0.460915 0.977169 0.541138 0.126897
C4    C     C_R   0.539087 0.022831 0.458861 0.126898
C5    C     C_R   0.966079 0.406771 0.402686 -0.286674
C6    C     C_R   0.033921 0.593229 0.597314 -0.286693
C7    C     C_R   0.848525 0.415192 0.412842 0.043355
C8    C     C_R   0.151475 0.584808 0.587158 0.043358
C9    C     C_R   0.852928 0.539468 0.543162 0.001351
C10   C     C_R   0.147072 0.460532 0.456838 0.001357
C11   C     C_R   0.971399 0.533660 0.535649 0.076911
C12   C     C_R   0.028601 0.466340 0.464351 0.076891
C13   C     C_R   0.480160 0.501267 0.686725 0.889016
C14   C     C_R   0.519840 0.498732 0.313275 0.889013
C15   C     C_1   0.535054 0.498190 0.209138 -0.099757
C16   C     C_1   0.464944 0.501804 0.790862 -0.099756
C17   C     C_2   0.548948 0.498292 0.017107 0.284021
C18   C     C_2   0.451052 0.501695 0.982893 0.284021
C19   C     C_1   0.454641 0.501973 0.878918 0.081353
C20   C     C_1   0.545357 0.498017 0.121082 0.081348
C21   C     C_R   0.459940 0.188088 0.500204 -0.043280
C22   C     C_R   0.540061 0.811912 0.499795 -0.043275
C23   C     C_R   0.620853 0.962399 0.403014 -0.193821
C24   C     C_R   0.379147 0.037601 0.596985 -0.193821
C25   C     C_R   0.620312 0.857457 0.422850 -0.242611
C26   C     C_R   0.379688 0.142543 0.577148 -0.242602
C27   C     C_R   0.465184 0.871664 0.564595 0.126247
C28   C     C_R   0.534817 0.128336 0.435405 0.126229
H1    H     H_    0.321347 0.189619 0.625652 0.175031
H2    H     H_    0.678652 0.810380 0.374346 0.175019
H3    H     H_    0.683853 0.994295 0.341866 0.172728
H4    H     H_    0.316148 0.005704 0.658133 0.172729
H5    H     H_    0.192251 0.408854 0.402653 0.149739
H6    H     H_    0.807748 0.591146 0.597347 0.149737
H7    H     H_    0.199238 0.630412 0.635169 0.140892
H8    H     H_    0.800762 0.369588 0.364830 0.140909
H9    H     H_    0.007620 0.354361 0.347005 0.168929
H10   H     H_    0.992380 0.645639 0.652994 0.168896
N1    N     N_R   0.206090 0.519450 0.517820 -0.106507
N2    N     N_R   0.793910 0.480550 0.482180 -0.106512
O1    O     O_R   0.421240 0.658850 0.504760 -0.604944
O2    O     O_R   0.578760 0.341150 0.495240 -0.604942
O3    O     O_R   0.609960 0.646370 0.493320 -0.625538
O4    O     O_R   0.390040 0.353630 0.506680 -0.625534
O5    O     O_R   0.392060 0.507120 0.646890 -0.622959
O6    O     O_R   0.607940 0.492880 0.353110 -0.622962
O7    O     O_R   0.580780 0.494630 0.635450 -0.583291
O8    O     O_R   0.419220 0.505370 0.364550 -0.583293
Zn1   Zn    Zn3+2 0.373990 0.508340 0.507630 0.977576
Zn2   Zn    Zn3+2 0.626010 0.491660 0.492370 0.977573
S1    S     S_3+6 0.316365 0.505740 0.061398 0.017319
O9    O     O_2   0.293291 0.410099 0.126282 -0.311633
O10   O     O_2   0.316308 0.601942 0.126113 -0.293984
O11   O     O_3   0.214447 0.508997 0.991991 -0.536255
H11   H     H_    0.142634 0.511135 0.040790 0.390698
S2    S     S_3+6 0.683638 0.494281 0.938603 0.017318
O12   O     O_2   0.683725 0.398097 0.873863 -0.293718
O13   O     O_2   0.706684 0.589941 0.873742 -0.311896
O14   O     O_3   0.785556 0.491028 0.008009 -0.536246
H12   H     H_    0.857428 0.489399 0.959211 0.390701
C29   C     C_3   0.608127 0.176318 0.341954 -0.878571
H13   H     H_    0.584574 0.255146 0.325214 0.237778
H14   H     H_    0.698859 0.182345 0.349783 0.239405
H15   H     H_    0.596916 0.127000 0.276200 0.247274
C30   C     C_3   0.391878 0.823683 0.658048 -0.878613
H16   H     H_    0.415430 0.744855 0.674787 0.237778
H17   H     H_    0.403090 0.873001 0.723800 0.247274
H18   H     H_    0.301145 0.817656 0.650220 0.239399

loop_
_geom_bond_atom_site_label_1
_geom_bond_atom_site_label_2
_ccdc_geom_bond_type
O4    Zn1   S    
C29   H15   S    
C2    O4    A    
C11   C12   A    
C6    H10   S    
O3    Zn2   S    
C27   C30   S    
C8    N1    A    
C5    H9    S    
O7    Zn2   S    
C7    H8    S    
O6    Zn2   S    
C6    C11   A    
S2    O14   S    
O5    Zn1   S    
C8    H7    S    
C21   C26   A    
S1    O11   S    
C28   C29   S    
C30   H18   S    
C2    C21   S    
C3    C27   A    
C17   C18   D    
C1    C22   S    
C14   O6    A    
C13   O5    A    
C9    C11   A    
C17   S2    S    
C3    C24   A    
C9    H6    S    
C10   C12   A    
C2    O2    A    
C16   C19   T    
N2    Zn2   S    
C1    O1    A    
O8    Zn1   S    
C4    C28   A    
C21   C28   A    
O2    Zn2   S    
C18   S1    S    
C18   C19   S    
C10   H5    S    
C5    C7    A    
C22   C27   A    
C23   C25   A    
C29   H13   S    
C24   C26   A    
C30   H17   S    
C5    C12   A    
C10   N1    A    
C3    C4    A    
O14   H12   S    
C17   C20   S    
S2    O12   D    
C26   H1    S    
C13   O7    A    
C30   H16   S    
C13   C16   S    
O1    Zn1   S    
C24   H4    S    
C29   H14   S    
C4    C23   A    
C14   O8    A    
C14   C15   S    
C25   H2    S    
C6    C8    A    
N1    Zn1   S    
O11   H11   S    
C7    N2    A    
C1    O3    A    
C9    N2    A    
S1    O9    D    
S2    O13   D    
C15   C20   T    
S1    O10   D    
C22   C25   A    
C23   H3    S    
