data_mof_unit_50098.cif
_audit_creation_date              2012-10-26T20:21:18-0400
_audit_creation_method            fapswitch 2.2
_symmetry_space_group_name_H-M    P1
_symmetry_Int_Tables_number       1
_space_group_crystal_system       triclinic
_cell_length_a                    9.526563
_cell_length_b                    10.796765
_cell_length_c                    15.411537
_cell_angle_alpha                 89.868974
_cell_angle_beta                  73.790145
_cell_angle_gamma                 89.897548
_cell_volume                      1522.14758481

loop_
_atom_site_label
_atom_site_type_symbol
_atom_type_description
_atom_site_fract_x
_atom_site_fract_y
_atom_site_fract_z
_atom_type_partial_charge
C1    C     C_R   0.001490 0.262412 0.496994 0.524970
C2    C     C_R   0.120167 0.061129 0.439382 -0.001444
C3    C     C_R   0.997936 0.871575 0.504058 -0.035943
C4    C     C_R   0.002296 0.128494 0.495258 -0.037386
C5    C     C_R   0.551676 0.415991 0.550518 0.034550
C6    C     C_R   0.448042 0.584646 0.450094 0.068007
C7    C     C_R   0.402921 0.416036 0.550504 0.031783
C8    C     C_R   0.596788 0.584630 0.450131 0.080095
C9    C     C_R   0.917491 0.500055 0.672653 0.537286
C10   C     C_R   0.082656 0.503114 0.327414 0.536662
C11   C     C_R   0.872777 0.506034 0.771920 -0.003685
C12   C     C_R   0.998662 0.737627 0.502671 0.523043
C13   C     C_R   0.129889 0.527540 0.229672 -0.003360
C14   C     C_R   0.931157 0.493797 0.914685 -0.128544
C15   C     C_R   0.090660 0.627116 0.097554 -0.143548
C16   C     C_R   0.975060 0.488251 0.820790 -0.111986
C17   C     C_R   0.036346 0.585254 0.186272 -0.122140
C18   C     C_R   0.727230 0.533038 0.818151 -0.145620
C19   C     C_R   0.277112 0.510893 0.182849 -0.135962
C20   C     C_R   0.683951 0.551843 0.912259 0.015107
C21   C     C_R   0.337525 0.565953 0.097826 0.019870
C22   C     C_R   0.785936 0.522973 0.960724 0.025463
C23   C     C_R   0.598110 0.549057 0.102664 0.020057
C24   C     C_R   0.240333 0.617091 0.052825 0.025308
C25   C     C_R   0.539350 0.589250 0.960065 -0.014853
C26   C     C_R   0.490815 0.566727 0.054919 -0.006957
C27   C     C_2   0.568822 0.574882 0.200690 0.194614
C28   C     C_2   0.495051 0.722534 0.833019 0.230513
C29   C     C_2   0.756724 0.877972 0.627223 0.244778
C30   C     C_2   0.242579 0.122379 0.371293 0.247397
C31   C     C_R   0.442076 0.650623 0.918186 -0.005081
C32   C     C_R   0.743014 0.524936 0.054600 -0.096256
C33   C     C_R   0.293793 0.661717 0.964983 -0.097458
C34   C     C_R   0.883346 0.067683 0.553641 -0.097483
C35   C     C_R   0.116843 0.932380 0.445524 -0.096286
C36   C     C_R   0.879858 0.938998 0.559644 -0.003583
Cu1   Cu    Cu3+1 0.140660 0.500020 0.500000 0.961710
Cu2   Cu    Cu3+1 0.859340 0.499980 0.500000 0.972921
H1    H     H_    0.823688 0.508162 0.090772 0.152045
H2    H     H_    0.204952 0.878392 0.402224 0.166483
H3    H     H_    0.589407 0.348712 0.591083 0.122432
H4    H     H_    0.410105 0.652382 0.409967 0.116008
H5    H     H_    0.328711 0.348839 0.591068 0.122425
H6    H     H_    0.670839 0.652205 0.409889 0.134486
H7    H     H_    0.480035 0.636083 0.234503 0.112320
H8    H     H_    0.607671 0.753535 0.810862 0.123896
H9    H     H_    0.763728 0.781661 0.645567 0.127123
H10   H     H_    0.235453 0.218901 0.353472 0.136049
H11   H     H_    0.219447 0.707842 0.933378 0.159815
H12   H     H_    0.343699 0.455428 0.214371 0.142916
H13   H     H_    0.647732 0.536445 0.780138 0.134710
H14   H     H_    0.922609 0.601224 0.221622 0.174964
H15   H     H_    0.088162 0.467053 0.786662 0.142200
H16   H     H_    0.010853 0.475095 0.951341 0.118365
H17   H     H_    0.016526 0.670956 0.064807 0.112942
H18   H     H_    0.795194 0.121642 0.596927 0.169366
N1    N     N_R   0.352080 0.500030 0.499980 -0.230510
N2    N     N_R   0.647920 0.499970 0.500020 -0.229417
O1    O     O_R   0.118740 0.319660 0.500000 -0.512130
O2    O     O_2   0.413181 0.749462 0.787376 -0.471178
O3    O     O_2   0.645714 0.935421 0.664327 -0.481270
O4    O     O_2   0.352998 0.064925 0.333054 -0.501964
O5    O     O_R   0.881260 0.680340 0.500000 -0.517186
O6    O     O_R   0.881170 0.319630 0.500010 -0.495350
O7    O     O_R   0.118830 0.680370 0.499990 -0.498321
O8    O     O_R   0.055570 0.500030 0.629830 -0.494008
O9    O     O_R   0.944430 0.499970 0.370170 -0.477791
O10   O     O_R   0.818000 0.500000 0.629840 -0.513477
O11   O     O_R   0.182000 0.500000 0.370160 -0.513336
O12   O     O_2   0.644100 0.528558 0.244597 -0.539166

loop_
_geom_bond_atom_site_label_1
_geom_bond_atom_site_label_2
_ccdc_geom_bond_type
C2    C35   A    
C25   C31   A    
C15   H17   S    
C2    C4    A    
C21   C26   A    
C31   C33   A    
C11   C18   A    
C34   H18   S    
Cu1   Cu2   S    
C23   C27   S    
C11   C16   A    
Cu2   O6    S    
C24   C33   A    
C29   C36   S    
C13   C17   A    
C2    C30   S    
C1    C4    S    
Cu1   O8    S    
C27   H7    S    
C30   O4    D    
C35   H2    S    
C9    O10   A    
C29   O3    D    
C10   O9    A    
C23   C32   A    
C9    C11   S    
C19   H12   S    
C28   H8    S    
Cu1   O1    S    
C27   O12   D    
C22   C32   A    
C3    C36   A    
C29   H9    S    
C5    N2    A    
C17   H14   S    
C30   H10   S    
C15   C24   A    
C14   H16   S    
C20   C22   A    
C18   H13   S    
C34   C36   A    
C1    O1    A    
C4    C34   A    
C6    H4    S    
C14   C22   A    
Cu1   O11   S    
C14   C16   A    
C21   C24   A    
C23   C26   A    
C6    N1    A    
C20   C25   A    
C13   C19   A    
C3    C35   A    
C10   O11   A    
C28   O2    D    
Cu2   O9    S    
C18   C20   A    
C5    C7    A    
Cu2   O5    S    
C12   O7    A    
C32   H1    S    
C7    H5    S    
C15   C17   A    
C12   O5    A    
C5    H3    S    
C9    O8    A    
C16   H15   S    
C6    C8    A    
C3    C12   S    
C8    N2    A    
C25   C26   A    
Cu2   N2    S    
C33   H11   S    
C1    O6    A    
C7    N1    A    
C28   C31   S    
Cu1   N1    S    
C8    H6    S    
Cu2   O10   S    
C19   C21   A    
C10   C13   S    
Cu1   O7    S    
