data_mof_unit_68224.cif
_audit_creation_date              2012-12-11T17:16:00-0500
_audit_creation_method            fapswitch 2.2
_symmetry_space_group_name_H-M    P1
_symmetry_Int_Tables_number       1
_space_group_crystal_system       triclinic
_cell_length_a                    14.914109
_cell_length_b                    7.320416
_cell_length_c                    13.309462
_cell_angle_alpha                 89.878399
_cell_angle_beta                  99.185325
_cell_angle_gamma                 90.231797
_cell_volume                      1434.44745314

loop_
_atom_site_label
_atom_site_type_symbol
_atom_type_description
_atom_site_fract_x
_atom_site_fract_y
_atom_site_fract_z
_atom_type_partial_charge
O1    O     O_R   0.398210 0.494340 0.401550 -0.536299
O2    O     O_R   0.601790 0.994340 0.598450 -0.534244
O3    O     O_R   0.586310 0.821730 0.403360 -0.540277
O4    O     O_R   0.413690 0.321730 0.596640 -0.539411
C1    C     C_R   0.612230 0.655959 0.378891 0.715010
C2    C     C_R   0.388256 0.155334 0.621507 0.721087
O5    O     O_R   0.397970 0.823900 0.389580 -0.537287
O6    O     O_R   0.602030 0.323900 0.610420 -0.535566
O7    O     O_R   0.412100 0.996500 0.584560 -0.547287
O8    O     O_R   0.587900 0.496500 0.415440 -0.548467
C3    C     C_R   0.365066 0.655038 0.363245 0.705309
C4    C     C_R   0.634958 0.155274 0.636731 0.711460
O9    O     O_3   0.504860 0.661550 0.563990 -0.379900
O10   O     O_3   0.495140 0.161550 0.436010 -0.384372
V1    V     V_3+5 0.499100 0.935510 0.488130 1.359079
V2    V     V_3+5 0.500900 0.435510 0.511870 1.368000
C5    C     C_1   0.716329 0.143905 0.716575 -0.219205
C6    C     C_1   0.283825 0.643259 0.283269 -0.209786
C7    C     C_1   0.784126 0.133308 0.782855 -0.193946
C8    C     C_1   0.216033 0.632911 0.216968 -0.193906
C9    C     C_3   0.234876 0.336732 0.813517 -0.074905
C10   C     C_3   0.766933 0.834684 0.186181 -0.066788
H1    H     H_    0.272208 0.373203 0.889995 0.180153
H2    H     H_    0.731965 0.870736 0.108572 0.167735
C11   C     C_3   0.301805 0.342215 0.735508 -0.333217
C12   C     C_3   0.697384 0.840457 0.260927 -0.345086
H3    H     H_    0.366615 0.404859 0.772132 0.180134
H4    H     H_    0.632845 0.890980 0.218418 0.181267
H5    H     H_    0.274724 0.430375 0.669514 0.171747
H6    H     H_    0.719590 0.937480 0.324283 0.173525
H7    H     H_    0.112486 0.215585 0.671994 0.128241
H8    H     H_    0.891435 0.715663 0.328066 0.129184
H9    H     H_    0.212252 0.141871 0.564480 0.150749
H10   H     H_    0.789590 0.659332 0.435543 0.148888
C13   C     C_3   0.151779 0.093703 0.702435 0.284587
C14   C     C_3   0.849879 0.595302 0.299265 0.279084
C15   C     C_3   0.275172 0.014271 0.859611 0.239891
C16   C     C_3   0.727066 0.509598 0.143985 0.238021
C17   C     C_3   0.191702 0.140565 0.816289 -0.082835
C18   C     C_3   0.809767 0.639095 0.185267 -0.075545
H11   H     H_    0.252397 0.870173 0.862150 0.073090
H12   H     H_    0.750432 0.366065 0.143607 0.076501
C19   C     C_3   0.319581 0.147957 0.695120 -0.080081
C20   C     C_3   0.681427 0.648932 0.305755 -0.071042
C21   C     C_3   0.229953 0.069639 0.638524 -0.504837
C22   C     C_3   0.771826 0.578364 0.364475 -0.496872
C23   C     C_3   0.350487 0.022304 0.788432 0.354363
C24   C     C_3   0.652292 0.516578 0.215232 0.333858
H13   H     H_    0.358393 0.880713 0.760076 0.027852
H14   H     H_    0.647417 0.376778 0.247492 0.036087
H15   H     H_    0.241578 0.924108 0.621997 0.168152
H16   H     H_    0.760622 0.435448 0.387031 0.164953
O11   O     O_R   0.912140 0.786650 0.084610 -0.530780
O12   O     O_R   0.087860 0.286650 0.915390 -0.532381
O13   O     O_R   0.102040 0.454810 0.110430 -0.534942
O14   O     O_R   0.897960 0.954810 0.889570 -0.535388
C25   C     C_R   0.134797 0.623333 0.136916 0.726329
C26   C     C_R   0.865272 0.123276 0.862992 0.726799
O15   O     O_R   0.913690 0.457060 0.096650 -0.515270
O16   O     O_R   0.086310 0.957060 0.903350 -0.512305
O17   O     O_R   0.898200 0.284560 0.901540 -0.544759
O18   O     O_R   0.101800 0.784560 0.098460 -0.543402
C27   C     C_R   0.884323 0.626274 0.117267 0.740773
C28   C     C_R   0.116103 0.126866 0.883161 0.738732
O19   O     O_3   0.995160 0.617270 0.936040 -0.368612
O20   O     O_3   0.004840 0.117270 0.063960 -0.361591
V3    V     V_3+5 0.000900 0.343280 0.011870 1.463982
V4    V     V_3+5 0.999100 0.843280 0.988130 1.463345
I1    I     I_    0.142916 0.558840 0.779930 -0.502579
I2    I     I_    0.859849 0.055999 0.222718 -0.503557
O21   O     O_3   0.087732 0.948809 0.696974 -0.555955
C29   C     C_3   0.066446 0.857616 0.602010 0.145416
H17   H     H_    0.007902 0.770416 0.610807 0.151101
H18   H     H_    0.121151 0.761399 0.590696 0.146997
C30   C     C_3   0.037450 0.976453 0.507026 -0.417839
H19   H     H_    0.962105 0.977153 0.487948 0.182689
H20   H     H_    0.059982 0.118613 0.520212 0.199709
C31   C     C_3   0.077198 0.904668 0.415408 -0.807978
H21   H     H_    0.152577 0.908131 0.431344 0.229685
H22   H     H_    0.054810 0.990841 0.347547 0.253324
H23   H     H_    0.054763 0.762310 0.397241 0.235377
O22   O     O_3   0.911434 0.447123 0.305113 -0.557048
C32   C     C_3   0.931955 0.356612 0.400401 0.143998
H24   H     H_    0.989490 0.267694 0.391700 0.153747
H25   H     H_    0.876309 0.261862 0.412050 0.144859
C33   C     C_3   0.962670 0.475557 0.494848 -0.421824
H26   H     H_    0.038087 0.476531 0.512630 0.182747
H27   H     H_    0.940443 0.617620 0.481785 0.200511
C34   C     C_3   0.924039 0.403457 0.587400 -0.798131
H28   H     H_    0.848653 0.408178 0.572830 0.227186
H29   H     H_    0.948072 0.488595 0.655176 0.255683
H30   H     H_    0.945697 0.260652 0.604936 0.234674
O23   O     O_3   0.316917 0.076145 0.957645 -0.564628
C35   C     C_3   0.283963 0.996392 0.041469 0.027553
H31   H     H_    0.339627 0.915788 0.085564 0.146550
H32   H     H_    0.226769 0.900800 0.020106 0.133394
C36   C     C_3   0.256994 0.152104 0.107722 -0.304939
H33   H     H_    0.309434 0.261022 0.115707 0.191436
H34   H     H_    0.194373 0.213696 0.068345 0.216068
C37   C     C_3   0.241342 0.094518 0.213731 -0.771571
H35   H     H_    0.176017 0.021307 0.210490 0.252068
H36   H     H_    0.238322 0.217888 0.261439 0.224868
H37   H     H_    0.297389 0.007747 0.250817 0.233742
O24   O     O_3   0.685149 0.568349 0.045426 -0.562485
C38   C     C_3   0.715165 0.479583 0.962777 0.036273
H38   H     H_    0.655670 0.408701 0.918440 0.153251
H39   H     H_    0.766226 0.371514 0.985516 0.107567
C39   C     C_3   0.753364 0.624341 0.896317 -0.292867
H40   H     H_    0.750448 0.762493 0.930013 0.191709
H41   H     H_    0.825710 0.596278 0.894067 0.208631
C40   C     C_3   0.703503 0.630873 0.787080 -0.762956
H42   H     H_    0.714771 0.502768 0.747386 0.238474
H43   H     H_    0.730647 0.745015 0.745737 0.228332
H44   H     H_    0.629705 0.651911 0.785103 0.229897
O25   O     O_3   0.432563 0.094940 0.843523 -0.548768
C41   C     C_3   0.508715 0.983333 0.838660 0.055547
H45   H     H_    0.568925 0.075104 0.847054 0.094387
H46   H     H_    0.507117 0.914672 0.763874 0.119245
C42   C     C_3   0.523177 0.847560 0.927437 -0.266361
H47   H     H_    0.596406 0.816224 0.944734 0.199773
H48   H     H_    0.503745 0.910462 0.996389 0.224702
C43   C     C_3   0.470586 0.669458 0.903473 -0.719180
H49   H     H_    0.397265 0.689649 0.905572 0.211204
H50   H     H_    0.496164 0.564448 0.960767 0.266574
H51   H     H_    0.480000 0.617207 0.827724 0.197780
O26   O     O_3   0.568736 0.577368 0.157708 -0.553957
C44   C     C_3   0.494912 0.462151 0.168979 0.053970
H52   H     H_    0.431951 0.529386 0.130610 0.107858
H53   H     H_    0.486745 0.452256 0.250000 0.146231
C45   C     C_3   0.501960 0.272984 0.120151 -0.372149
H54   H     H_    0.447796 0.258200 0.053306 0.238904
H55   H     H_    0.567290 0.256262 0.091154 0.209459
C46   C     C_3   0.493081 0.122145 0.197205 -0.750972
H56   H     H_    0.551929 0.126774 0.259507 0.230154
H57   H     H_    0.489322 0.986482 0.160273 0.214578
H58   H     H_    0.431348 0.141775 0.231867 0.240485

loop_
_geom_bond_atom_site_label_1
_geom_bond_atom_site_label_2
_ccdc_geom_bond_type
C3    C6    S    
O26   C44   S    
H9    C21   S    
C45   H55   S    
C40   H42   S    
O1    C3    A    
O2    C4    A    
C11   C19   S    
C2    O7    A    
C36   H33   S    
C12   C20   S    
C25   O18   A    
C23   H13   S    
C39   H40   S    
C23   O25   S    
C17   C28   S    
C38   H39   S    
O23   C35   S    
C18   C27   S    
H8    C14   S    
C16   H12   S    
C33   H27   S    
C21   H15   S    
O25   C41   S    
C22   H16   S    
C41   H45   S    
O11   V4    S    
C16   O24   S    
O15   V3    S    
O14   C26   A    
C4    C5    S    
C46   H58   S    
C14   C22   S    
H10   C22   S    
C34   H29   S    
C16   C24   S    
C26   O17   A    
C24   H14   S    
O20   V3    S    
C13   O21   S    
O6    V2    S    
C29   C30   S    
O24   C38   S    
C36   H34   S    
C20   C22   S    
O5    C3    A    
C42   H48   S    
C7    C26   S    
C11   H5    S    
C38   C39   S    
C14   C18   S    
C29   H18   S    
C14   O22   S    
C33   H26   S    
O12   V3    S    
C35   C36   S    
O14   V4    S    
C37   H37   S    
C9    I1    S    
O4    V2    S    
C13   C17   S    
C30   H19   S    
C44   H53   S    
C19   C21   S    
O17   V3    S    
C32   H24   S    
C9    C17   S    
O6    C4    A    
O19   V4    S    
C10   C18   S    
C37   H36   S    
C31   H22   S    
C15   O23   S    
C40   H43   S    
O1    V2    S    
C34   H30   S    
C35   H32   S    
O2    V1    S    
C30   H20   S    
O4    C2    A    
C32   H25   S    
C1    C20   S    
C12   H6    S    
C2    C19   S    
O13   C25   A    
C46   H56   S    
C10   H2    S    
C45   C46   S    
C15   C23   S    
C43   H50   S    
C44   H52   S    
C13   C21   S    
C36   C37   S    
O3    V1    S    
C42   C43   S    
C9    C11   S    
C31   H21   S    
O15   C27   A    
C29   H17   S    
O3    C1    A    
C33   C34   S    
O13   V3    S    
C42   H47   S    
C41   C42   S    
C43   H49   S    
C11   H3    S    
C38   H38   S    
C12   H4    S    
C39   C40   S    
O18   V4    S    
O16   C28   A    
C43   H51   S    
C9    H1    S    
C45   H54   S    
O7    V1    S    
C44   C45   S    
O21   C29   S    
C15   C17   S    
O8    V2    S    
C16   C18   S    
O11   C27   A    
C31   H23   S    
C39   H41   S    
O12   C28   A    
H7    C13   S    
O5    V1    S    
C37   H35   S    
C5    C7    T    
C41   H46   S    
C40   H44   S    
C6    C8    T    
C15   H11   S    
C35   H31   S    
C30   C31   S    
C24   O26   S    
C1    O8    A    
C32   C33   S    
O16   V4    S    
O22   C32   S    
C10   C12   S    
O9    V2    S    
C46   H57   S    
O10   V1    S    
C8    C25   S    
C34   H28   S    
C19   C23   S    
C10   I2    S    
C20   C24   S    
