data_mof_unit_23467.cif
_audit_creation_date              2012-10-26T20:06:12-0400
_audit_creation_method            fapswitch 2.2
_symmetry_space_group_name_H-M    P1
_symmetry_Int_Tables_number       1
_space_group_crystal_system       triclinic
_cell_length_a                    9.580268
_cell_length_b                    10.785321
_cell_length_c                    13.469352
_cell_angle_alpha                 91.388619
_cell_angle_beta                  73.254012
_cell_angle_gamma                 90.628717
_cell_volume                      1332.31341889

loop_
_atom_site_label
_atom_site_type_symbol
_atom_type_description
_atom_site_fract_x
_atom_site_fract_y
_atom_site_fract_z
_atom_type_partial_charge
C1    C     C_R   0.500309 0.737544 0.500611 0.636628
C2    C     C_R   0.374568 0.481650 0.812349 -0.033993
C3    C     C_R   0.617948 0.935568 0.438453 0.317558
C4    C     C_R   0.422005 0.497805 0.699520 0.632487
C5    C     C_R   0.615849 0.063484 0.437836 0.333964
C6    C     C_R   0.496798 0.128268 0.502473 -0.077297
C7    C     C_R   0.376922 0.065628 0.568453 0.178277
C8    C     C_R   0.379993 0.934982 0.567370 0.259608
C9    C     C_R   0.499813 0.871446 0.502149 -0.066029
C10   C     C_R   0.901742 0.581977 0.561898 0.331904
C11   C     C_R   0.049885 0.578638 0.563975 0.450103
C12   C     C_R   0.439086 0.475844 0.976544 -0.054601
C13   C     C_R   0.099331 0.419079 0.436776 0.306736
C14   C     C_R   0.949823 0.421615 0.434918 0.306884
C15   C     C_R   0.498909 0.262400 0.500910 0.609899
C16   C     C_R   0.577760 0.502844 0.300804 0.596117
C17   C     C_R   0.727444 0.667511 0.052751 0.386676
C18   C     C_R   0.621421 0.527020 0.189906 -0.065673
C19   C     C_R   0.251971 0.408633 0.853677 0.334986
C20   C     C_R   0.211514 0.380264 0.958078 0.273124
C21   C     C_R   0.313772 0.395824 0.014817 0.272060
C22   C     C_3   0.934542 0.679031 0.180062 -0.006347
C23   C     C_R   0.454963 0.529755 0.877714 -0.168057
C24   C     C_3   0.129766 0.085417 0.662777 0.005304
C25   C     C_3   0.844981 0.786932 0.598337 0.006650
C26   C     C_3   0.163235 0.215094 0.403086 -0.057906
C27   C     C_3   0.966099 0.361958 0.266663 0.002673
C28   C     C_3   0.615761 0.258683 0.129510 -0.100618
C29   C     C_3   0.284346 0.213143 0.100863 -0.041251
C30   C     C_3   0.962603 0.396509 0.986605 -0.065864
C31   C     C_3   0.424922 0.800514 0.810771 -0.066430
C32   C     C_R   0.541512 0.514619 0.032802 -0.074580
C33   C     C_R   0.638055 0.616861 0.994864 -0.095746
C34   C     C_R   0.638763 0.673533 0.902651 0.459107
C35   C     C_R   0.544095 0.635207 0.847799 0.311239
C36   C     C_R   0.552743 0.461104 0.126062 0.248497
C37   C     C_R   0.716344 0.625162 0.151560 0.200437
Cu1   Cu    Cu3+1 0.359340 0.499980 0.500000 1.181237
Cu2   Cu    Cu3+1 0.640660 0.500020 0.500000 1.133411
F1    F     F_    0.728858 0.124233 0.372244 -0.574667
F2    F     F_    0.272620 0.868772 0.633322 -0.614316
F3    F     F_    0.094135 0.652490 0.632027 -0.547900
F4    F     F_    0.726114 0.772669 0.866735 -0.539311
F5    F     F_    0.814320 0.767328 0.018703 -0.557160
F6    F     F_    0.171442 0.362750 0.792812 -0.602579
F7    F     F_    0.733788 0.874240 0.374979 -0.571843
H1    H     H_    0.971495 0.587297 0.142789 0.051091
H2    H     H_    0.264101 0.158859 0.377887 0.127350
H3    H     H_    0.085092 0.173933 0.364798 0.158755
H4    H     H_    0.119087 0.206959 0.488524 0.116271
H5    H     H_    0.050272 0.436841 0.250217 0.132085
H6    H     H_    0.881932 0.386575 0.229380 0.132340
H7    H     H_    0.015148 0.274347 0.229049 0.184362
H8    H     H_    0.694197 0.275913 0.175077 0.143744
H9    H     H_    0.671286 0.258579 0.044643 0.111158
H10   H     H_    0.570212 0.164407 0.148877 0.161235
H11   H     H_    0.185900 0.173445 0.084496 0.155644
H12   H     H_    0.979430 0.690145 0.247064 0.140166
H13   H     H_    0.288433 0.174036 0.175322 0.151964
H14   H     H_    0.383610 0.180790 0.039949 0.113120
H15   H     H_    0.925947 0.351594 0.923386 0.196659
H16   H     H_    0.990467 0.495778 0.968743 0.134716
H17   H     H_    0.869621 0.396777 0.057348 0.066763
H18   H     H_    0.439555 0.846868 0.881996 0.116066
H19   H     H_    0.313726 0.759659 0.827340 0.164699
H20   H     H_    0.435614 0.874045 0.753153 0.185741
H21   H     H_    0.981329 0.754335 0.125556 0.195100
H22   H     H_    0.108743 0.034029 0.595743 0.105701
H23   H     H_    0.050173 0.162488 0.683923 0.149496
H24   H     H_    0.108854 0.025543 0.731469 0.214886
H25   H     H_    0.885268 0.798561 0.512732 0.118878
H26   H     H_    0.927448 0.821333 0.635814 0.197660
H27   H     H_    0.747569 0.846729 0.627441 0.159865
N1    N     N_R   0.147940 0.499970 0.499970 -0.270979
N2    N     N_R   0.852060 0.500060 0.499990 -0.278589
O1    O     O_R   0.381250 0.680340 0.500010 -0.444787
O2    O     O_3   0.271565 0.136457 0.640018 -0.518036
O3    O     O_3   0.804199 0.663343 0.626284 -0.463929
O4    O     O_3   0.198273 0.338569 0.372116 -0.502510
O5    O     O_3   0.898755 0.340012 0.372679 -0.496002
O6    O     O_3   0.500399 0.344588 0.157119 -0.499814
O7    O     O_3   0.277871 0.344609 0.111794 -0.498376
O8    O     O_3   0.076728 0.327069 0.005184 -0.569897
O9    O     O_3   0.531379 0.709311 0.768495 -0.514118
O10   O     O_R   0.618820 0.680370 0.500010 -0.448209
O11   O     O_R   0.323240 0.499950 0.650980 -0.391443
O12   O     O_R   0.560810 0.499980 0.650980 -0.469003
O13   O     O_R   0.381180 0.319630 0.499990 -0.465003
O14   O     O_R   0.618750 0.319660 0.499990 -0.443226
O15   O     O_R   0.439190 0.500020 0.349020 -0.457238
O16   O     O_R   0.676760 0.500050 0.349020 -0.478881
O17   O     O_3   0.781337 0.689753 0.216852 -0.468875

loop_
_geom_bond_atom_site_label_1
_geom_bond_atom_site_label_2
_ccdc_geom_bond_type
C31   H20   S    
C13   O4    S    
C16   O15   A    
C19   C20   A    
Cu2   O12   S    
C10   O3    S    
C24   H24   S    
C7    C8    A    
C4    O12   A    
Cu1   O1    S    
C12   C23   A    
Cu1   O11   S    
C32   C36   A    
C18   C37   A    
C26   H4    S    
Cu1   Cu2   S    
C4    O11   A    
C11   F3    S    
C34   C35   A    
C30   O8    S    
C13   C14   A    
C6    C15   S    
C29   H13   S    
C8    C9    A    
C25   H25   S    
Cu2   N2    S    
C26   H2    S    
C7    O2    S    
C22   H1    S    
C2    C19   A    
C30   H17   S    
C12   C32   A    
C17   C33   A    
Cu2   O16   S    
C28   H9    S    
C27   H5    S    
C24   H23   S    
C1    O10   A    
C25   O3    S    
C1    C9    S    
C8    F2    S    
C27   O5    S    
C26   H3    S    
C28   H8    S    
C12   C21   A    
C31   O9    S    
Cu1   O13   S    
C2    C4    S    
C3    C9    A    
C15   O14   A    
C10   N2    A    
C29   H14   S    
C36   O6    S    
C27   H7    S    
C33   C34   A    
C25   H26   S    
C17   C37   A    
C13   N1    A    
C29   H11   S    
C23   C35   A    
C14   O5    S    
C30   H16   S    
C30   H15   S    
Cu2   O10   S    
C27   H6    S    
Cu1   N1    S    
C31   H19   S    
C37   O17   S    
C28   O6    S    
C1    O1    A    
C31   H18   S    
C34   F4    S    
C3    C5    A    
C11   N1    A    
C22   H12   S    
C35   O9    S    
C19   F6    S    
C6    C7    A    
Cu1   O15   S    
C3    F7    S    
C26   O4    S    
C14   N2    A    
C17   F5    S    
C29   O7    S    
C32   C33   A    
C21   O7    S    
C5    C6    A    
C28   H10   S    
C25   H27   S    
C22   H21   S    
C10   C11   A    
C24   H22   S    
C24   O2    S    
C20   C21   A    
C16   O16   A    
C16   C18   S    
C20   O8    S    
C2    C23   A    
C22   O17   S    
C5    F1    S    
C18   C36   A    
Cu2   O14   S    
C15   O13   A    
