data_mof_unit_13570.cif
_audit_creation_date              2013-03-05T16:33:55-0500
_audit_creation_method            fapswitch 2.2
_symmetry_space_group_name_H-M    P1
_symmetry_Int_Tables_number       1
_space_group_crystal_system       triclinic
_cell_length_a                    17.752545
_cell_length_b                    10.863607
_cell_length_c                    9.521689
_cell_angle_alpha                 90.09494
_cell_angle_beta                  90.280194
_cell_angle_gamma                 90.140411
_cell_volume                      1836.29122405

loop_
_atom_site_label
_atom_site_type_symbol
_atom_site_description
_atom_site_fract_x
_atom_site_fract_y
_atom_site_fract_z
_atom_type_partial_charge
O1    O     O_R   0.500000 0.319640 0.618810 -0.586754
O2    O     O_R   0.500010 0.319680 0.381230 -0.579921
C1    C     C_R   0.500399 0.262684 0.499755 0.840719
O3    O     O_R   0.391250 0.499990 0.618840 -0.547161
O4    O     O_R   0.391260 0.500020 0.381250 -0.546928
C2    C     C_R   0.355088 0.502788 0.499570 0.857314
Cu1   Cu    Cu3+1 0.500000 0.499980 0.640670 1.043597
Cu2   Cu    Cu3+1 0.500000 0.500020 0.359330 1.060063
O5    O     O_R   0.499990 0.680320 0.618770 -0.568259
O6    O     O_R   0.500000 0.680360 0.381190 -0.572303
O7    O     O_R   0.608740 0.499980 0.618750 -0.591514
O8    O     O_R   0.608750 0.500010 0.381160 -0.558859
C3    C     C_R   0.499379 0.737384 0.499991 0.831925
C4    C     C_R   0.644181 0.496849 0.500211 0.866534
C5    C     C_R   0.844530 0.558777 0.606146 -0.097406
C6    C     C_R   0.766166 0.558256 0.604036 -0.185171
C7    C     C_R   0.726661 0.491026 0.501217 -0.123699
C8    C     C_R   0.766897 0.421841 0.400027 0.314105
C9    C     C_R   0.845759 0.425088 0.402215 -0.138420
H1    H     H_    0.877330 0.372308 0.325867 0.206560
C10   C     C_R   0.884131 0.492505 0.505134 0.044176
C11   C     C_1   0.964501 0.492426 0.507132 0.044098
C12   C     C_1   0.031994 0.491724 0.506194 0.123468
C13   C     C_R   0.152165 0.516692 0.624856 -0.211293
H2    H     H_    0.121661 0.533246 0.721477 0.215776
C14   C     C_R   0.230518 0.526324 0.624659 0.296128
C15   C     C_R   0.271071 0.505756 0.498362 -0.320368
C16   C     C_R   0.229843 0.482212 0.372174 0.214881
C17   C     C_R   0.150633 0.474535 0.374464 0.291308
C18   C     C_R   0.112548 0.491335 0.501834 -0.108405
C19   C     C_R   0.503162 0.062654 0.621268 0.009592
C20   C     C_R   0.500749 0.130200 0.497989 -0.071209
C21   C     C_R   0.497542 0.064351 0.370173 -0.113200
H3    H     H_    0.495537 0.111806 0.270264 0.191052
C22   C     C_R   0.496598 0.935260 0.370537 -0.098614
H4    H     H_    0.494004 0.887309 0.270862 0.217347
C23   C     C_R   0.498645 0.870001 0.498661 -0.082829
C24   C     C_R   0.500835 0.938377 0.621892 0.005978
C25   C     C_3   0.503038 0.930767 0.778826 0.086611
C26   C     C_3   0.506345 0.072977 0.777619 0.077795
H5    H     H_    0.554098 0.884055 0.820664 0.161556
H6    H     H_    0.456618 0.120294 0.823382 0.134376
C27   C     C_R   0.540187 0.586730 0.074402 0.241532
N1    N     N_R   0.500470 0.500930 0.147930 -0.230216
C28   C     C_R   0.455007 0.422006 0.073914 0.058150
H7    H     H_    0.420083 0.356804 0.129531 0.166615
C29   C     C_R   0.454651 0.422512 0.924883 0.071086
H8    H     H_    0.419162 0.358072 0.868371 0.140339
N2    N     N_R   0.500480 0.500890 0.852020 -0.192784
C30   C     C_R   0.540670 0.585967 0.926651 0.272136
C31   C     C_3   0.623797 0.605504 0.920656 -0.562071
C32   C     C_3   0.623486 0.606303 0.080278 0.095916
H9    H     H_    0.654053 0.524637 0.877178 0.223848
H10   H     H_    0.638773 0.694990 0.871615 0.222886
H11   H     H_    0.654963 0.528173 0.127439 0.178144
H12   H     H_    0.874206 0.611325 0.685979 0.168972
N3    N     N_R   0.432488 0.883990 0.837302 0.156028
O9    O     O_R   0.367704 0.921211 0.788943 -0.289859
O10   O     O_R   0.434223 0.810747 0.945096 -0.307193
N4    N     N_R   0.578545 0.121848 0.827735 0.156900
O11   O     O_R   0.641896 0.082745 0.775910 -0.295104
O12   O     O_R   0.579697 0.205316 0.925777 -0.326946
H13   H     H_    0.736323 0.612255 0.681465 0.164492
N5    N     N_R   0.643599 0.725883 0.140899 0.162226
O13   O     O_R   0.611250 0.826553 0.097917 -0.331692
O14   O     O_R   0.693815 0.731824 0.240601 -0.322905
N6    N     N_R   0.729252 0.343847 0.299553 0.122275
O15   O     O_R   0.757677 0.328427 0.175046 -0.305489
O16   O     O_R   0.673982 0.273133 0.338809 -0.321629
N7    N     N_R   0.267179 0.562101 0.752970 0.151352
O17   O     O_R   0.249029 0.508462 0.870122 -0.251642
O18   O     O_R   0.306528 0.663229 0.757386 -0.250140
N8    N     N_R   0.267570 0.463373 0.241258 0.162945
O19   O     O_R   0.264598 0.356182 0.180329 -0.310118
O20   O     O_R   0.292858 0.557791 0.171833 -0.249886
N9    N     N_R   0.109125 0.451653 0.246743 0.159934
O21   O     O_R   0.056215 0.368577 0.243092 -0.319405
O22   O     O_R   0.123819 0.514158 0.133639 -0.241346

loop_
_geom_bond_atom_site_label_1
_geom_bond_atom_site_label_2
_geom_bond_distance
_ccdc_geom_bond_type
C26   N4    1.463653 S    
N8    O19   1.300975 A    
C9    H1    1.084218 S    
Cu1   Cu2   2.678832 S    
C29   N2    1.368324 A    
C17   N9    1.439804 S    
C28   H7    1.081139 S    
Cu1   O7    1.942675 S    
C14   C15   1.422223 A    
C17   C18   1.403269 A    
C16   C17   1.408728 A    
C9    C10   1.396206 A    
N9    O22   1.301245 A    
O1    C1    1.290639 A    
C24   C25   1.497027 S    
O7    C4    1.295326 A    
C27   C32   1.494228 S    
N3    O10   1.300015 A    
C5    C6    1.391221 A    
C25   N3    1.463393 S    
C19   C26   1.493538 S    
N4    O12   1.300398 A    
C8    C9    1.400422 A    
O5    C3    1.290647 A    
C22   H4    1.082609 S    
C6    C7    1.404331 A    
C29   H8    1.081579 S    
N7    O17   1.300927 A    
C6    H13   1.082703 S    
C3    C23   1.440867 S    
C32   H11   1.111503 S    
C26   H6    1.112948 S    
C10   C11   1.426798 S    
N8    O20   1.301342 A    
C4    C7    1.465731 S    
O3    Cu1   1.940738 S    
C16   N8    1.432586 S    
C21   H3    1.083241 S    
C28   C29   1.419031 A    
N6    O15   1.301444 A    
C12   C18   1.430855 S    
C13   H2    1.084792 S    
Cu1   N2    2.012393 S    
C25   H5    1.112311 S    
C32   N5    1.463382 S    
C25   C26   1.545948 S    
C30   C31   1.491761 S    
C8    N6    1.438074 S    
C31   C32   1.519912 S    
N4    O11   1.302245 A    
N6    O16   1.301310 A    
N5    O14   1.300516 A    
C27   N1    1.363767 A    
C23   C24   1.388016 A    
C2    C15   1.491942 S    
Cu2   O8    1.940736 S    
C7    C8    1.417888 A    
N9    O21   1.301321 A    
O3    C2    1.302233 A    
O8    C4    1.294236 A    
C14   N7    1.434114 S    
N1    C28   1.368300 A    
Cu1   O5    1.970552 S    
C22   C23   1.412369 A    
O1    Cu1   1.969826 S    
C19   C20   1.385885 A    
O2    Cu2   1.970552 S    
Cu2   N1    2.012984 S    
C13   C14   1.394665 A    
O6    C3    1.288911 A    
O4    Cu2   1.942677 S    
C27   C30   1.406917 A    
C19   C24   1.350656 A    
C31   H10   1.111416 S    
C20   C21   1.411518 A    
O2    C1    1.288152 A    
N5    O13   1.302147 A    
N3    O9    1.302270 A    
O4    C2    1.299831 A    
C21   C22   1.402457 A    
C1    C20   1.439344 S    
C5    H12   1.083698 S    
C13   C18   1.390169 A    
C5    C10   1.394428 A    
Cu2   O6    1.969826 S    
N2    C30   1.363041 A    
C15   C16   1.426252 A    
C11   C12   1.198296 T    
N7    O18   1.300956 A    
C31   H9    1.111285 S    
