data_mof_unit_36252.cif
_audit_creation_date              2012-12-11T14:17:51-0500
_audit_creation_method            fapswitch 2.2
_symmetry_space_group_name_H-M    P1
_symmetry_Int_Tables_number       1
_space_group_crystal_system       triclinic
_cell_length_a                    11.163583
_cell_length_b                    11.015102
_cell_length_c                    18.908587
_cell_angle_alpha                 90.410413
_cell_angle_beta                  89.679179
_cell_angle_gamma                 120.458442
_cell_volume                      2004.21688717

loop_
_atom_site_label
_atom_site_type_symbol
_atom_type_description
_atom_site_fract_x
_atom_site_fract_y
_atom_site_fract_z
_atom_type_partial_charge
C1    C     C_R   0.523286 0.457772 0.146355 0.605653
C2    C     C_R   0.914210 0.382303 0.550209 -0.155565
C3    C     C_R   0.454967 0.067184 0.545404 -0.182985
C4    C     C_R   0.574127 0.589792 0.537087 -0.129694
C5    C     C_R   0.724953 0.968561 0.555089 -0.095097
C6    C     C_R   0.143206 0.776011 0.543868 -0.074205
C7    C     C_R   0.188335 0.348577 0.539113 -0.112902
C8    C     C_R   0.962561 0.731080 0.437140 -0.086894
C9    C     C_R   0.636288 0.888916 0.416956 -0.072505
C10   C     C_R   0.238506 0.387989 0.394838 -0.074027
C11   C     C_R   0.794644 0.923856 0.510851 -0.159118
C12   C     C_R   0.543267 0.066172 0.146344 0.605928
C13   C     C_R   0.137296 0.888911 0.515651 -0.123286
C14   C     C_R   0.084579 0.266048 0.490714 -0.143499
C15   C     C_R   0.049283 0.866750 0.460841 -0.144672
C16   C     C_R   0.749998 0.884148 0.441669 -0.118028
C17   C     C_R   0.106707 0.291240 0.418907 -0.102047
C18   C     C_R   0.517258 0.459571 0.352211 0.526514
C19   C     C_R   0.543845 0.064716 0.354592 0.530271
C20   C     C_R   0.868097 0.452788 0.360724 0.559854
C21   C     C_R   0.419979 0.545472 0.638589 0.549981
C22   C     C_R   0.067922 0.547137 0.644168 0.519326
C23   C     C_R   0.934840 0.477307 0.146399 0.615424
C24   C     C_R   0.485762 0.941363 0.646887 0.513608
C25   C     C_R   0.495162 0.972987 0.928703 0.038842
C26   C     C_R   0.027290 0.521634 0.928855 0.039147
C27   C     C_R   0.477640 0.505453 0.928845 0.039047
C28   C     C_R   0.992284 0.488745 0.075327 -0.000828
C29   C     C_R   0.497919 0.009239 0.075084 -0.000197
C30   C     C_R   0.512223 0.503520 0.075246 0.001937
C31   C     C_R   0.433594 0.046636 0.957106 -0.020163
C32   C     C_R   0.956165 0.384721 0.956928 -0.020094
C33   C     C_R   0.613006 0.567837 0.956439 -0.022564
C34   C     C_R   0.453209 0.520577 0.854240 0.594541
C35   C     C_R   0.951785 0.368167 0.031116 -0.054009
C36   C     C_R   0.420867 0.051067 0.031279 -0.053999
C37   C     C_R   0.630924 0.580808 0.030622 -0.053611
C38   C     C_R   0.548266 0.927292 0.047218 0.203177
C39   C     C_R   0.072693 0.622655 0.047843 0.201601
C40   C     C_R   0.380055 0.453682 0.048326 0.202618
C41   C     C_R   0.090872 0.640044 0.974606 0.227546
C42   C     C_R   0.547138 0.908456 0.974020 0.228473
C43   C     C_R   0.362007 0.454527 0.975099 0.225149
C44   C     C_R   0.372249 0.103547 0.913253 -0.079958
C45   C     C_R   0.066841 0.546052 0.854171 0.587458
C46   C     C_R   0.901072 0.264276 0.912763 -0.081603
C47   C     C_R   0.731122 0.630157 0.911875 -0.084367
C48   C     C_R   0.919495 0.234579 0.057544 -0.076051
C49   C     C_R   0.321135 0.083670 0.057935 -0.074657
C50   C     C_R   0.764212 0.681451 0.056700 -0.076092
C51   C     C_R   0.276706 0.136525 0.940900 -0.128453
C52   C     C_R   0.868475 0.134419 0.940187 -0.125341
C53   C     C_R   0.860848 0.726399 0.939025 -0.128009
C54   C     C_R   0.882148 0.120856 0.012191 -0.131358
C55   C     C_R   0.247719 0.121835 0.012841 -0.134439
C56   C     C_R   0.479217 0.932545 0.854112 0.582041
C57   C     C_R   0.876048 0.755704 0.011029 -0.132630
C58   C     C_R   0.522551 0.003802 0.575412 -0.005770
C59   C     C_R   0.011374 0.518856 0.572244 0.010064
C60   C     C_R   0.438832 0.527840 0.563051 0.004940
C61   C     C_R   0.895797 0.473743 0.437184 -0.001723
C62   C     C_R   0.508411 0.014835 0.427633 0.001228
C63   C     C_R   0.488747 0.506971 0.419109 -0.002489
C64   C     C_R   0.607285 0.972831 0.530938 0.038296
C65   C     C_R   0.041170 0.635301 0.527958 0.028424
C66   C     C_R   0.324997 0.445543 0.516213 0.015201
C67   C     C_R   0.451414 0.076800 0.471783 -0.150283
C68   C     C_R   0.963072 0.612378 0.467099 0.039272
C69   C     C_R   0.577363 0.951869 0.458477 0.016961
C70   C     C_R   0.351136 0.451760 0.442615 0.026621
C71   C     C_R   0.864146 0.359162 0.480885 -0.158079
C72   C     C_R   0.597292 0.571085 0.467337 -0.153162
Cr1   Cr    Cr6+3 0.768550 0.541320 0.250660 1.009261
Cr2   Cr    Cr6+3 0.458680 0.227230 0.250660 1.023221
Cr3   Cr    Cr6+3 0.772770 0.231450 0.250660 1.014792
Cr4   Cr    Cr6+3 0.541320 0.768550 0.749340 1.024474
Cr5   Cr    Cr6+3 0.227230 0.458680 0.749340 1.014052
Cr6   Cr    Cr6+3 0.231450 0.772770 0.749340 1.023754
H1    H     H_    0.391119 0.115301 0.856875 0.118794
H2    H     H_    0.864550 0.022099 0.033265 0.134812
H3    H     H_    0.167318 0.139050 0.034040 0.135961
H4    H     H_    0.974569 0.837043 0.031899 0.135455
H5    H     H_    0.406288 0.134931 0.449550 0.154726
H6    H     H_    0.803192 0.252520 0.461000 0.139573
H7    H     H_    0.700407 0.600695 0.451951 0.121592
H8    H     H_    0.884615 0.293606 0.584874 0.111165
H9    H     H_    0.406356 0.109500 0.579278 0.123142
H10   H     H_    0.663068 0.643908 0.571790 0.149999
H11   H     H_    0.771422 0.009214 0.606198 0.135249
H12   H     H_    0.889807 0.270579 0.856366 0.117071
H13   H     H_    0.226448 0.798905 0.578549 0.172828
H14   H     H_    0.158004 0.327208 0.593466 0.167283
H15   H     H_    0.892863 0.723452 0.396402 0.143467
H16   H     H_    0.603383 0.855720 0.362958 0.138724
H17   H     H_    0.253642 0.405067 0.338376 0.144966
H18   H     H_    0.884044 0.922432 0.530910 0.119017
H19   H     H_    0.198562 0.993973 0.536156 0.115908
H20   H     H_    0.983687 0.187906 0.509497 0.117750
H21   H     H_    0.047407 0.954900 0.437033 0.114813
H22   H     H_    0.804018 0.853011 0.405707 0.099971
H23   H     H_    0.723218 0.611540 0.855412 0.121112
H24   H     H_    0.022583 0.233388 0.381929 0.140965
H25   H     H_    0.559243 0.766347 0.075448 0.330652
H26   H     H_    0.231840 0.796105 0.077054 0.330444
H27   H     H_    0.208431 0.440532 0.077234 0.331727
H28   H     H_    0.162112 0.840407 0.977050 0.329234
H29   H     H_    0.672992 0.836615 0.975473 0.328170
H30   H     H_    0.164055 0.326271 0.976930 0.326848
H31   H     H_    0.935935 0.217792 0.111792 0.174633
H32   H     H_    0.285902 0.065907 0.112004 0.179203
H33   H     H_    0.782570 0.716443 0.110934 0.175641
H34   H     H_    0.221457 0.168487 0.905936 0.154751
H35   H     H_    0.837225 0.045520 0.905017 0.153178
H36   H     H_    0.948421 0.782151 0.903667 0.156116
O1    O     O_R   0.910960 0.572410 0.171010 -0.458036
O2    O     O_R   0.528530 0.639750 0.824400 -0.471720
O3    O     O_R   0.111220 0.471470 0.824400 -0.478236
O4    O     O_R   0.360250 0.888780 0.824400 -0.474683
O5    O     O_R   0.909330 0.572400 0.331540 -0.526336
O6    O     O_R   0.427600 0.336930 0.331540 -0.524074
O7    O     O_R   0.663070 0.090670 0.331540 -0.537598
O8    O     O_R   0.572400 0.909330 0.668460 -0.542932
O9    O     O_R   0.336930 0.427600 0.668460 -0.545961
O10   O     O_R   0.090670 0.663070 0.668460 -0.533474
O11   O     O_R   0.638240 0.528520 0.324410 -0.535556
O12   O     O_R   0.427590 0.338550 0.171010 -0.466091
O13   O     O_R   0.471480 0.109720 0.324410 -0.497947
O14   O     O_R   0.890280 0.361760 0.324410 -0.498205
O15   O     O_R   0.528520 0.638240 0.675590 -0.507682
O16   O     O_R   0.109720 0.471480 0.675590 -0.542841
O17   O     O_R   0.361760 0.890280 0.675590 -0.528906
O18   O     O_3   0.666667 0.333333 0.250630 -0.291773
O19   O     O_3   0.333333 0.666667 0.749370 -0.270925
O20   O     O_3   0.594266 0.863012 0.093108 -0.707369
O21   O     O_3   0.135890 0.734909 0.094101 -0.705478
O22   O     O_3   0.270600 0.408488 0.095158 -0.708412
O23   O     O_R   0.661450 0.089040 0.171010 -0.462035
O24   O     O_3   0.171136 0.772514 0.946502 -0.685316
O25   O     O_3   0.596255 0.826576 0.945577 -0.685042
O26   O     O_3   0.231480 0.405485 0.947486 -0.686101
O27   O     O_R   0.572410 0.910960 0.828990 -0.479512
O28   O     O_R   0.338550 0.427590 0.828990 -0.477350
O29   O     O_R   0.089040 0.661450 0.828990 -0.474161
O30   O     O_R   0.639750 0.528530 0.175600 -0.538158
O31   O     O_R   0.471470 0.111220 0.175600 -0.534102
O32   O     O_R   0.888780 0.360250 0.175600 -0.533174

loop_
_geom_bond_atom_site_label_1
_geom_bond_atom_site_label_2
_ccdc_geom_bond_type
C11   H18   S    
C25   C31   A    
C26   C32   A    
C51   H34   S    
Cr1   O5    S    
H26   O21   S    
Cr2   O18   S    
C12   C29   S    
Cr2   O31   S    
C61   C68   A    
C25   C56   S    
C17   H24   S    
C72   H7    S    
C39   C41   A    
C39   O21   S    
C52   H35   S    
C27   C33   A    
C67   H5    S    
C40   O22   S    
C29   C36   A    
C62   C67   A    
C47   H23   S    
C10   H17   S    
Cr6   O4    S    
C9    C16   A    
C9    C69   A    
C20   O14   A    
Cr5   O3    S    
C31   C36   A    
C18   O11   A    
C18   C63   S    
H28   O24   S    
C19   C62   S    
C34   O2    A    
C6    H13   S    
C57   H4    S    
C46   C52   A    
C62   C69   A    
Cr3   O14   S    
C11   C16   A    
C20   C61   S    
Cr5   O28   S    
C50   H33   S    
C26   C45   S    
C7    C14   A    
C19   O7    A    
C28   C35   A    
C29   C38   A    
C55   H3    S    
Cr6   O10   S    
C47   C53   A    
Cr4   O27   S    
C61   C71   A    
C48   H31   S    
Cr1   O18   S    
C60   C66   A    
Cr3   O32   S    
C22   O16   A    
C13   H19   S    
C14   C17   A    
C4    C60   A    
Cr5   O19   S    
C35   C48   A    
C52   C54   A    
C14   H20   S    
C54   H2    S    
C6    C65   A    
C27   C34   S    
C58   C64   A    
C23   O32   A    
C31   C44   A    
C3    H9    S    
C32   C35   A    
C1    O12   A    
C21   C60   S    
Cr3   O23   S    
C22   C59   S    
H30   O26   S    
C53   C57   A    
C2    C59   A    
C16   H22   S    
C28   C39   A    
C49   C55   A    
C33   C37   A    
C30   C37   A    
C12   O31   A    
C21   O9    A    
C48   C54   A    
Cr6   O17   S    
C3    C58   A    
Cr5   O9    S    
Cr4   O15   S    
Cr2   O13   S    
C63   C70   A    
C65   C68   A    
C40   C43   A    
C24   O8    A    
C30   C40   A    
C43   O26   S    
C64   C69   A    
C21   O15   A    
C41   O24   S    
H27   O22   S    
C46   H12   S    
C56   O27   A    
C10   C70   A    
C44   C51   A    
C8    C68   A    
C8    C15   A    
C13   C15   A    
C5    C11   A    
C33   C47   A    
C23   C28   S    
C2    C71   A    
C18   O6    A    
C4    C72   A    
C53   H36   S    
C71   H6    S    
C45   O3    A    
C34   O28   A    
C42   O25   S    
Cr3   O7    S    
C50   C57   A    
C32   C46   A    
H25   O20   S    
C44   H1    S    
C3    C67   A    
C8    H15   S    
C15   H21   S    
Cr1   O1    S    
C25   C42   A    
Cr4   O19   S    
C22   O10   A    
C4    H10   S    
Cr2   O6    S    
Cr3   O18   S    
Cr4   O8    S    
C1    O30   A    
Cr6   O29   S    
C59   C65   A    
C7    C66   A    
C56   O4    A    
C37   C50   A    
C24   O17   A    
C66   C70   A    
Cr2   O12   S    
Cr1   O11   S    
C7    H14   S    
C19   O13   A    
C1    C30   S    
Cr4   O2    S    
C2    H8    S    
C51   C55   A    
Cr5   O16   S    
C38   O20   S    
H29   O25   S    
Cr6   O19   S    
C23   O1    A    
C38   C42   A    
C27   C43   A    
C63   C72   A    
C5    C64   A    
C24   C58   S    
C45   O29   A    
C12   O23   A    
C10   C17   A    
C9    H16   S    
C20   O5    A    
C5    H11   S    
C36   C49   A    
C26   C41   A    
C49   H32   S    
C6    C13   A    
Cr1   O30   S    
