data_mof_unit_6140.cif
_audit_creation_date              2012-12-11T15:59:44-0500
_audit_creation_method            fapswitch 2.2
_symmetry_space_group_name_H-M    P1
_symmetry_Int_Tables_number       1
_space_group_crystal_system       triclinic
_cell_length_a                    10.740778
_cell_length_b                    10.644817
_cell_length_c                    16.997248
_cell_angle_alpha                 99.222321
_cell_angle_beta                  99.697546
_cell_angle_gamma                 61.544349
_cell_volume                      1676.96619116

loop_
_atom_site_label
_atom_site_type_symbol
_atom_type_description
_atom_site_fract_x
_atom_site_fract_y
_atom_site_fract_z
_atom_type_partial_charge
C1    C     C_R   0.356864 0.769271 0.397812 0.532650
C2    C     C_R   0.884759 0.318802 0.345014 -0.021364
C3    C     C_R   0.357814 0.810499 0.155620 -0.002909
C4    C     C_R   0.369512 0.346230 0.357713 0.566464
C5    C     C_R   0.452237 0.843395 0.213832 0.025037
C6    C     C_R   0.437516 0.851783 0.295689 0.016571
C7    C     C_R   0.284290 0.736424 0.256691 -0.133376
C8    C     C_R   0.285865 0.744248 0.177089 -0.157284
C9    C     C_R   0.557790 0.871609 0.193107 -0.075255
C10   C     C_R   0.633066 0.924293 0.251038 -0.093959
C11   C     C_R   0.610597 0.943671 0.331077 -0.060294
C12   C     C_R   0.932335 0.169279 0.217981 0.022500
C13   C     C_R   0.512173 0.909802 0.353540 -0.080218
C14   C     C_R   0.350466 0.799050 0.316644 0.015231
C15   C     C_R   0.334346 0.344991 0.826270 -0.001698
C16   C     C_R   0.787126 0.372588 0.408498 0.568220
C17   C     C_R   0.465012 0.257922 0.793867 0.043210
C18   C     C_R   0.458722 0.223196 0.710742 0.000116
C19   C     C_R   0.222773 0.429358 0.696502 -0.144689
C20   C     C_R   0.215552 0.436026 0.777869 -0.162887
C21   C     C_R   0.597102 0.188988 0.842255 0.172682
C22   C     C_R   0.708401 0.065327 0.809361 -0.089446
C23   C     C_R   0.915144 0.186211 0.300775 0.003911
C24   C     C_R   0.691863 0.014407 0.729727 -0.146847
C25   C     C_R   0.568676 0.092354 0.680555 -0.087244
C26   C     C_R   0.343302 0.322297 0.661513 -0.001089
C27   C     C_1   0.766736 0.368424 0.714922 -0.036029
C28   C     C_R   0.358146 0.770172 0.627228 0.542999
C29   C     C_1   0.812488 0.329593 0.781025 -0.036529
C30   C     C_1   0.339351 0.810927 0.709396 -0.037449
C31   C     C_1   0.312770 0.838496 0.777443 -0.036408
C32   C     C_R   0.959955 0.280724 0.100503 0.562237
C33   C     C_R   0.319136 0.299654 0.119925 0.541773
C34   C     C_R   0.923535 0.412512 0.317311 0.030550
C35   C     C_R   0.298782 0.885079 0.083084 0.535160
C36   C     C_R   0.879697 0.300451 0.860311 0.559139
C37   C     C_R   0.308882 0.296793 0.894840 0.570191
C38   C     C_R   0.278598 0.884867 0.857267 0.548428
C39   C     C_R   0.370498 0.345127 0.584679 0.549996
C40   C     C_R   0.716643 0.412029 0.635639 0.557619
C41   C     C_1   0.342734 0.336227 0.274249 -0.036896
C42   C     C_1   0.331726 0.326158 0.203300 -0.043953
C43   C     C_R   0.939020 0.282363 0.184879 -0.030859
C44   C     C_2   0.946683 0.525958 0.371008 0.599018
C45   C     C_R   0.945926 0.395141 0.237239 -0.166284
C46   C     C_3   0.576820 0.389682 0.943931 -0.283091
C47   C     C_R   0.942121 0.039944 0.173983 -0.083185
C48   C     C_R   0.952776 0.928179 0.212122 -0.149266
C49   C     C_R   0.952672 0.941168 0.294554 -0.126905
C50   C     C_R   0.931408 0.069771 0.338537 -0.086498
Cr1   Cr    Cr6+3 0.608100 0.610860 0.522250 1.030432
Cr2   Cr    Cr6+3 0.288890 0.599990 0.488420 1.028386
Cr3   Cr    Cr6+3 0.603040 0.289190 0.489390 0.999185
Cr4   Cr    Cr6+3 0.053960 0.052250 0.967380 0.976616
Cr5   Cr    Cr6+3 0.059890 0.373160 0.992710 0.999889
Cr6   Cr    Cr6+3 0.373370 0.061690 0.991710 1.014908
H1    H     H_    0.707132 0.952090 0.232995 0.131872
H2    H     H_    0.970435 0.470539 0.215624 0.165049
H3    H     H_    0.962991 0.829668 0.177452 0.110969
H4    H     H_    0.965563 0.852516 0.324207 0.175303
H5    H     H_    0.932507 0.076000 0.402818 0.132372
H6    H     H_    0.227756 0.683054 0.271060 0.152979
H7    H     H_    0.586611 0.849779 0.132671 0.136905
H8    H     H_    0.221122 0.709025 0.132660 0.129030
H9    H     H_    0.012472 0.588470 0.481530 0.331201
H10   H     H_    0.705592 0.170151 0.958537 0.258997
H11   H     H_    0.491138 0.437822 0.984324 0.146085
H12   H     H_    0.670300 0.984182 0.375906 0.138604
H13   H     H_    0.538969 0.449266 0.889589 0.129478
H14   H     H_    0.669827 0.402669 0.975526 0.174042
H15   H     H_    0.494944 0.930621 0.416169 0.123338
H16   H     H_    0.133757 0.506512 0.660737 0.150905
H17   H     H_    0.115338 0.507165 0.802054 0.146683
H18   H     H_    0.806845 0.006251 0.846029 0.127063
H19   H     H_    0.775916 0.915581 0.705550 0.120633
H20   H     H_    0.559143 0.047192 0.619491 0.141970
H21   H     H_    0.941662 0.018096 0.110455 0.171729
N1    N     N_2   0.616529 0.238447 0.924489 -0.497866
O1    O     O_R   0.749810 0.499790 0.438040 -0.469540
O2    O     O_R   0.411730 0.181020 0.091530 -0.507820
O3    O     O_R   0.365010 0.944360 0.063320 -0.514736
O4    O     O_R   0.477660 0.726260 0.439290 -0.505455
O5    O     O_R   0.159380 0.906670 0.876210 -0.515132
O6    O     O_R   0.930820 0.177420 0.886730 -0.496398
O7    O     O_R   0.910360 0.395420 0.895720 -0.513534
O8    O     O_R   0.186010 0.361730 0.919870 -0.509428
O9    O     O_R   0.400000 0.173010 0.914630 -0.481359
O10   O     O_R   0.354140 0.936940 0.899340 -0.495738
O11   O     O_3   0.162410 0.162370 0.983930 -0.256624
O12   O     O_R   0.298970 0.468800 0.557390 -0.493096
O13   O     O_R   0.260150 0.743000 0.412270 -0.520678
O14   O     O_R   0.297740 0.466550 0.394720 -0.478341
O15   O     O_R   0.488080 0.253500 0.386430 -0.525702
O16   O     O_R   0.722670 0.303800 0.421940 -0.510391
O17   O     O_R   0.751130 0.502220 0.613520 -0.499192
O18   O     O_R   0.478890 0.728510 0.601960 -0.516058
O19   O     O_R   0.261470 0.745430 0.587750 -0.513273
O20   O     O_2   0.922353 0.636778 0.344745 -0.571930
O21   O     O_R   0.000850 0.503922 0.451205 -0.675800
O22   O     O_R   0.489400 0.255930 0.561910 -0.540131
O23   O     O_R   0.723890 0.306050 0.584610 -0.494763
O24   O     O_3   0.500010 0.500010 0.500020 -0.270206
O25   O     O_R   0.171100 0.914680 0.053100 -0.541301
O26   O     O_R   0.941680 0.184840 0.050710 -0.534759
O27   O     O_R   0.922080 0.403420 0.072610 -0.523400
O28   O     O_R   0.196880 0.369150 0.083850 -0.523765

loop_
_geom_bond_atom_site_label_1
_geom_bond_atom_site_label_2
_ccdc_geom_bond_type
C28   O19   A    
C38   O5    A    
C27   C29   T    
C41   C42   T    
Cr2   O12   S    
C19   C20   A    
C18   C26   A    
Cr4   O6    S    
C35   O3    A    
Cr6   O3    S    
Cr1   O24   S    
C29   C36   S    
Cr2   O24   S    
C49   H4    S    
Cr5   O27   S    
C33   C42   S    
Cr4   O26   S    
C12   C43   A    
C35   O25   A    
C30   C31   T    
C44   O21   S    
C26   C39   S    
Cr6   O10   S    
C4    C41   S    
Cr2   O19   S    
C19   C26   A    
C15   C37   S    
C46   H13   S    
C40   O23   A    
C44   O20   D    
C7    C14   A    
Cr3   O23   S    
C21   N1    S    
C32   O26   A    
C2    C16   S    
C9    C10   A    
C27   C40   S    
C39   O12   A    
Cr1   O18   S    
C2    C34   A    
C1    O13   A    
C21   C22   A    
C19   H16   S    
C18   C25   A    
C12   C47   A    
Cr4   O5    S    
Cr3   O22   S    
C15   C20   A    
H10   N1    S    
C45   H2    S    
Cr5   O28   S    
Cr3   O15   S    
Cr4   O25   S    
C7    C8    A    
C10   H1    S    
C34   C44   S    
C24   C25   A    
H9    O21   S    
Cr4   O11   S    
C3    C8    A    
C46   N1    S    
C23   C50   A    
C13   H15   S    
C3    C5    A    
C1    O4    A    
C17   C21   A    
C38   O10   A    
Cr5   O7    S    
C7    H6    S    
C5    C9    A    
C6    C14   A    
C37   O8    A    
C47   C48   A    
C12   C23   A    
C3    C35   S    
Cr3   O24   S    
C17   C18   A    
C24   H19   S    
C34   C45   A    
C43   C45   A    
Cr1   O4    S    
C8    H8    S    
C48   C49   A    
C32   O27   A    
C22   C24   A    
Cr2   O14   S    
C22   H18   S    
C40   O17   A    
C11   H12   S    
C48   H3    S    
C15   C17   A    
Cr6   O11   S    
Cr3   O16   S    
C9    H7    S    
C37   O9    A    
C33   O28   A    
Cr6   O9    S    
C33   O2    A    
C36   O7    A    
C16   O16   A    
Cr6   O2    S    
C31   C38   S    
C28   O18   A    
C16   O1    A    
C25   H20   S    
Cr5   O8    S    
C28   C30   S    
C46   H11   S    
Cr5   O11   S    
C6    C13   A    
C11   C13   A    
C39   O22   A    
C5    C6    A    
C36   O6    A    
C32   C43   S    
C20   H17   S    
Cr1   O1    S    
C46   H14   S    
C10   C11   A    
C4    O15   A    
C49   C50   A    
C2    C23   A    
C50   H5    S    
C47   H21   S    
Cr2   O13   S    
C1    C14   S    
Cr1   O17   S    
C4    O14   A    
