data_mof_unit_44763.cif
_audit_creation_date              2012-10-26T18:26:34-0400
_audit_creation_method            fapswitch 2.2
_symmetry_space_group_name_H-M    P1
_symmetry_Int_Tables_number       1
_space_group_crystal_system       triclinic
_cell_length_a                    15.825545
_cell_length_b                    8.693986
_cell_length_c                    7.45401
_cell_angle_alpha                 103.00594
_cell_angle_beta                  94.028112
_cell_angle_gamma                 92.208835
_cell_volume                      995.237798095

loop_
_atom_site_label
_atom_site_type_symbol
_atom_type_description
_atom_site_fract_x
_atom_site_fract_y
_atom_site_fract_z
_atom_type_partial_charge
C1    C     C_R   0.497483 0.199746 0.453276 0.547386
C2    C     C_3   0.977349 0.634647 0.608967 -0.100870
C3    C     C_1   0.250330 0.500382 0.507705 -0.029504
C4    C     C_1   0.749670 0.499618 0.492295 -0.029504
C5    C     C_3   0.032028 0.510722 0.674531 -0.100900
C6    C     C_3   0.967972 0.489278 0.325469 -0.100900
C7    C     C_3   0.082835 0.500305 0.504757 0.052877
C8    C     C_3   0.917165 0.499695 0.495242 0.052877
C9    C     C_1   0.174679 0.500492 0.508130 -0.061100
C10   C     C_1   0.825321 0.499507 0.491870 -0.061100
C11   C     C_R   0.502517 0.800254 0.546724 0.547386
C12   C     C_R   0.339929 0.499864 0.502536 0.549915
C13   C     C_R   0.660071 0.500136 0.497464 0.549915
C14   C     C_2   0.496275 0.031850 0.427044 -0.155456
C15   C     C_2   0.503725 0.968150 0.572956 -0.155456
C16   C     C_3   0.970282 0.375771 0.560782 -0.100784
C17   C     C_3   0.029718 0.624229 0.439218 -0.100784
C18   C     C_3   0.022651 0.365353 0.391033 -0.100870
Cu1   Cu    Cu3+1 0.509330 0.517380 0.684380 0.962552
Cu2   Cu    Cu3+1 0.490670 0.482620 0.315620 0.962552
H1    H     H_    0.944439 0.273727 0.610447 0.103988
H2    H     H_    0.059643 0.519502 0.817819 0.105740
H3    H     H_    0.055561 0.726272 0.389553 0.103988
H4    H     H_    0.489251 0.960286 0.286408 0.135160
H5    H     H_    0.510749 0.039714 0.713592 0.135160
H6    H     H_    0.434419 0.377492 0.948797 0.240204
H7    H     H_    0.565581 0.622508 0.051203 0.240204
H8    H     H_    0.042698 0.254778 0.301814 0.103464
H9    H     H_    0.957302 0.745222 0.698186 0.103464
H10   H     H_    0.940357 0.480498 0.182180 0.105740
N1    N     N_2   0.476600 0.456420 0.038510 -0.255269
N2    N     N_2   0.523400 0.543580 0.961490 -0.255269
O1    O     O_R   0.506070 0.286130 0.619780 -0.505872
O2    O     O_R   0.493930 0.713870 0.380220 -0.505872
O3    O     O_R   0.490300 0.256770 0.308360 -0.497893
O4    O     O_R   0.509700 0.743230 0.691640 -0.497893
O5    O     O_R   0.386960 0.514660 0.655680 -0.499694
O6    O     O_R   0.613040 0.485340 0.344320 -0.499694
O7    O     O_R   0.371190 0.485310 0.344260 -0.493943
O8    O     O_R   0.628810 0.514690 0.655740 -0.493943

loop_
_geom_bond_atom_site_label_1
_geom_bond_atom_site_label_2
_ccdc_geom_bond_type
C16   H1    S    
C3    C9    T    
C1    C14   S    
Cu2   O6    S    
N1    N2    D    
C7    C18   S    
Cu2   O2    S    
C12   O7    A    
Cu2   O7    S    
C1    O1    A    
H6    N1    S    
C8    C16   S    
C2    C17   S    
C13   O6    A    
C17   H3    S    
C2    H9    S    
Cu1   N2    S    
C8    C10   S    
C11   O4    A    
C6    H10   S    
Cu1   O4    S    
C6    C18   S    
C15   H5    S    
C2    C5    S    
Cu1   O8    S    
C4    C10   T    
C7    C9    S    
C12   O5    A    
C18   H8    S    
C1    O3    A    
C16   C18   S    
Cu1   O1    S    
C14   H4    S    
C4    C13   S    
C5    C7    S    
C6    C17   S    
C14   C15   D    
C13   O8    A    
C6    C8    S    
C3    C12   S    
Cu1   O5    S    
C7    C17   S    
H7    N2    S    
Cu2   O3    S    
C11   C15   S    
C11   O2    A    
C2    C8    S    
C5    H2    S    
Cu1   Cu2   S    
C5    C16   S    
Cu2   N1    S    
