data_mof_unit_38616.cif
_audit_creation_date              2012-12-10T18:13:37-0500
_audit_creation_method            fapswitch 2.2
_symmetry_space_group_name_H-M    P1
_symmetry_Int_Tables_number       1
_space_group_crystal_system       triclinic
_cell_length_a                    12.585978
_cell_length_b                    13.024619
_cell_length_c                    16.991729
_cell_angle_alpha                 90.343283
_cell_angle_beta                  98.201144
_cell_angle_gamma                 98.017844
_cell_volume                      2729.02509524

loop_
_atom_site_label
_atom_site_type_symbol
_atom_type_description
_atom_site_fract_x
_atom_site_fract_y
_atom_site_fract_z
_atom_type_partial_charge
C1    C     C_R   0.561014 0.692310 0.510860 0.926774
C2    C     C_R   0.469488 0.474869 0.731064 -0.022577
C3    C     C_R   0.343084 0.077663 0.358025 0.019629
C4    C     C_R   0.512555 0.494956 0.349371 0.850152
C5    C     C_R   0.402486 0.200717 0.467764 -0.148109
C6    C     C_R   0.681757 0.842589 0.587341 0.404459
C7    C     C_R   0.698343 0.948574 0.606286 -0.215320
C8    C     C_R   0.629079 0.013049 0.568870 -0.158136
C9    C     C_R   0.543647 0.973955 0.509056 0.120213
C10   C     C_R   0.543751 0.874434 0.476597 -0.002556
C11   C     C_R   0.465594 0.035138 0.475181 -0.044220
C12   C     C_R   0.613014 0.477977 0.231813 -0.017473
C13   C     C_R   0.407595 0.007944 0.397955 0.049689
C14   C     C_R   0.421816 0.915862 0.360382 -0.236738
C15   C     C_R   0.490414 0.850533 0.398219 0.003460
C16   C     C_R   0.439413 0.308482 0.489918 0.939509
C17   C     C_R   0.446562 0.125356 0.513924 0.357599
C18   C     C_R   0.346252 0.176053 0.391562 -0.299413
C19   C     C_R   0.600970 0.803954 0.522484 -0.254853
C20   C     C_R   0.899943 0.346891 0.610800 -0.282656
C21   C     C_R   0.210441 0.629354 0.405781 0.029967
C22   C     C_R   0.108238 0.658401 0.386426 -0.228101
C23   C     C_R   0.526952 0.395546 0.854533 -0.073471
C24   C     C_R   0.022867 0.609649 0.422418 -0.148200
C25   C     C_R   0.039840 0.530977 0.478049 0.021374
C26   C     C_R   0.145504 0.504023 0.495368 0.222338
C27   C     C_R   0.956787 0.478131 0.516913 -0.011727
C28   C     C_R   0.484889 0.497482 0.649694 0.936985
C29   C     C_R   0.980947 0.399873 0.572034 0.171896
C30   C     C_R   0.085501 0.374920 0.587686 -0.246632
C31   C     C_R   0.166497 0.426146 0.549548 -0.187252
C32   C     C_R   0.849811 0.499232 0.503215 0.057357
C33   C     C_R   0.795749 0.371272 0.594235 0.033051
C34   C     C_R   0.542298 0.419859 0.777590 -0.098500
C35   C     C_R   0.518112 0.493930 0.263795 -0.067414
C36   C     C_R   0.426063 0.514624 0.212393 -0.171979
C37   C     C_R   0.428051 0.520992 0.131607 -0.176966
C38   C     C_R   0.521782 0.506358 0.100814 0.081064
C39   C     C_R   0.613870 0.485275 0.150307 -0.131516
C40   C     C_1   0.272947 0.511878 0.870296 0.192241
C41   C     C_1   0.282120 0.054835 0.279662 0.168784
C42   C     C_1   0.526266 0.776470 0.348284 0.155328
C43   C     C_1   0.710010 0.452418 0.279247 0.204221
C44   C     C_R   0.377602 0.500230 0.760639 -0.207735
C45   C     C_R   0.363188 0.477937 0.838643 0.056718
C46   C     C_R   0.441215 0.429468 0.886332 0.166530
C47   C     C_2   0.520737 0.505568 0.015703 0.423199
C48   C     C_2   0.448322 0.434332 0.971986 -0.420571
H1    H     H_    0.352124 0.527102 0.234398 0.169515
H2    H     H_    0.823440 0.556998 0.462851 0.132318
H3    H     H_    0.277526 0.667060 0.378365 0.141335
H4    H     H_    0.945226 0.635186 0.405454 0.150135
H5    H     H_    0.095263 0.718578 0.343894 0.163960
H6    H     H_    0.244893 0.402889 0.563445 0.224467
H7    H     H_    0.319170 0.540043 0.724050 0.172969
H8    H     H_    0.390998 0.381132 0.999641 0.158220
H9    H     H_    0.685346 0.472165 0.124881 0.165992
H10   H     H_    0.586669 0.357599 0.891406 0.159497
H11   H     H_    0.356335 0.536803 0.092835 0.156103
H12   H     H_    0.309685 0.235089 0.356856 0.176019
H13   H     H_    0.565174 0.200647 0.718461 0.380234
H14   H     H_    0.906998 0.866705 0.695295 0.358406
H15   H     H_    0.719694 0.738724 0.020228 0.397773
H16   H     H_    0.384205 0.896906 0.299628 0.161046
H17   H     H_    0.645393 0.094411 0.585225 0.200903
H18   H     H_    0.761949 0.981484 0.652840 0.185092
H19   H     H_    0.731673 0.331245 0.623338 0.175719
H20   H     H_    0.612048 0.396973 0.755122 0.172255
H21   H     H_    0.104772 0.315216 0.629396 0.181118
H22   H     H_    0.916938 0.287196 0.653049 0.157766
N1    N     N_R   0.774070 0.445420 0.541180 -0.104629
N2    N     N_R   0.226730 0.554050 0.459240 -0.133190
N3    N     N_1   0.200694 0.539082 0.895708 -0.155037
N4    N     N_1   0.233294 0.036621 0.216938 -0.177701
N5    N     N_1   0.557134 0.719888 0.307142 -0.187765
N6    N     N_1   0.787996 0.431581 0.316638 -0.207464
O1    O     O_R   0.631480 0.627510 0.519670 -0.549731
O2    O     O_2   0.444891 0.030581 0.655111 -0.264549
O3    O     O_3   0.560221 0.213646 0.660781 -0.633255
O4    O     O_2   0.688881 0.682879 0.685802 -0.230325
O5    O     O_2   0.828588 0.710011 0.598489 -0.316443
O6    O     O_3   0.845128 0.834198 0.720885 -0.504273
O7    O     O_2   0.704771 0.546866 0.952203 -0.295367
O8    O     O_2   0.558738 0.647600 0.904400 -0.249940
O9    O     O_3   0.666353 0.691649 0.045471 -0.535126
O10   O     O_R   0.455770 0.662400 0.493360 -0.608464
O11   O     O_R   0.598240 0.480510 0.398910 -0.623702
O12   O     O_R   0.422540 0.515400 0.372600 -0.633119
O13   O     O_R   0.544230 0.337600 0.506640 -0.605577
O14   O     O_R   0.368520 0.372490 0.480330 -0.641111
O15   O     O_R   0.577460 0.484600 0.627400 -0.571686
O16   O     O_R   0.401760 0.519490 0.601090 -0.650514
O17   O     O_2   0.350827 0.182614 0.635139 -0.306310
S1    S     S_3+6 0.448408 0.135815 0.618834 0.001464
S2    S     S_3+6 0.761651 0.763290 0.648074 0.065550
S3    S     S_3+6 0.614341 0.598855 0.975889 0.050803
Zn1   Zn    Zn3+2 0.617320 0.476700 0.517570 1.033862
Zn2   Zn    Zn3+2 0.382680 0.523300 0.482430 0.952336

loop_
_geom_bond_atom_site_label_1
_geom_bond_atom_site_label_2
_ccdc_geom_bond_type
C24   H4    S    
C23   H10   S    
C16   O14   A    
O17   S1    D    
C27   C29   A    
C1    O1    A    
C35   C36   A    
O16   Zn2   S    
C7    C8    A    
C4    O11   A    
N2    Zn2   S    
C45   C46   A    
C6    C19   A    
N1    Zn1   S    
C42   N5    T    
C37   C38   A    
C36   C37   A    
O2    S1    D    
C12   C43   S    
C10   C15   A    
C30   C31   A    
O5    S2    D    
O9    S3    S    
C5    C17   A    
C39   H9    S    
C1    O10   A    
C26   N2    A    
C40   N3    T    
C3    C18   A    
O8    S3    D    
C5    C16   S    
C41   N4    T    
C11   C17   A    
C2    C44   A    
C8    C9    A    
C47   S3    S    
O1    Zn1   S    
C32   N1    A    
C9    C10   A    
C3    C13   A    
C2    C34   A    
H14   O6    S    
C4    C35   S    
C8    H17   S    
C23   C46   A    
C13   C14   A    
H15   O9    S    
C20   H22   S    
C22   H5    S    
C20   C29   A    
C40   C45   S    
C46   C48   S    
C1    C19   S    
C21   N2    A    
C24   C25   A    
O3    S1    S    
C34   H20   S    
C5    C18   A    
C25   C26   A    
O13   Zn1   S    
O4    S2    D    
C29   C30   A    
C47   C48   D    
C10   C19   A    
C23   C34   A    
C14   H16   S    
C28   O16   A    
O15   Zn1   S    
C12   C35   A    
C9    C11   A    
C32   H2    S    
C38   C47   S    
C37   H11   S    
C20   C33   A    
C18   H12   S    
C22   C24   A    
C21   H3    S    
C30   H21   S    
C44   C45   A    
C33   H19   S    
C43   N6    T    
C48   H8    S    
C3    C41   S    
O6    S2    S    
C27   C32   A    
C26   C31   A    
C15   C42   S    
C6    C7    A    
C4    O12   A    
C25   C27   A    
C12   C39   A    
C7    H18   S    
C11   C13   A    
C44   H7    S    
C38   C39   A    
H13   O3    S    
O7    S3    D    
C28   O15   A    
C31   H6    S    
O10   Zn2   S    
C33   N1    A    
C16   O13   A    
C6    S2    S    
C14   C15   A    
C2    C28   S    
C17   S1    S    
C21   C22   A    
O14   Zn2   S    
O12   Zn2   S    
C36   H1    S    
O11   Zn1   S    
