data_mof_unit_48311.cif
_audit_creation_date              2012-12-11T16:28:08-0500
_audit_creation_method            fapswitch 2.2
_symmetry_space_group_name_H-M    P1
_symmetry_Int_Tables_number       1
_space_group_crystal_system       triclinic
_cell_length_a                    30.097947
_cell_length_b                    22.406047
_cell_length_c                    18.114656
_cell_angle_alpha                 90.206234
_cell_angle_beta                  123.822702
_cell_angle_gamma                 89.966462
_cell_volume                      10148.6066983

loop_
_atom_site_label
_atom_site_type_symbol
_atom_type_description
_atom_site_fract_x
_atom_site_fract_y
_atom_site_fract_z
_atom_type_partial_charge
C1    C     C_R   0.533937 0.603825 0.713971 -0.130242
C2    C     C_R   0.700267 0.403422 0.435432 -0.163892
C3    C     C_R   0.709781 0.821356 0.811283 0.298738
C4    C     C_R   0.303415 0.864761 0.020609 0.329186
C5    C     C_R   0.695459 0.115266 0.946613 0.304217
C6    C     C_R   0.698314 0.865020 0.997616 0.314009
C7    C     C_R   0.305652 0.113880 0.050613 0.308240
C8    C     C_R   0.783605 0.186715 0.852711 -0.273753
C9    C     C_R   0.220983 0.808490 0.140126 -0.272199
C10   C     C_R   0.219720 0.180869 0.151978 -0.272648
C11   C     C_R   0.760022 0.845584 0.840314 -0.272066
C12   C     C_R   0.358438 0.852492 0.068425 -0.261689
C13   C     C_R   0.700222 0.596246 0.435712 -0.162956
C14   C     C_R   0.644070 0.136533 0.914688 -0.273236
C15   C     C_R   0.650186 0.837719 0.972262 -0.271656
C16   C     C_R   0.356664 0.136173 0.081690 -0.268643
C17   C     C_R   0.596506 0.581056 0.427521 -0.137330
C18   C     C_R   0.403756 0.418636 0.572773 -0.131754
C19   C     C_R   0.405026 0.581402 0.574722 -0.134000
C20   C     C_R   0.596315 0.418669 0.427166 -0.134388
C21   C     C_R   0.075994 0.110098 0.426839 -0.128643
C22   C     C_R   0.923899 0.889980 0.573167 -0.129148
C23   C     C_R   0.924196 0.110233 0.573587 -0.129438
C24   C     C_R   0.300152 0.403322 0.565074 -0.161465
C25   C     C_R   0.075518 0.890714 0.424895 -0.127458
C26   C     C_R   0.394515 0.610259 0.295801 -0.132439
C27   C     C_R   0.607893 0.392429 0.709864 -0.130105
C28   C     C_R   0.608573 0.606716 0.714336 -0.135214
C29   C     C_R   0.392252 0.392003 0.290267 -0.130205
C30   C     C_R   0.881460 0.082096 0.256549 -0.139706
C31   C     C_R   0.118333 0.917104 0.742517 -0.151978
C32   C     C_R   0.118712 0.081867 0.743669 -0.141201
C33   C     C_R   0.881379 0.917701 0.257494 -0.150009
C34   C     C_R   0.580559 0.636054 0.744939 0.066219
C35   C     C_R   0.893263 0.240160 0.571918 -0.164330
C36   C     C_R   0.420376 0.360218 0.262357 0.063784
C37   C     C_R   0.424075 0.642431 0.271030 0.064822
C38   C     C_R   0.579913 0.360880 0.738020 0.065545
C39   C     C_R   0.098569 0.096645 0.794405 0.072268
C40   C     C_R   0.901205 0.902652 0.206713 0.075476
C41   C     C_R   0.901901 0.097164 0.206387 0.073169
C42   C     C_R   0.097688 0.902258 0.792167 0.076187
C43   C     C_R   0.646362 0.595645 0.502078 0.039827
C44   C     C_R   0.353782 0.404303 0.498316 0.042611
C45   C     C_R   0.354743 0.594867 0.502155 0.041841
C46   C     C_R   0.126537 0.777192 0.418759 -0.166574
C47   C     C_R   0.646245 0.404393 0.501560 0.041783
C48   C     C_R   0.113007 0.142923 0.501903 0.033208
C49   C     C_R   0.886821 0.857190 0.498121 0.032867
C50   C     C_R   0.887272 0.143019 0.498791 0.033213
C51   C     C_R   0.111994 0.857191 0.498245 0.032473
C52   C     C_R   0.213107 0.616127 0.436988 -0.179066
C53   C     C_R   0.780730 0.340204 0.582627 -0.163807
C54   C     C_R   0.780611 0.660534 0.582469 -0.163334
C55   C     C_R   0.219427 0.339685 0.417818 -0.164281
C56   C     C_R   0.796265 0.275908 0.419982 -0.164439
C57   C     C_R   0.107068 0.239874 0.429418 -0.163887
C58   C     C_R   0.178849 0.707116 0.571834 -0.181962
C59   C     C_R   0.204615 0.275559 0.580873 -0.163614
C60   C     C_R   0.795310 0.724437 0.419353 -0.164270
C61   C     C_R   0.256360 0.595816 0.435497 -0.160106
C62   C     C_R   0.736570 0.360222 0.580774 -0.167764
C63   C     C_R   0.736637 0.640330 0.581049 -0.172569
C64   C     C_R   0.263409 0.359878 0.419266 -0.170706
C65   C     C_R   0.820059 0.223198 0.418978 -0.166756
C66   C     C_R   0.154496 0.760246 0.570908 -0.162193
C67   C     C_R   0.180697 0.222978 0.581849 -0.166402
C68   C     C_R   0.892890 0.760229 0.570645 -0.164312
C69   C     C_R   0.819130 0.777085 0.418289 -0.167141
C70   C     C_R   0.308727 0.609299 0.506370 0.140054
C71   C     C_R   0.694923 0.389550 0.505583 0.142087
C72   C     C_R   0.695016 0.610465 0.506048 0.142875
C73   C     C_R   0.305191 0.389409 0.494492 0.139387
C74   C     C_R   0.867189 0.203207 0.496410 0.143973
C75   C     C_R   0.130603 0.797129 0.495792 0.143697
C76   C     C_R   0.133270 0.203024 0.504604 0.143633
C77   C     C_R   0.866579 0.797083 0.495468 0.144454
C78   C     C_3   0.700913 0.227438 0.720218 -1.025326
C79   C     C_R   0.274304 0.658759 0.583273 -0.164579
C80   C     C_3   0.307144 0.790456 0.282846 -1.009661
C81   C     C_3   0.303073 0.220970 0.284666 -1.021242
C82   C     C_3   0.672579 0.808498 0.713101 -1.017574
C83   C     C_3   0.280674 0.889286 0.928492 -1.064028
C84   C     C_3   0.709596 0.054522 0.989068 -1.045399
C85   C     C_3   0.717835 0.913815 0.066812 -1.069512
C86   C     C_3   0.291080 0.053961 0.004439 -1.054242
C87   C     C_R   0.744784 0.383482 0.437407 -0.179284
C88   C     C_R   0.744492 0.616439 0.437210 -0.180083
C89   C     C_R   0.466626 0.393264 0.290046 -0.131412
C90   C     C_R   0.255830 0.383232 0.563491 -0.179285
C91   C     C_R   0.869425 0.293229 0.572805 -0.182542
C92   C     C_R   0.150973 0.724435 0.419819 -0.163815
C93   C     C_R   0.131025 0.292794 0.428556 -0.182767
C94   C     C_R   0.869027 0.707263 0.571599 -0.182870
C95   C     C_R   0.221912 0.650657 0.508857 0.116014
C96   C     C_R   0.783911 0.348953 0.509037 0.115922
C97   C     C_R   0.783564 0.651466 0.508621 0.116258
C98   C     C_R   0.216586 0.348501 0.491822 0.115141
C99   C     C_R   0.819029 0.309385 0.498576 0.115348
C100  C     C_R   0.468564 0.607856 0.294707 -0.130590
C101  C     C_R   0.180075 0.690836 0.498059 0.114929
C102  C     C_R   0.181641 0.308926 0.502503 0.115472
C103  C     C_R   0.818406 0.691070 0.497743 0.115221
C104  C     C_R   0.412154 0.702885 0.231677 0.115362
C105  C     C_R   0.594649 0.301465 0.781224 0.112188
C106  C     C_R   0.595501 0.691578 0.797733 0.117007
C107  C     C_R   0.405943 0.300485 0.219136 0.117063
C108  C     C_R   0.870960 0.115610 0.111620 0.111450
C109  C     C_R   0.128486 0.881514 0.884838 0.107858
C110  C     C_R   0.130144 0.113818 0.889926 0.109921
C111  C     C_R   0.533526 0.393606 0.710209 -0.132522
C112  C     C_R   0.867198 0.887286 0.111361 0.109203
C113  C     C_R   0.431610 0.785190 0.166457 0.028309
C114  C     C_R   0.576849 0.215749 0.843872 0.039842
C115  C     C_R   0.585644 0.757833 0.894400 0.030466
C116  C     C_R   0.423132 0.216171 0.152988 0.030126
C117  C     C_R   0.868305 0.150382 0.981516 0.039567
C118  C     C_R   0.133925 0.829487 0.006283 0.032114
C119  C     C_R   0.134341 0.145547 0.022866 0.039936
C120  C     C_R   0.848542 0.881681 0.962119 0.039887
C121  C     C_R   0.446964 0.731989 0.214948 -0.226109
C122  C     C_R   0.044811 0.080843 0.743120 -0.142805
C123  C     C_R   0.561577 0.271214 0.800655 -0.218590
C124  C     C_R   0.569565 0.707651 0.839545 -0.229588
C125  C     C_R   0.438246 0.271548 0.196710 -0.227041
C126  C     C_R   0.896944 0.128938 0.069007 -0.222454
C127  C     C_R   0.103454 0.852272 0.920139 -0.234481
C128  C     C_R   0.104939 0.125508 0.934358 -0.219138
C129  C     C_R   0.883773 0.894741 0.053349 -0.216975
C130  C     C_R   0.364748 0.731382 0.208439 -0.246258
C131  C     C_R   0.642053 0.274144 0.801659 -0.254113
C132  C     C_R   0.635549 0.728721 0.806578 -0.253018
C133  C     C_R   0.954774 0.919020 0.256447 -0.139321
C134  C     C_R   0.359596 0.271603 0.201201 -0.251725
C135  C     C_R   0.815220 0.121130 0.063717 -0.253927
C136  C     C_R   0.183928 0.888686 0.936890 -0.250929
C137  C     C_R   0.185857 0.119529 0.936878 -0.256040
C138  C     C_R   0.815278 0.867905 0.077366 -0.261141
C139  C     C_R   0.349992 0.786627 0.164664 0.069885
C140  C     C_R   0.656318 0.216774 0.838107 0.072677
C141  C     C_R   0.650995 0.781101 0.858234 0.068950
C142  C     C_R   0.345354 0.214356 0.163032 0.068270
C143  C     C_R   0.785029 0.139615 0.974549 0.072508
C144  C     C_R   0.955488 0.081025 0.257435 -0.144720
C145  C     C_R   0.216454 0.856499 0.015721 0.081729
C146  C     C_R   0.216808 0.136454 0.026868 0.075255
C147  C     C_R   0.777517 0.862627 0.986258 0.077953
C148  C     C_R   0.381071 0.810016 0.135638 0.106555
C149  C     C_R   0.625403 0.189384 0.865473 0.099248
C150  C     C_R   0.628274 0.792900 0.907587 0.108536
C151  C     C_R   0.375459 0.188503 0.132848 0.107833
C152  C     C_R   0.812441 0.158544 0.935678 0.098127
C153  C     C_R   0.190380 0.830750 0.053915 0.107471
C154  C     C_R   0.190176 0.153865 0.067848 0.098142
C155  C     C_R   0.044348 0.918432 0.742189 -0.147297
C156  C     C_R   0.795402 0.863669 0.928861 0.097567
C157  C     C_R   0.300538 0.813546 0.137490 -0.022617
C158  C     C_R   0.704405 0.189425 0.857911 -0.019239
C159  C     C_R   0.693773 0.817262 0.871924 -0.022552
C160  C     C_R   0.297878 0.185792 0.144034 -0.020498
C161  C     C_R   0.728684 0.147048 0.927252 -0.018507
C162  C     C_R   0.273018 0.847347 0.057019 -0.031729
C163  C     C_R   0.273094 0.144169 0.073079 -0.019619
C164  C     C_R   0.723519 0.849367 0.952850 -0.020414
C165  C     C_R   0.645107 0.581592 0.574804 -0.134440
C166  C     C_R   0.317321 0.638370 0.581905 -0.174653
C167  C     C_R   0.354818 0.418718 0.425502 -0.136605
C168  C     C_R   0.354524 0.580307 0.427543 -0.135038
C169  C     C_R   0.645147 0.418813 0.574411 -0.133192
C170  C     C_R   0.126335 0.108808 0.575124 -0.124525
C171  C     C_R   0.873515 0.891282 0.424895 -0.124202
C172  C     C_R   0.873830 0.108781 0.425296 -0.125152
C173  C     C_R   0.125768 0.890488 0.573206 -0.124927
C174  C     C_R   0.730117 0.203023 0.813571 0.300380
C175  C     C_R   0.276010 0.803305 0.184367 0.288096
C176  C     C_R   0.273043 0.197737 0.190339 0.299147
H1    H     H_    0.502822 0.613198 0.724714 0.089842
H2    H     H_    0.336933 0.708309 0.217959 0.142588
H3    H     H_    0.082322 0.834399 0.044126 0.101464
H4    H     H_    0.065955 0.155805 0.021414 0.095528
H5    H     H_    0.118668 0.127609 0.115119 0.098600
H6    H     H_    0.907466 0.895790 0.939678 0.096208
H7    H     H_    0.847138 0.923187 0.862404 0.102025
H8    H     H_    0.710851 0.200499 0.679672 0.255673
H9    H     H_    0.656856 0.224839 0.685806 0.264601
H10   H     H_    0.713358 0.274283 0.721627 0.238242
H11   H     H_    0.294887 0.822238 0.315548 0.255532
H12   H     H_    0.298647 0.744404 0.294257 0.243650
H13   H     H_    0.332704 0.295097 0.212454 0.143505
H14   H     H_    0.350841 0.796454 0.315622 0.262663
H15   H     H_    0.294152 0.192647 0.325120 0.256148
H16   H     H_    0.347038 0.219227 0.317567 0.263825
H17   H     H_    0.290377 0.267344 0.285610 0.238808
H18   H     H_    0.673945 0.845935 0.674350 0.254953
H19   H     H_    0.685230 0.767075 0.695901 0.243987
H20   H     H_    0.630293 0.804654 0.691842 0.262075
H21   H     H_    0.309102 0.884911 0.907913 0.250724
H22   H     H_    0.245030 0.863244 0.878125 0.253130
H23   H     H_    0.272686 0.937717 0.926406 0.257972
H24   H     H_    0.656695 0.714772 0.777179 0.145101
H25   H     H_    0.675693 0.023345 0.948087 0.268303
H26   H     H_    0.744524 0.034849 0.992506 0.265851
H27   H     H_    0.717424 0.057277 0.056556 0.247316
H28   H     H_    0.684027 0.943418 0.051005 0.262731
H29   H     H_    0.734109 0.893903 0.133193 0.244703
H30   H     H_    0.748442 0.942639 0.069173 0.272040
H31   H     H_    0.325127 0.022598 0.042364 0.264860
H32   H     H_    0.256585 0.033048 0.001047 0.262749
H33   H     H_    0.282303 0.058708 0.936552 0.244045
H34   H     H_    0.199979 0.921288 0.915296 0.150756
H35   H     H_    0.795427 0.114549 0.097541 0.143719
H36   H     H_    0.804387 0.855510 0.122845 0.148185
H37   H     H_    0.205041 0.114530 0.901779 0.144320
H38   H     H_    0.524524 0.291180 0.784670 0.112156
H39   H     H_    0.484983 0.712484 0.235183 0.115108
H40   H     H_    0.474630 0.292202 0.210642 0.114222
H41   H     H_    0.498003 0.381974 0.280651 0.092507
H42   H     H_    0.538213 0.680116 0.833497 0.112087
H43   H     H_    0.060369 0.847305 0.881460 0.114761
H44   H     H_    0.939871 0.124699 0.104332 0.108800
H45   H     H_    0.923868 0.910181 0.078585 0.109506
H46   H     H_    0.062060 0.121030 0.899799 0.108568
H47   H     H_    0.679366 0.577574 0.642558 0.089145
H48   H     H_    0.320360 0.423223 0.358019 0.086446
H49   H     H_    0.319742 0.576749 0.360186 0.085094
H50   H     H_    0.679569 0.423445 0.641969 0.087698
H51   H     H_    0.153207 0.120808 0.644119 0.094469
H52   H     H_    0.500267 0.618810 0.286096 0.092706
H53   H     H_    0.846511 0.879320 0.355917 0.093321
H54   H     H_    0.847012 0.120663 0.356404 0.094275
H55   H     H_    0.153427 0.877878 0.641647 0.097339
H56   H     H_    0.586224 0.577614 0.360199 0.082379
H57   H     H_    0.414320 0.421696 0.640289 0.082646
H58   H     H_    0.416011 0.576921 0.642315 0.083586
H59   H     H_    0.585863 0.421729 0.359743 0.082139
H60   H     H_    0.057155 0.123081 0.358377 0.093982
H61   H     H_    0.942681 0.877026 0.641622 0.093238
H62   H     H_    0.943158 0.123344 0.642180 0.094034
H63   H     H_    0.502245 0.382392 0.719836 0.092500
H64   H     H_    0.055653 0.878306 0.355919 0.095325
H65   H     H_    0.358057 0.623478 0.289323 0.095756
H66   H     H_    0.645272 0.380854 0.718558 0.092802
H67   H     H_    0.647079 0.618474 0.727220 0.092623
H68   H     H_    0.354795 0.380346 0.281246 0.092458
H69   H     H_    0.839761 0.078757 0.232892 0.087021
H70   H     H_    0.160036 0.918482 0.765633 0.097190
H71   H     H_    0.160337 0.078143 0.767052 0.086296
H72   H     H_    0.839715 0.922541 0.233644 0.098600
H73   H     H_    0.172937 0.608661 0.379378 0.114419
H74   H     H_    0.018661 0.076695 0.766109 0.084654
H75   H     H_    0.809697 0.312962 0.638197 0.116062
H76   H     H_    0.809588 0.688163 0.637871 0.116140
H77   H     H_    0.190332 0.312286 0.362197 0.116316
H78   H     H_    0.757213 0.286812 0.361914 0.114254
H79   H     H_    0.200356 0.681261 0.632456 0.115827
H80   H     H_    0.243847 0.286464 0.638700 0.114936
H81   H     H_    0.756066 0.713458 0.361606 0.114710
H82   H     H_    0.248683 0.571537 0.377751 0.108829
H83   H     H_    0.733586 0.349301 0.636033 0.110017
H84   H     H_    0.733712 0.651586 0.636389 0.109882
H85   H     H_    0.980247 0.922990 0.232069 0.083406
H86   H     H_    0.266182 0.348907 0.363701 0.109715
H87   H     H_    0.799074 0.196271 0.359247 0.107481
H88   H     H_    0.156480 0.773526 0.630177 0.113862
H89   H     H_    0.201761 0.196087 0.641300 0.108175
H90   H     H_    0.797996 0.803975 0.358837 0.107523
H91   H     H_    0.357318 0.649035 0.637725 0.109699
H92   H     H_    0.669500 0.427902 0.378041 0.104149
H93   H     H_    0.669493 0.571350 0.378459 0.104006
H94   H     H_    0.331033 0.427928 0.622536 0.108286
H95   H     H_    0.930693 0.226941 0.631542 0.112267
H96   H     H_    0.981723 0.076951 0.234584 0.084236
H97   H     H_    0.108039 0.804224 0.359453 0.107359
H98   H     H_    0.069415 0.226675 0.369977 0.112372
H99   H     H_    0.930565 0.773453 0.630022 0.110791
H100  H     H_    0.888139 0.319040 0.633724 0.115577
H101  H     H_    0.151642 0.713488 0.362167 0.114962
H102  H     H_    0.112173 0.318519 0.367838 0.115293
H103  H     H_    0.887949 0.681548 0.632333 0.114924
H104  H     H_    0.282510 0.685906 0.639142 0.116086
H105  H     H_    0.746817 0.391363 0.380395 0.113245
H106  H     H_    0.746360 0.608350 0.380008 0.113477
H107  H     H_    0.018489 0.921795 0.765951 0.087823
H108  H     H_    0.254051 0.391154 0.620814 0.114576
H109  H     H_    0.803008 0.198396 0.819184 0.154164
H110  H     H_    0.202270 0.795621 0.174369 0.159829
H111  H     H_    0.200963 0.191329 0.187027 0.154229
H112  H     H_    0.771845 0.848303 0.793803 0.154836
H113  H     H_    0.381725 0.869190 0.043947 0.155195
H114  H     H_    0.619446 0.112217 0.930829 0.156372
H115  H     H_    0.631738 0.849304 0.007478 0.160386
H116  H     H_    0.380750 0.113398 0.062894 0.160629
H117  H     H_    0.502640 0.821049 0.203074 0.110993
H118  H     H_    0.669664 0.298853 0.793535 0.144008
H119  H     H_    0.472695 0.780083 0.108590 0.100893
H120  H     H_    0.507162 0.208819 0.838873 0.103338
H121  H     H_    0.563170 0.191156 0.936436 0.096390
H122  H     H_    0.519340 0.777138 0.892182 0.106802
H123  H     H_    0.564616 0.734480 0.978680 0.100548
H124  H     H_    0.493968 0.182986 0.184203 0.109518
H125  H     H_    0.458594 0.218768 0.085652 0.101454
H126  H     H_    0.937409 0.162037 0.985577 0.096056
H127  H     H_    0.885147 0.134839 0.889974 0.096006
H128  H     H_    0.083516 0.767636 0.001517 0.105061
N1    N     N_R   0.532910 0.558440 0.665240 -0.041033
N2    N     N_R   0.402970 0.441090 0.454460 -0.034877
N3    N     N_R   0.402970 0.558910 0.454460 -0.035555
N4    N     N_R   0.597030 0.441090 0.545540 -0.035284
N5    N     N_R   0.097030 0.058910 0.545540 -0.040177
N6    N     N_R   0.902970 0.941090 0.454460 -0.040144
N7    N     N_R   0.902970 0.058910 0.454460 -0.040330
N8    N     N_R   0.097030 0.941090 0.545540 -0.040056
N9    N     N_R   0.566200 0.559270 0.454460 -0.035751
N10   N     N_R   0.433800 0.440730 0.545540 -0.035996
N11   N     N_R   0.433800 0.559270 0.545540 -0.035523
N12   N     N_R   0.467090 0.441560 0.334760 -0.041175
N13   N     N_R   0.566200 0.440730 0.454460 -0.035792
N14   N     N_R   0.066200 0.059270 0.454460 -0.040579
N15   N     N_R   0.933800 0.940730 0.545540 -0.040477
N16   N     N_R   0.933800 0.059270 0.545540 -0.040551
N17   N     N_R   0.066200 0.940730 0.454460 -0.040823
N18   N     N_R   0.421050 0.559750 0.334770 -0.041390
N19   N     N_R   0.578950 0.440250 0.665230 -0.041048
N20   N     N_R   0.578950 0.559750 0.665230 -0.040344
N21   N     N_R   0.421050 0.440250 0.334770 -0.040981
N22   N     N_R   0.921050 0.059750 0.334770 -0.036615
N23   N     N_R   0.467090 0.558440 0.334760 -0.041472
N24   N     N_R   0.078950 0.940250 0.665230 -0.035847
N25   N     N_R   0.078950 0.059750 0.665230 -0.036522
N26   N     N_R   0.921050 0.940250 0.334770 -0.036093
N27   N     N_3   0.465935 0.811624 0.143976 -0.224574
N28   N     N_3   0.543855 0.186879 0.867632 -0.217037
N29   N     N_3   0.560195 0.771324 0.939863 -0.225890
N30   N     N_3   0.455608 0.189028 0.127056 -0.224729
N31   N     N_3   0.896054 0.166046 0.940408 -0.220313
N32   N     N_3   0.107465 0.802477 0.043495 -0.226180
N33   N     N_3   0.107395 0.159690 0.065947 -0.220767
N34   N     N_R   0.532910 0.441560 0.665240 -0.041110
N35   N     N_3   0.866498 0.886460 0.903582 -0.221082
N36   N     N_R   0.032910 0.058440 0.665240 -0.036174
N37   N     N_R   0.967090 0.941560 0.334760 -0.036106
N38   N     N_R   0.967090 0.058440 0.334760 -0.036134
N39   N     N_R   0.032910 0.941560 0.665240 -0.035279
N40   N     N_R   0.597030 0.558910 0.545540 -0.034883
Ni1   Ni    Ni4+2 0.483090 0.500000 0.604440 0.209860
Ni2   Ni    Ni4+2 0.516910 0.500000 0.395560 0.209160
Ni3   Ni    Ni4+2 0.983090 0.000000 0.604440 0.211169
Ni4   Ni    Ni4+2 0.016910 0.000000 0.395560 0.210986
Ni5   Ni    Ni4+2 0.586780 0.500000 0.604440 0.214415
Ni6   Ni    Ni4+2 0.413220 0.500000 0.395560 0.212847
Ni7   Ni    Ni4+2 0.086780 0.000000 0.604440 0.214914
Ni8   Ni    Ni4+2 0.913220 0.000000 0.395560 0.214607

loop_
_geom_bond_atom_site_label_1
_geom_bond_atom_site_label_2
_ccdc_geom_bond_type
C36   C89   A    
C84   H25   S    
N17   Ni4   S    
C31   C42   A    
H127  N31   S    
C10   C154  A    
C120  N35   S    
C105  C131  A    
C57   H98   S    
C106  C132  A    
C172  N7    A    
C6    C85   S    
C24   C90   A    
C57   C76   A    
C42   C109  S    
C147  C164  A    
C113  N27   S    
C67   H89   S    
C54   C63   A    
N8    N17   A    
C96   C99   S    
C167  N2    A    
C105  C123  A    
C118  C153  A    
C53   H75   S    
C131  C140  A    
C173  H55   S    
N24   Ni7   S    
C158  C174  A    
N14   Ni4   S    
C14   H114  S    
C78   H10   S    
C112  C129  A    
C4    C12   A    
C60   C103  A    
C117  C126  A    
N25   N36   A    
N6    Ni8   S    
C88   C97   A    
N18   Ni6   S    
C21   C48   A    
C119  C128  A    
C59   H80   S    
C61   H82   S    
C126  H44   S    
N2    N10   A    
C160  C163  A    
C112  C138  A    
C137  C146  A    
N21   Ni6   S    
H3    N32   S    
C98   C102  S    
C7    C163  A    
C17   N9    A    
C5    C161  A    
C142  C151  A    
C17   C43   A    
C18   C44   A    
C146  C154  A    
C2    H92   S    
N7    N16   A    
C58   C101  A    
C47   C71   S    
C82   H19   S    
C97   C103  S    
C22   C49   A    
C136  H34   S    
C21   H60   S    
C2    C71   A    
C27   H66   S    
C165  H47   S    
C68   C77   A    
C23   H62   S    
N40   Ni5   S    
C59   C102  A    
N1    Ni1   S    
C88   H106  S    
C86   H31   S    
C37   C104  S    
C13   C72   A    
C171  N6    A    
N9    N40   A    
C52   C61   A    
H128  N32   S    
C155  N39   A    
C14   C149  A    
C138  H36   S    
C30   N22   A    
C16   C151  A    
C78   H8    S    
C155  H107  S    
C114  N28   S    
C167  H48   S    
C20   C47   A    
C3    C11   A    
C81   H17   S    
C55   H77   S    
C25   N17   A    
C139  C157  A    
C123  H38   S    
C106  C124  A    
C169  H50   S    
C108  C126  A    
C157  C162  A    
C143  C161  A    
C110  C128  A    
C117  N31   S    
C56   H78   S    
C48   C76   S    
C69   C77   A    
C86   H33   S    
C141  C150  A    
C87   H105  S    
C85   H29   S    
C40   C112  S    
C133  H85   S    
C4    C83   S    
C39   C122  A    
C121  H39   S    
C113  C148  A    
C91   H100  S    
C144  H96   S    
C107  C134  A    
C50   C74   S    
H126  N31   S    
C8    C174  A    
C7    C86   S    
N6    N15   A    
C132  H24   S    
C55   C98   A    
C33   H72   S    
C81   H15   S    
C85   H28   S    
C59   C67   A    
C141  C159  A    
C79   H104  S    
C64   C73   A    
C30   C41   A    
C165  N40   A    
C22   H61   S    
C135  C143  A    
H117  N27   S    
C9    C153  A    
C55   C64   A    
C3    C159  A    
C46   C75   A    
C47   C169  A    
C17   H56   S    
C109  C127  A    
C1    C34   A    
C115  N29   S    
C170  N5    A    
C139  C148  A    
C33   C40   A    
N9    Ni2   S    
C120  C129  A    
C107  C125  A    
C108  C135  A    
H5    N33   S    
C5    C84   S    
C1    N1    A    
C68   C94   A    
C65   C74   A    
H120  N28   S    
C13   H93   S    
C122  H74   S    
N5    N14   A    
C80   H12   S    
C2    C87   A    
C54   C97   A    
C114  C123  A    
C116  C125  A    
N3    N11   A    
C118  C127  A    
N25   Ni7   S    
N22   N38   A    
C19   H58   S    
C132  C141  A    
C18   N10   A    
C80   C175  S    
C118  N32   S    
C19   C45   A    
H123  N29   S    
N20   Ni5   S    
C38   C105  S    
N38   Ni4   S    
H121  N28   S    
C68   H99   S    
C60   C69   A    
C15   H115  S    
C49   C77   S    
C62   C71   A    
C9    C175  A    
C45   C168  A    
C83   H21   S    
N3    Ni6   S    
C113  C121  A    
N19   N34   A    
N15   Ni3   S    
C32   N25   A    
C54   H76   S    
C159  C164  A    
C50   C172  A    
N16   Ni3   S    
C91   C99   A    
C62   H83   S    
C116  C151  A    
C95   C101  S    
C61   C70   A    
N8    Ni7   S    
C135  H35   S    
C171  H53   S    
C35   C74   A    
N5    Ni7   S    
C168  N3    A    
C26   H65   S    
C127  H43   S    
N34   Ni1   S    
C134  H13   S    
C31   N24   A    
C30   H69   S    
N39   Ni3   S    
N4    N13   A    
C64   H86   S    
C24   C73   A    
C46   C92   A    
C27   C38   A    
C100  N23   A    
C120  C156  A    
C52   C95   A    
C32   C39   A    
C100  H52   S    
C130  H2    S    
C158  C161  A    
C166  H91   S    
C31   H70   S    
H125  N30   S    
N36   Ni3   S    
H119  N27   S    
C82   H20   S    
C28   C34   A    
C104  C130  A    
C170  H51   S    
C53   C96   A    
C65   H87   S    
C66   H88   S    
C130  C139  A    
C43   C165  A    
C46   H97   S    
C32   H71   S    
N26   Ni8   S    
C41   C144  A    
C86   H32   S    
C69   H90   S    
C23   C50   A    
C131  H118  S    
C44   C167  A    
C34   C106  S    
C60   H81   S    
C81   C176  S    
C79   C95   A    
C134  C142  A    
C33   N26   A    
C20   H59   S    
C111  N34   A    
C58   H79   S    
C78   H9    S    
C83   H22   S    
C144  N38   A    
C147  C156  A    
C93   H102  S    
C92   C101  A    
C48   C170  A    
C8    H109  S    
C84   H27   S    
C143  C152  A    
C28   N20   A    
C6    C164  A    
C94   C103  A    
C119  C154  A    
C4    C162  A    
N24   N39   A    
C146  C163  A    
C115  C124  A    
C8    C152  A    
C45   C70   S    
C110  C137  A    
C116  N30   S    
N7    Ni8   S    
C93   C102  A    
C26   C37   A    
N12   Ni2   S    
C42   C155  A    
H4    N33   S    
N23   Ni2   S    
C66   C75   A    
C29   H68   S    
C29   N21   A    
N26   N37   A    
C44   C73   S    
N10   Ni1   S    
C82   H18   S    
C26   N18   A    
C63   C72   A    
C24   H94   S    
C114  C149  A    
C19   N11   A    
C15   C150  A    
C43   C72   S    
C41   C108  S    
C18   H57   S    
C29   C36   A    
C21   N14   A    
C9    H110  S    
C23   N16   A    
C51   C75   S    
C11   H112  S    
C70   C166  A    
C125  H40   S    
C119  N33   S    
C145  C162  A    
C56   C65   A    
C13   C88   A    
N11   Ni1   S    
C92   H101  S    
C51   C173  A    
C94   H103  S    
C1    H1    S    
C58   C66   A    
C39   C110  S    
C28   H67   S    
C52   H73   S    
C136  C145  A    
C140  C158  A    
C6    C15   A    
C133  N37   A    
C57   C93   A    
C16   H116  S    
C36   C107  S    
C160  C176  A    
N37   Ni4   S    
C85   H30   S    
C10   C176  A    
C124  H42   S    
C27   N19   A    
C90   H108  S    
C129  H45   S    
C128  H46   S    
C168  H49   S    
C49   C171  A    
C172  H54   S    
N2    Ni6   S    
C104  C121  A    
C25   H64   S    
C12   H113  S    
C89   H41   S    
C111  H63   S    
C173  N8    A    
N22   Ni8   S    
C25   C51   A    
C81   H16   S    
C53   C62   A    
C169  N4    A    
N18   N23   A    
C138  C147  A    
C87   C96   A    
C3    C82   S    
C5    C14   A    
N4    Ni5   S    
C11   C156  A    
C157  C175  A    
H6    N35   S    
C83   H23   S    
N13   Ni2   S    
C78   C174  S    
C84   H26   S    
C20   N13   A    
C7    C16   A    
C137  H37   S    
C22   N15   A    
C80   H14   S    
C10   H111  S    
C142  C160  A    
C40   C133  A    
C56   C99   A    
C12   C148  A    
H124  N30   S    
C145  C153  A    
C63   H84   S    
C35   H95   S    
N12   N21   A    
C140  C149  A    
C115  C150  A    
C80   H11   S    
C117  C152  A    
C37   C100  A    
C79   C166  A    
C89   N12   A    
C122  N36   A    
H7    N35   S    
H122  N29   S    
N1    N20   A    
N19   Ni5   S    
C67   C76   A    
C38   C111  A    
C90   C98   A    
C109  C136  A    
C35   C91   A    
