data_mof_unit_30147.cif
_audit_creation_date              2012-12-11T15:21:31-0500
_audit_creation_method            fapswitch 2.2
_symmetry_space_group_name_H-M    P1
_symmetry_Int_Tables_number       1
_space_group_crystal_system       triclinic
_cell_length_a                    8.394998
_cell_length_b                    12.700848
_cell_length_c                    18.936778
_cell_angle_alpha                 94.587309
_cell_angle_beta                  93.886863
_cell_angle_gamma                 97.880419
_cell_volume                      1987.28148976

loop_
_atom_site_label
_atom_site_type_symbol
_atom_type_description
_atom_site_fract_x
_atom_site_fract_y
_atom_site_fract_z
_atom_type_partial_charge
Ba1   Ba    Ba6+2 0.160910 0.552960 0.466220 1.622492
Ba2   Ba    Ba6+2 0.649260 0.447030 0.533730 1.621671
C1    C     C_3   0.328355 0.835053 0.201581 0.298983
C2    C     C_3   0.389700 0.799293 0.272468 0.336684
C3    C     C_3   0.549151 0.763525 0.618184 0.268278
C4    C     C_3   0.542150 0.882260 0.619222 -0.377681
C5    C     C_3   0.819534 0.157637 0.696897 0.317402
C6    C     C_3   0.823339 0.052996 0.729888 -0.391667
C7    C     C_3   0.365842 0.204154 0.725584 0.307039
C8    C     C_3   0.417982 0.182366 0.800937 -0.372525
C9    C     C_R   0.067454 0.183792 0.528916 -0.277961
C10   C     C_R   0.743779 0.812696 0.466896 -0.286144
C11   C     C_R   0.705139 0.995138 0.449687 -0.105579
C12   C     C_3   0.913983 0.837390 0.306666 0.321820
C13   C     C_R   0.647513 0.885697 0.442838 0.000794
C14   C     C_R   0.896392 0.846659 0.501366 0.093833
C15   C     C_R   0.956696 0.960268 0.508373 -0.061366
C16   C     C_R   0.859163 0.035656 0.482363 -0.065953
C17   C     C_R   0.918056 0.149072 0.491598 0.067963
C18   C     C_R   0.166329 0.111455 0.550929 -0.007919
C19   C     C_R   0.111589 0.001573 0.540207 -0.097553
C20   C     C_R   0.620224 0.534928 0.299017 -0.264387
C21   C     C_R   0.465165 0.483382 0.276867 0.071178
C22   C     C_R   0.410786 0.474504 0.204904 -0.121906
C23   C     C_3   0.888356 0.940013 0.274622 -0.402390
C24   C     C_R   0.512037 0.515861 0.154303 -0.011846
C25   C     C_R   0.669727 0.565439 0.177509 -0.141252
C26   C     C_R   0.723407 0.574534 0.249611 0.015023
C27   C     C_R   0.501394 0.588802 0.034690 -0.082839
C28   C     C_R   0.443968 0.582149 0.963438 -0.073647
C29   C     C_R   0.341071 0.491262 0.932008 0.062606
C30   C     C_R   0.293711 0.408698 0.974868 -0.082397
C31   C     C_R   0.348579 0.416579 0.046687 -0.074109
C32   C     C_R   0.453471 0.506817 0.077676 0.061478
C33   C     C_R   0.138807 0.424715 0.828031 -0.129824
C34   C     C_3   0.683226 0.245880 0.312768 0.473525
C35   C     C_R   0.099524 0.406228 0.754431 0.017668
C36   C     C_R   0.355034 0.504905 0.733032 0.055829
C37   C     C_R   0.395278 0.523578 0.805922 -0.122921
C38   C     C_R   0.291352 0.479105 0.854555 -0.012144
C39   C     C_R   0.216498 0.433813 0.707848 -0.272922
C40   C     C_3   0.562272 0.143289 0.300386 -0.290189
C41   C     C_3   0.069700 0.819878 0.699243 0.827784
C42   C     C_3   0.162762 0.931611 0.696468 -0.249441
C43   C     C_3   0.238657 0.235554 0.385867 0.271721
C44   C     C_3   0.203750 0.113908 0.372212 -0.399993
H1    H     H_    0.308474 0.726321 0.282320 0.050701
H2    H     H_    0.510739 0.125567 0.350577 0.091383
H3    H     H_    0.463605 0.152823 0.260600 0.121102
H4    H     H_    0.622347 0.075202 0.280921 0.126820
H5    H     H_    0.088308 0.982164 0.668520 0.046282
H6    H     H_    0.279557 0.930501 0.674511 0.069625
H7    H     H_    0.187518 0.973012 0.750801 0.106395
H8    H     H_    0.125116 0.267522 0.394795 0.059393
H9    H     H_    0.323763 0.256369 0.434150 0.062743
H10   H     H_    0.280278 0.763621 0.164190 -0.041739
H11   H     H_    0.210561 0.087827 0.315367 0.152372
H12   H     H_    0.081660 0.084289 0.386298 0.072410
H13   H     H_    0.290202 0.076090 0.405203 0.131836
H14   H     H_    0.514338 0.780038 0.269375 -0.066821
H15   H     H_    0.671713 0.746723 0.609564 0.052273
H16   H     H_    0.469842 0.727154 0.571053 0.093448
H17   H     H_    0.553849 0.919420 0.674307 0.138310
H18   H     H_    0.638308 0.921441 0.589275 0.078335
H19   H     H_    0.426578 0.894533 0.591709 0.133457
H20   H     H_    0.223621 0.877933 0.210416 0.101322
H21   H     H_    0.784817 0.923570 0.234294 0.133376
H22   H     H_    0.704751 0.154398 0.663905 0.124016
H23   H     H_    0.921085 0.168279 0.662340 -0.032663
H24   H     H_    0.826759 0.987972 0.688214 0.094074
H25   H     H_    0.932561 0.058368 0.767449 0.136368
H26   H     H_    0.715249 0.034489 0.760202 0.122552
H27   H     H_    0.232568 0.201688 0.720158 -0.030512
H28   H     H_    0.427010 0.285195 0.718140 0.079419
H29   H     H_    0.374281 0.240163 0.839550 0.078216
H30   H     H_    0.551489 0.191547 0.808699 0.157254
H31   H     H_    0.006802 0.856036 0.352346 0.075437
H32   H     H_    0.368666 0.100462 0.811953 0.110675
H33   H     H_    0.624650 0.047699 0.432158 0.109674
H34   H     H_    0.191536 0.949455 0.558514 0.112341
H35   H     H_    0.112958 0.268200 0.536254 0.056268
H36   H     H_    0.694147 0.729035 0.463259 0.063447
H37   H     H_    0.505951 0.573778 0.824267 0.054562
H38   H     H_    0.480822 0.648732 0.933075 0.054772
H39   H     H_    0.583104 0.658771 0.056098 0.040740
H40   H     H_    0.289406 0.435580 0.188785 0.072344
H41   H     H_    0.217521 0.336488 0.952394 0.064357
H42   H     H_    0.796570 0.803645 0.325375 -0.038636
H43   H     H_    0.312088 0.350453 0.077521 0.061403
H44   H     H_    0.048989 0.400305 0.863966 0.084028
H45   H     H_    0.752087 0.595271 0.139831 0.074226
H46   H     H_    0.186716 0.416673 0.651139 0.059293
H47   H     H_    0.662927 0.540787 0.354559 0.070782
H48   H     H_    0.860352 0.999131 0.316343 0.088876
H49   H     H_    0.997236 0.973107 0.249344 0.122355
H50   H     H_    0.628324 0.311260 0.340080 0.026767
O1    O     O_2   0.160820 0.763040 0.533820 -0.486403
O2    O     O_3   0.304255 0.278209 0.326514 -0.651521
O3    O     O_3   0.967287 0.767334 0.255084 -0.615426
O4    O     O_2   0.649470 0.236890 0.466160 -0.489757
O5    O     O_3   0.919320 0.371390 0.464540 -0.477447
O6    O     O_3   0.424350 0.301430 0.591880 -0.479179
O7    O     O_3   0.821914 0.225582 0.352179 -0.652593
O8    O     O_3   0.382770 0.553920 0.582990 -0.477950
O9    O     O_3   0.848220 0.355290 0.626830 -0.482220
O10   O     O_2   0.776167 0.434620 0.753865 -0.482387
O11   O     O_3   0.829646 0.239315 0.751797 -0.607401
O12   O     O_3   0.890970 0.628600 0.535400 -0.478582
O13   O     O_3   0.427530 0.446070 0.416950 -0.488914
O14   O     O_2   0.637430 0.550200 0.669460 -0.464057
O15   O     O_3   0.502461 0.724982 0.682794 -0.659463
O16   O     O_2   0.498103 0.112691 0.547519 -0.489041
O17   O     O_3   0.412389 0.127034 0.676727 -0.619658
O18   O     O_3   0.385950 0.698560 0.408070 -0.487404
O19   O     O_2   0.324145 0.887024 0.457826 -0.489050
O20   O     O_3   0.946756 0.796043 0.642672 -0.699838
O21   O     O_3   0.384777 0.881101 0.326231 -0.618473
O22   O     O_2   0.172860 0.449730 0.330520 -0.470540
O23   O     O_3   0.962080 0.644700 0.373110 -0.480021
O24   O     O_2   0.060337 0.579522 0.247965 -0.505316
P1    P     P_3+3 0.986780 0.745970 0.554690 0.962413
P2    P     P_3+3 0.341450 0.417130 0.341310 0.970881
P3    P     P_3+3 0.928999 0.637823 0.280824 0.929423
P4    P     P_3+3 0.823520 0.254020 0.445250 0.959433
P5    P     P_3+3 0.889014 0.361977 0.719557 0.939848
P6    P     P_3+3 0.437585 0.836954 0.408745 0.930507
P7    P     P_3+3 0.466161 0.585537 0.670589 0.933125
P8    P     P_3+3 0.372961 0.162880 0.590403 0.918050
N1    N     N_2   0.174764 0.740448 0.696996 -0.433289
H51   H     H_    0.266342 0.755229 0.737257 0.185166
C45   C     C_3   0.089862 0.633413 0.693193 -0.136260
H52   H     H_    0.134088 0.586709 0.649237 0.078173
H53   H     H_    0.959755 0.624390 0.677439 0.120565
H54   H     H_    0.101061 0.604675 0.746503 0.034590
O25   O     O_3   0.008878 0.825526 0.768092 -0.680146
C46   C     C_3   0.853242 0.771685 0.775076 0.276187
H55   H     H_    0.770785 0.832220 0.782520 0.069695
H56   H     H_    0.801902 0.715824 0.729403 0.099450
C47   C     C_3   0.860024 0.710566 0.841001 -0.351343
H57   H     H_    0.864268 0.766212 0.889875 0.107475
H58   H     H_    0.752835 0.649123 0.839784 0.079463
H59   H     H_    0.968342 0.669137 0.843255 0.132300
O26   O     O_3   0.447935 0.907040 0.174034 -0.646899
C48   C     C_3   0.530434 0.852119 0.123733 0.257569
H60   H     H_    0.444902 0.805404 0.081385 0.042538
H61   H     H_    0.603877 0.798073 0.150480 0.032442
C49   C     C_3   0.641831 0.931556 0.087121 -0.325424
H62   H     H_    0.723143 0.986164 0.126743 0.119733
H63   H     H_    0.715684 0.887407 0.051701 0.064358
H64   H     H_    0.569686 0.979546 0.054648 0.119132
N2    N     N_2   0.725852 0.277661 0.243268 -0.473632
H65   H     H_    0.714689 0.216782 0.202242 0.183752
C50   C     C_3   0.872586 0.350994 0.242442 -0.139116
H66   H     H_    0.867990 0.393150 0.193429 0.085780
H67   H     H_    0.978205 0.306822 0.243086 0.129346
H68   H     H_    0.885599 0.409866 0.289559 0.134686

loop_
_geom_bond_atom_site_label_1
_geom_bond_atom_site_label_2
_ccdc_geom_bond_type
C11   H33   S    
Ba2   O13   S    
C44   H13   S    
C34   C40   S    
C49   H62   S    
C23   H21   S    
O12   P1    S    
C41   C42   S    
C45   H54   S    
Ba1   O12   S    
C36   P7    S    
C8    H32   S    
C26   P3    S    
C12   O3    S    
O17   P8    S    
C43   C44   S    
C9    H35   S    
O10   P5    D    
C9    C17   A    
C24   C25   A    
O19   P6    D    
C11   C16   A    
C34   O7    S    
C49   H63   S    
C22   C24   A    
C16   C17   A    
O6    P8    S    
C43   O2    S    
C48   C49   S    
O22   P2    D    
C36   C37   A    
O18   P6    S    
C47   H59   S    
O13   P2    S    
Ba2   O6    S    
O26   C48   S    
C29   C38   S    
Ba1   Ba2   S    
Ba1   O23   S    
C12   H31   S    
C4    H18   S    
Ba1   P2    S    
O1    P1    D    
Ba1   O13   S    
C5    H22   S    
C8    H30   S    
C42   H7    S    
C24   C32   S    
C4    H19   S    
C10   C14   A    
C14   C15   A    
C13   P6    S    
C8    H29   S    
C21   C22   A    
C25   H45   S    
C50   H67   S    
C7    C8    S    
C27   H39   S    
O24   P3    D    
O14   P7    D    
C41   N1    S    
C42   H6    S    
Ba2   O4    S    
C23   H48   S    
C20   C26   A    
C44   H12   S    
C28   H38   S    
C7    H27   S    
C46   C47   S    
O7    P4    S    
C31   C32   A    
C21   P2    S    
C35   P5    S    
C9    C18   A    
C17   P4    S    
C6    H26   S    
O5    P4    S    
O20   P1    S    
C10   H36   S    
O25   C46   S    
C49   H64   S    
C1    O26   S    
O11   P5    S    
C36   C39   A    
C46   H56   S    
Ba1   O1    S    
C37   C38   A    
C46   H55   S    
C3    O15   S    
Ba2   O5    S    
C30   H41   S    
C27   C32   A    
C15   C19   A    
O4    P4    D    
C4    H17   S    
C14   P1    S    
C27   C28   A    
C31   H43   S    
C41   O20   S    
C1    H10   S    
C34   H50   S    
C29   C30   A    
C10   C13   A    
Ba2   O8    S    
C28   C29   A    
N2    H65   S    
C2    H14   S    
C15   C16   A    
C3    H15   S    
C40   H2    S    
C50   H68   S    
C41   O25   S    
Ba1   O8    S    
C40   H4    S    
C42   H5    S    
C48   H61   S    
C43   H8    S    
C23   H49   S    
Ba2   P4    S    
C11   C13   A    
C44   H11   S    
O15   P7    S    
C20   H47   S    
C5    O11   S    
C2    O21   S    
C1    H20   S    
C7    H28   S    
C45   H52   S    
Ba1   O5    S    
O3    P3    S    
N1    H51   S    
O21   P6    S    
O2    P2    S    
Ba2   O14   S    
C6    H25   S    
C33   C35   A    
C48   H60   S    
C45   H53   S    
C5    H23   S    
C47   H57   S    
C34   N2    S    
C18   P8    S    
O23   P3    S    
Ba2   O9    S    
C6    H24   S    
O9    P5    S    
C7    O17   S    
C30   C31   A    
C33   C38   A    
C12   H42   S    
C47   H58   S    
C3    C4    S    
O8    P7    S    
C19   H34   S    
Ba2   O12   S    
C3    H16   S    
Ba1   O22   S    
N2    C50   S    
C12   C23   S    
C35   C39   A    
Ba1   P1    S    
O16   P8    D    
C5    C6    S    
C40   H3    S    
C37   H37   S    
C33   H44   S    
C39   H46   S    
C18   C19   A    
C43   H9    S    
Ba1   O18   S    
C25   C26   A    
C20   C21   A    
C50   H66   S    
C22   H40   S    
C1    C2    S    
N1    C45   S    
C2    H1    S    
