data_mof_unit_24055.cif
_audit_creation_date              2012-12-11T16:21:25-0500
_audit_creation_method            fapswitch 2.2
_symmetry_space_group_name_H-M    P1
_symmetry_Int_Tables_number       1
_space_group_crystal_system       triclinic
_cell_length_a                    7.166398
_cell_length_b                    37.21938
_cell_length_c                    41.200091
_cell_angle_alpha                 89.993257
_cell_angle_beta                  90.034998
_cell_angle_gamma                 89.972985
_cell_volume                      10989.2512084

loop_
_atom_site_label
_atom_site_type_symbol
_atom_type_description
_atom_site_fract_x
_atom_site_fract_y
_atom_site_fract_z
_atom_type_partial_charge
O1    O     O_R   0.564240 0.782760 0.216890 -0.536396
O2    O     O_R   0.435760 0.217240 0.783110 -0.536761
O3    O     O_R   0.435760 0.217240 0.716890 -0.537567
O4    O     O_R   0.564240 0.782760 0.283110 -0.537724
O5    O     O_R   0.064240 0.717240 0.283110 -0.536758
O6    O     O_R   0.935760 0.282760 0.716890 -0.536971
O7    O     O_R   0.935760 0.282760 0.783110 -0.537315
O8    O     O_R   0.064240 0.717240 0.216890 -0.537759
O9    O     O_R   0.234510 0.787070 0.282870 -0.540670
O10   O     O_R   0.765490 0.212930 0.717130 -0.541094
O11   O     O_R   0.765490 0.212930 0.782870 -0.541190
O12   O     O_R   0.234510 0.787070 0.217130 -0.541187
O13   O     O_R   0.734510 0.712930 0.217130 -0.540323
O14   O     O_R   0.265490 0.287070 0.782870 -0.540474
O15   O     O_R   0.265490 0.287070 0.717130 -0.541250
O16   O     O_R   0.734510 0.712930 0.282870 -0.541565
C1    C     C_R   0.403266 0.795717 0.293704 0.697110
C2    C     C_R   0.596785 0.204182 0.706380 0.696631
C3    C     C_R   0.596785 0.204099 0.793545 0.697719
C4    C     C_R   0.403095 0.795781 0.206369 0.697407
C5    C     C_R   0.903245 0.704287 0.206294 0.698622
C6    C     C_R   0.096803 0.295818 0.793620 0.699288
C7    C     C_R   0.096689 0.295716 0.706300 0.697387
C8    C     C_R   0.903260 0.704183 0.293617 0.697367
O17   O     O_3   0.397750 0.727090 0.250000 -0.373596
O18   O     O_3   0.602250 0.272910 0.750000 -0.373367
O19   O     O_3   0.897750 0.772910 0.250000 -0.374147
O20   O     O_3   0.102250 0.227090 0.750000 -0.374568
V1    V     V_3+5 0.122890 0.754250 0.250000 1.407180
V2    V     V_3+5 0.877110 0.245750 0.750000 1.406611
V3    V     V_3+5 0.622890 0.745750 0.250000 1.407537
V4    V     V_3+5 0.377110 0.254250 0.750000 1.407540
C9    C     C_R   0.821677 0.600531 0.421132 0.549106
C10   C     C_R   0.173324 0.395524 0.576015 0.545469
C11   C     C_R   0.178682 0.399487 0.921165 0.549562
C12   C     C_R   0.826234 0.604418 0.076006 0.545297
C13   C     C_R   0.579297 0.892555 0.077631 0.550953
C14   C     C_R   0.419660 0.103015 0.919469 0.549798
C15   C     C_R   0.678385 0.100517 0.578839 0.549174
C16   C     C_R   0.326608 0.895539 0.424011 0.545373
O21   O     O_2   0.709902 0.629573 0.423110 -0.546011
O22   O     O_2   0.297665 0.368389 0.576209 -0.551317
O23   O     O_2   0.290690 0.370477 0.923147 -0.545422
O24   O     O_2   0.701693 0.631519 0.076180 -0.551266
O25   O     O_2   0.688646 0.863208 0.079669 -0.551198
O26   O     O_2   0.327268 0.134535 0.920749 -0.545041
O27   O     O_2   0.790057 0.129551 0.576838 -0.545983
O28   O     O_2   0.202406 0.868404 0.423847 -0.551376
N1    N     N_R   0.942762 0.598327 0.395655 -0.539913
N2    N     N_R   0.050306 0.397871 0.601265 -0.538058
N3    N     N_R   0.057522 0.401671 0.895669 -0.539942
N4    N     N_R   0.949392 0.602115 0.101267 -0.538040
N5    N     N_R   0.444853 0.897299 0.100789 -0.538817
N6    N     N_R   0.548515 0.098201 0.895471 -0.539576
N7    N     N_R   0.557459 0.098319 0.604339 -0.539854
N8    N     N_R   0.449476 0.897883 0.398738 -0.538019
C17   C     C_R   0.071428 0.571331 0.393626 0.535562
C18   C     C_R   0.912396 0.423174 0.601535 0.546911
C19   C     C_R   0.928700 0.428644 0.893629 0.535481
C20   C     C_R   0.087448 0.576839 0.101560 0.547000
C21   C     C_R   0.319937 0.924912 0.098752 0.547846
C22   C     C_R   0.660730 0.068524 0.894798 0.539495
C23   C     C_R   0.428908 0.071325 0.606390 0.535467
C24   C     C_R   0.587259 0.923190 0.398446 0.547021
C25   C     C_R   0.768648 0.629248 0.351864 -0.107391
C26   C     C_R   0.227568 0.369320 0.646251 -0.096828
C27   C     C_R   0.231588 0.370750 0.851899 -0.107258
C28   C     C_R   0.772224 0.630667 0.146234 -0.096789
C29   C     C_R   0.267240 0.853520 0.133988 -0.094016
C30   C     C_R   0.730932 0.142844 0.863824 -0.084441
C31   C     C_R   0.731680 0.129278 0.648085 -0.107609
C32   C     C_R   0.272099 0.869288 0.353798 -0.096763
C33   C     C_R   0.758368 0.655044 0.327201 -0.198425
C34   C     C_R   0.239420 0.344358 0.671646 -0.201620
C35   C     C_R   0.241815 0.344957 0.827234 -0.197282
C36   C     C_R   0.760426 0.655631 0.171626 -0.200608
C37   C     C_R   0.256342 0.829164 0.159810 -0.199269
C38   C     C_R   0.743214 0.168301 0.838846 -0.202205
C39   C     C_R   0.741915 0.155074 0.672747 -0.197863
C40   C     C_R   0.260289 0.844325 0.328406 -0.200776
C41   C     C_R   0.077888 0.672430 0.338191 -0.200785
C42   C     C_R   0.920716 0.326036 0.661240 -0.196729
C43   C     C_R   0.922362 0.327559 0.838187 -0.200969
C44   C     C_R   0.078971 0.674004 0.161219 -0.197495
C45   C     C_R   0.578388 0.841695 0.173560 -0.199814
C46   C     C_R   0.417712 0.158375 0.825803 -0.197668
C47   C     C_R   0.422148 0.172401 0.661838 -0.201376
C48   C     C_R   0.579260 0.826071 0.338730 -0.197166
C49   C     C_R   0.087100 0.646955 0.363125 -0.084439
C50   C     C_R   0.909980 0.350591 0.635642 -0.096331
C51   C     C_R   0.913201 0.353030 0.863121 -0.083824
C52   C     C_R   0.089655 0.649447 0.135626 -0.096197
C53   C     C_R   0.588127 0.866505 0.148076 -0.094875
C54   C     C_R   0.406427 0.132599 0.850413 -0.103879
C55   C     C_R   0.412976 0.146928 0.636906 -0.084473
C56   C     C_R   0.589959 0.850626 0.364325 -0.096303
C57   C     C_R   0.932919 0.625011 0.370097 0.383221
C58   C     C_R   0.062918 0.372531 0.627902 0.383594
C59   C     C_R   0.067364 0.374984 0.870114 0.383039
C60   C     C_R   0.936783 0.627474 0.127889 0.383555
C61   C     C_R   0.433272 0.872415 0.127817 0.379669
C62   C     C_R   0.562409 0.124699 0.869790 0.384112
C63   C     C_R   0.567297 0.125009 0.629892 0.383141
C64   C     C_R   0.436872 0.872537 0.372106 0.383493
C65   C     C_R   0.957805 0.546408 0.444842 -0.085036
C66   C     C_R   0.018459 0.445981 0.549244 -0.080723
C67   C     C_R   0.042242 0.453567 0.944873 -0.084960
C68   C     C_R   0.981273 0.553978 0.049271 -0.080574
C69   C     C_R   0.464727 0.945276 0.048474 -0.090409
C70   C     C_R   0.512433 0.046260 0.944327 -0.089662
C71   C     C_R   0.542271 0.046408 0.555147 -0.085026
C72   C     C_R   0.481398 0.945993 0.450755 -0.080666
C73   C     C_R   0.818698 0.573695 0.445635 -0.092205
C74   C     C_R   0.168519 0.420830 0.550053 -0.091559
C75   C     C_R   0.181507 0.426309 0.945682 -0.092407
C76   C     C_R   0.831096 0.579104 0.050052 -0.091723
C77   C     C_R   0.601277 0.917674 0.051804 -0.084712
C78   C     C_R   0.388871 0.076149 0.943293 -0.084680
C79   C     C_R   0.681303 0.073684 0.554334 -0.092245
C80   C     C_R   0.331433 0.920848 0.449970 -0.091609
C81   C     C_R   0.682987 0.573364 0.470934 0.122217
C82   C     C_R   0.308775 0.422368 0.525378 0.116133
C83   C     C_R   0.317219 0.426654 0.971012 0.122163
C84   C     C_R   0.690792 0.577536 0.025356 0.116221
C85   C     C_R   0.754576 0.916507 0.029574 0.113331
C86   C     C_R   0.240227 0.078296 0.966176 0.119538
C87   C     C_R   0.816884 0.073345 0.529013 0.122263
C88   C     C_R   0.191285 0.922395 0.474664 0.116162
C89   C     C_R   0.083030 0.544393 0.418040 -0.041759
C90   C     C_R   0.882466 0.445760 0.574371 -0.049389
C91   C     C_R   0.916983 0.455569 0.918049 -0.041760
C92   C     C_R   0.117346 0.554232 0.074415 -0.049440
C93   C     C_R   0.315666 0.947599 0.071175 -0.046947
C94   C     C_R   0.648764 0.041814 0.919465 -0.049806
C95   C     C_R   0.417203 0.044399 0.581970 -0.041708
C96   C     C_R   0.617260 0.945766 0.425608 -0.049452
C97   C     C_R   0.913199 0.676883 0.319939 -0.053209
C98   C     C_R   0.085789 0.322450 0.679516 -0.053475
C99   C     C_R   0.086983 0.323114 0.819950 -0.052951
C100  C     C_R   0.914017 0.677562 0.179500 -0.053031
C101  C     C_R   0.412346 0.822691 0.179746 -0.052465
C102  C     C_R   0.586296 0.176544 0.819638 -0.052322
C103  C     C_R   0.586934 0.176883 0.680052 -0.053301
C104  C     C_R   0.414078 0.822450 0.320492 -0.053758
H1    H     H_    0.199433 0.688893 0.333461 0.137050
H2    H     H_    0.800010 0.309499 0.666391 0.137470
H3    H     H_    0.800814 0.311094 0.833446 0.137053
H4    H     H_    0.199638 0.690562 0.166366 0.137110
H5    H     H_    0.700763 0.837563 0.188541 0.138231
H6    H     H_    0.294390 0.163821 0.811411 0.138430
H7    H     H_    0.300474 0.188839 0.666598 0.137105
H8    H     H_    0.700103 0.809563 0.333549 0.137459
H9    H     H_    0.214512 0.644285 0.377072 0.137735
H10   H     H_    0.782287 0.352459 0.621664 0.135375
H11   H     H_    0.785824 0.355691 0.877052 0.137935
H12   H     H_    0.217275 0.647599 0.121652 0.135374
H13   H     H_    0.716870 0.881044 0.143978 0.133774
H14   H     H_    0.275702 0.118704 0.854455 0.131199
H15   H     H_    0.285467 0.144239 0.622993 0.137746
H16   H     H_    0.717757 0.852517 0.378269 0.135299
C105  C     C_R   0.852374 0.495818 0.522123 0.014142
C106  C     C_R   0.112305 0.494466 0.470612 0.015064
C107  C     C_R   0.147506 0.504159 0.022184 0.014075
C108  C     C_R   0.887488 0.505471 0.970629 0.015023
C109  C     C_R   0.625029 0.991590 0.971981 0.022521
C110  C     C_R   0.338896 0.997589 0.018821 0.022154
C111  C     C_R   0.647445 0.995821 0.477846 0.014100
C112  C     C_R   0.387778 0.994481 0.529399 0.015042
C113  C     C_R   0.136066 0.471198 0.497934 0.001250
C114  C     C_R   0.842734 0.522139 0.496861 0.004560
C115  C     C_R   0.863661 0.528732 0.997948 0.001125
C116  C     C_R   0.157236 0.477841 0.996921 0.004482
C117  C     C_R   0.357348 0.024119 0.993915 0.002921
C118  C     C_R   0.621424 0.967888 0.999335 0.001069
C119  C     C_R   0.363964 0.971213 0.502083 0.001202
C120  C     C_R   0.657139 0.022138 0.503108 0.004530
C121  C     C_R   0.002702 0.471099 0.523131 0.055926
C122  C     C_R   0.970511 0.520909 0.470744 0.056077
C123  C     C_R   0.997074 0.528855 0.023166 0.056005
C124  C     C_R   0.029423 0.479055 0.970780 0.056150
C125  C     C_R   0.498078 0.020602 0.970069 0.054602
C126  C     C_R   0.475368 0.970318 0.022228 0.053644
C127  C     C_R   0.497196 0.971110 0.476864 0.055992
C128  C     C_R   0.529497 0.020914 0.529245 0.056107
C129  C     C_R   0.710553 0.492347 0.545570 -0.205781
C130  C     C_R   0.222953 0.491134 0.442586 -0.203128
C131  C     C_R   0.289350 0.507653 0.045654 -0.205517
C132  C     C_R   0.776774 0.508787 0.942584 -0.203157
C133  C     C_R   0.748453 0.986293 0.945866 -0.206577
C134  C     C_R   0.182844 0.996617 0.039568 -0.215476
C135  C     C_R   0.789164 0.992342 0.454379 -0.205559
C136  C     C_R   0.277254 0.991160 0.557440 -0.203157
C137  C     C_R   0.721704 0.467932 0.571247 0.089597
C138  C     C_R   0.211137 0.515076 0.416520 0.086076
C139  C     C_R   0.278168 0.532073 0.071322 0.089517
C140  C     C_R   0.788707 0.484860 0.916514 0.086080
C141  C     C_R   0.762777 0.010355 0.919902 0.086266
C142  C     C_R   0.167939 0.972302 0.065264 0.090581
C143  C     C_R   0.777975 0.967924 0.428709 0.089792
C144  C     C_R   0.289142 0.015096 0.583504 0.086107
O29   O     O_2   0.809224 0.426996 0.628637 -0.544749
O30   O     O_2   0.187167 0.571034 0.367916 -0.548459
O31   O     O_2   0.190815 0.573065 0.128668 -0.544763
O32   O     O_2   0.812899 0.428930 0.867904 -0.548528
O33   O     O_2   0.782083 0.065219 0.870070 -0.547594
O34   O     O_2   0.205162 0.930938 0.124056 -0.544505
O35   O     O_2   0.690220 0.927029 0.371323 -0.544580
O36   O     O_2   0.313388 0.071015 0.632127 -0.548634
C145  C     C_R   0.706905 0.549476 0.496901 -0.169223
C146  C     C_R   0.291952 0.448391 0.500844 -0.174095
C147  C     C_R   0.293197 0.450526 0.996980 -0.169011
C148  C     C_R   0.707675 0.551511 0.000833 -0.174191
C149  C     C_R   0.762600 0.942225 0.004628 -0.179891
C150  C     C_R   0.237033 0.053952 0.992098 -0.171068
C151  C     C_R   0.792899 0.049464 0.503048 -0.169092
C152  C     C_R   0.208157 0.948410 0.499198 -0.174101
H17   H     H_    0.368378 0.342433 0.685250 0.139242
H18   H     H_    0.629629 0.657594 0.313616 0.139649
H19   H     H_    0.631553 0.657535 0.185230 0.139098
H20   H     H_    0.370508 0.342412 0.813664 0.139455
H21   H     H_    0.874869 0.181887 0.834902 0.135821
H22   H     H_    0.126705 0.814869 0.163741 0.136429
H23   H     H_    0.131234 0.842373 0.314836 0.139430
H24   H     H_    0.870743 0.157647 0.686298 0.139643
H25   H     H_    0.346719 0.386167 0.640822 0.132711
H26   H     H_    0.648594 0.612440 0.356778 0.138655
H27   H     H_    0.653109 0.613801 0.140809 0.132673
H28   H     H_    0.351644 0.387559 0.856825 0.138638
H29   H     H_    0.852545 0.137314 0.878629 0.133792
H30   H     H_    0.146532 0.857492 0.118561 0.136315
H31   H     H_    0.152816 0.886109 0.359254 0.132716
H32   H     H_    0.851859 0.112495 0.643143 0.138620
H33   H     H_    0.582000 0.507194 0.543601 0.122115
H34   H     H_    0.317265 0.468808 0.439737 0.117527
H35   H     H_    0.417963 0.492825 0.043710 0.122118
H36   H     H_    0.682320 0.531093 0.939723 0.117420
H37   H     H_    0.832638 0.962373 0.944413 0.117219
H38   H     H_    0.063345 0.013569 0.035329 0.122731
H39   H     H_    0.917689 0.007178 0.456329 0.122126
H40   H     H_    0.182981 0.968847 0.560302 0.117445
H41   H     H_    0.619638 0.553339 0.517712 0.136780
H42   H     H_    0.406015 0.451567 0.484338 0.141878
H43   H     H_    0.380491 0.446666 0.017808 0.136821
H44   H     H_    0.593588 0.548314 0.984311 0.141908
H45   H     H_    0.885398 0.942990 0.989903 0.143870
H46   H     H_    0.140742 0.059360 0.011393 0.138002
H47   H     H_    0.880067 0.053322 0.482225 0.136813
H48   H     H_    0.094186 0.951581 0.515726 0.141861
C153  C     C_3   0.508639 0.597218 0.469826 -0.282299
C154  C     C_3   0.347382 0.586512 0.492263 -0.806313
H49   H     H_    0.316708 0.557413 0.489927 0.241780
H50   H     H_    0.380641 0.593152 0.517893 0.224510
H51   H     H_    0.219937 0.601737 0.485407 0.235240
H52   H     H_    0.548080 0.625374 0.475543 0.222023
H53   H     H_    0.449743 0.596017 0.444880 0.204925
C155  C     C_3   0.477630 0.396960 0.525416 -0.278126
C156  C     C_3   0.624715 0.402166 0.498856 -0.810932
H54   H     H_    0.562588 0.397827 0.474464 0.228485
H55   H     H_    0.687531 0.429320 0.500350 0.239483
H56   H     H_    0.738430 0.382228 0.502244 0.234478
H57   H     H_    0.551889 0.399574 0.548952 0.204456
H58   H     H_    0.426130 0.368983 0.522669 0.225716
C157  C     C_3   0.491674 0.402829 0.969935 -0.282053
C158  C     C_3   0.652823 0.413525 0.992431 -0.805826
H59   H     H_    0.683421 0.442630 0.990130 0.241619
H60   H     H_    0.619495 0.406848 0.018046 0.224680
H61   H     H_    0.780335 0.398323 0.985603 0.235391
H62   H     H_    0.452335 0.374659 0.975617 0.222472
H63   H     H_    0.550631 0.404074 0.945008 0.204877
C159  C     C_3   0.521856 0.602924 0.025353 -0.278066
C160  C     C_3   0.374785 0.597702 0.998764 -0.811648
H64   H     H_    0.436901 0.602044 0.974383 0.228306
H65   H     H_    0.312033 0.570543 0.000253 0.239618
H66   H     H_    0.261021 0.617630 0.002121 0.234271
H67   H     H_    0.447611 0.600303 0.048875 0.204577
H68   H     H_    0.573271 0.630906 0.022610 0.225461
C161  C     C_3   0.912406 0.888831 0.032945 -0.282409
C162  C     C_3   0.077274 0.891734 0.009416 -0.814541
H69   H     H_    0.030143 0.887445 0.984021 0.229957
H70   H     H_    0.146976 0.918203 0.011693 0.238967
H71   H     H_    0.181727 0.870671 0.015337 0.235325
H72   H     H_    0.971966 0.890756 0.057785 0.200399
H73   H     H_    0.852813 0.861589 0.029296 0.227621
C163  C     C_3   0.079312 0.105084 0.962255 -0.287139
C164  C     C_3   0.898993 0.096152 0.980581 -0.806688
H74   H     H_    0.859776 0.067605 0.976791 0.240420
H75   H     H_    0.915075 0.101675 0.006915 0.226182
H76   H     H_    0.783628 0.113311 0.971379 0.236511
H77   H     H_    0.126443 0.132242 0.969845 0.222674
H78   H     H_    0.038577 0.105843 0.936223 0.203143
C165  C     C_3   0.991185 0.097181 0.530097 -0.282319
C166  C     C_3   0.152360 0.086465 0.507637 -0.806051
H79   H     H_    0.183108 0.057363 0.509967 0.241723
H80   H     H_    0.118965 0.093117 0.482012 0.224626
H81   H     H_    0.279803 0.101675 0.514475 0.235275
H82   H     H_    0.951658 0.125342 0.524385 0.222120
H83   H     H_    0.050198 0.095967 0.555034 0.204872
C167  C     C_3   0.022478 0.897006 0.474643 -0.278114
C168  C     C_3   0.875422 0.902234 0.501207 -0.811149
H84   H     H_    0.937567 0.897874 0.525598 0.228379
H85   H     H_    0.812629 0.929401 0.499716 0.239517
H86   H     H_    0.761684 0.882321 0.497821 0.234439
H87   H     H_    0.948178 0.899626 0.451110 0.204466
H88   H     H_    0.074030 0.869024 0.477395 0.225654
C169  C     C_3   0.547620 0.464223 0.592094 -0.312205
C170  C     C_3   0.544991 0.491695 0.619790 -0.277296
C171  C     C_3   0.373926 0.486327 0.641311 -0.732240
H89   H     H_    0.243959 0.489239 0.626812 0.225914
H90   H     H_    0.376849 0.459203 0.652563 0.240343
H91   H     H_    0.373381 0.506801 0.660905 0.216767
H92   H     H_    0.672812 0.489263 0.634872 0.234899
H93   H     H_    0.541273 0.519297 0.609484 0.178931
H94   H     H_    0.421937 0.468978 0.576889 0.156346
H95   H     H_    0.529033 0.436380 0.601094 0.205820
C172  C     C_3   0.336734 0.506831 0.387697 -0.298072
C173  C     C_3   0.521323 0.527594 0.389946 -0.272186
C174  C     C_3   0.637931 0.522493 0.359335 -0.746076
H96   H     H_    0.670241 0.493589 0.355658 0.223154
H97   H     H_    0.561596 0.532940 0.337840 0.245661
H98   H     H_    0.771009 0.537439 0.361669 0.222027
H99   H     H_    0.495568 0.556727 0.393563 0.221378
H100  H     H_    0.602028 0.517658 0.411184 0.185353
H101  H     H_    0.370991 0.477673 0.387032 0.142569
H102  H     H_    0.263230 0.511120 0.364343 0.213222
C175  C     C_3   0.452282 0.535799 0.092197 -0.312300
C176  C     C_3   0.454868 0.508363 0.119931 -0.277177
C177  C     C_3   0.626075 0.513719 0.141455 -0.731681
H103  H     H_    0.755979 0.510624 0.126986 0.225811
H104  H     H_    0.623730 0.540913 0.152582 0.240200
H105  H     H_    0.626206 0.493347 0.161150 0.216903
H106  H     H_    0.327133 0.510848 0.135001 0.234983
H107  H     H_    0.458348 0.480744 0.109665 0.179071
H108  H     H_    0.577969 0.531019 0.077023 0.156338
H109  H     H_    0.470906 0.563656 0.101161 0.205849
C178  C     C_3   0.663057 0.493099 0.887669 -0.298159
C179  C     C_3   0.478564 0.472304 0.889878 -0.272073
C180  C     C_3   0.361940 0.477394 0.859241 -0.746496
H110  H     H_    0.329503 0.506292 0.855556 0.223037
H111  H     H_    0.438322 0.466964 0.837764 0.245652
H112  H     H_    0.228928 0.462425 0.861546 0.222133
H113  H     H_    0.504454 0.443175 0.893503 0.221405
H114  H     H_    0.397813 0.482222 0.911098 0.185244
H115  H     H_    0.628674 0.522251 0.887002 0.142378
H116  H     H_    0.736564 0.488832 0.864328 0.213162
C181  C     C_3   0.901168 0.000163 0.893453 -0.300486
C182  C     C_3   0.088682 0.019377 0.898223 -0.264369
C183  C     C_3   0.219000 0.012443 0.869647 -0.738908
H117  H     H_    0.247863 0.983239 0.867275 0.221221
H118  H     H_    0.155553 0.022548 0.846797 0.245777
H119  H     H_    0.352885 0.026670 0.873562 0.217916
H120  H     H_    0.068516 0.048787 0.900890 0.221458
H121  H     H_    0.155686 0.009363 0.920830 0.188412
H122  H     H_    0.929063 0.970754 0.893905 0.142244
H123  H     H_    0.841123 0.004400 0.868954 0.213782
C184  C     C_3   0.981671 0.971714 0.082951 -0.304619
C185  C     C_3   0.974362 0.999806 0.110098 -0.279186
C186  C     C_3   0.789148 0.997786 0.128297 -0.735990
H124  H     H_    0.670782 0.002620 0.111408 0.225154
H125  H     H_    0.772385 0.970935 0.139719 0.242484
H126  H     H_    0.786031 0.018564 0.147621 0.217992
H127  H     H_    0.090527 0.995585 0.127535 0.235584
H128  H     H_    0.989598 0.027116 0.099489 0.179623
H129  H     H_    0.867704 0.977869 0.065494 0.162060
H130  H     H_    0.946665 0.944536 0.092068 0.202872
C187  C     C_3   0.952029 0.964175 0.407857 -0.312686
C188  C     C_3   0.954745 0.991663 0.380170 -0.277504
C189  C     C_3   0.125789 0.986255 0.358647 -0.730439
H131  H     H_    0.255763 0.989125 0.373143 0.225766
H132  H     H_    0.122794 0.959135 0.347393 0.240399
H133  H     H_    0.126388 0.006733 0.339052 0.217417
H134  H     H_    0.826908 0.989277 0.365090 0.235172
H135  H     H_    0.958561 0.019257 0.390485 0.179137
H136  H     H_    0.077726 0.968880 0.423064 0.156387
H137  H     H_    0.970511 0.936332 0.398847 0.205805
C190  C     C_3   0.163646 0.006864 0.612340 -0.298177
C191  C     C_3   0.979099 0.027678 0.610123 -0.272080
C192  C     C_3   0.862665 0.022601 0.640756 -0.746367
H138  H     H_    0.830290 0.993707 0.644437 0.223029
H139  H     H_    0.939161 0.033018 0.662236 0.245632
H140  H     H_    0.729622 0.037587 0.638448 0.222163
H141  H     H_    0.004899 0.056805 0.606499 0.221346
H142  H     H_    0.898247 0.017768 0.588900 0.185281
H143  H     H_    0.129313 0.977717 0.613000 0.142412
H144  H     H_    0.237265 0.011117 0.635685 0.213106

loop_
_geom_bond_atom_site_label_1
_geom_bond_atom_site_label_2
_ccdc_geom_bond_type
C69   C126  A    
C112  C119  A    
C129  H33   S    
C151  H47   S    
C186  H124  S    
C32   H31   S    
C155  H58   S    
C160  H66   S    
C165  C166  S    
C10   O22   S    
C133  H37   S    
C20   C92   A    
C180  H110  S    
C187  H136  S    
O15   V4    S    
O16   V3    S    
C19   C91   A    
C114  C122  A    
C119  C127  A    
C163  C164  S    
C191  H142  S    
C154  H50   S    
C160  H64   S    
C120  C128  A    
C192  H140  S    
C85   C149  A    
C17   O30   S    
C11   C75   A    
C176  C177  S    
C66   C121  A    
C21   O34   S    
C154  H51   S    
C173  H100  S    
C68   C92   A    
C135  H39   S    
C70   C78   A    
N6    C62   S    
C75   C83   A    
C21   C93   A    
C39   H24   S    
C146  H42   S    
C53   C61   A    
C72   C80   A    
C6    C99   S    
C169  H95   S    
C181  H122  S    
C173  C174  S    
C174  H98   S    
O10   V2    S    
C184  C185  S    
O12   C4    A    
C30   C62   A    
C170  C171  S    
O13   C5    A    
C192  H139  S    
C107  C116  A    
C141  C181  S    
O6    V2    S    
C153  H53   S    
C186  H126  S    
C23   O36   S    
C56   C64   A    
C11   N3    A    
C12   O24   S    
C167  C168  S    
C13   O25   S    
C180  H112  S    
C111  C135  A    
C15   O27   S    
C133  C141  A    
C16   O28   S    
O1    C4    A    
O2    C3    A    
C179  C180  S    
C108  C132  A    
C87   C165  S    
C190  C191  S    
C29   C61   A    
C152  H48   S    
O7    C6    A    
C43   C51   A    
C112  C136  A    
C118  C149  A    
C119  C152  A    
C166  H80   S    
C164  H75   S    
C187  C188  S    
C40   H23   S    
C68   C76   A    
C106  C113  A    
C33   C97   A    
O10   C2    A    
C26   H25   S    
C165  H82   S    
C189  H133  S    
C136  C144  A    
C37   C101  A    
N1    C57   S    
C178  C179  S    
C13   C77   A    
C142  C184  S    
C54   C62   A    
C42   C98   A    
C156  H55   S    
C110  C134  A    
C188  H134  S    
O17   V3    S    
C161  H72   S    
C24   C96   A    
O18   V4    S    
O12   V1    S    
O19   V1    S    
C29   C37   A    
C110  C126  A    
C90   C137  A    
C87   C151  A    
C118  C126  A    
C178  H115  S    
C182  H120  S    
C84   C159  S    
C153  C154  S    
C1    C104  S    
C55   H15   S    
O8    V1    S    
C65   C73   A    
C2    C103  S    
C46   H6    S    
C136  H40   S    
C36   H19   S    
C26   C34   A    
O1    V3    S    
N1    C17   A    
O2    V4    S    
C156  H54   S    
C179  H114  S    
N4    C20   A    
N5    C21   A    
C19   O32   S    
C39   C103  A    
C70   C125  A    
C158  H59   S    
C40   C104  A    
C47   C55   A    
C82   C146  A    
C11   O23   S    
C12   N4    A    
C13   N5    A    
C161  C162  S    
C115  C123  A    
C175  H109  S    
C175  C176  S    
C137  C169  S    
C72   C96   A    
C113  C121  A    
C55   C63   A    
C24   O35   S    
N2    C58   S    
C52   H12   S    
C145  H41   S    
C177  H104  S    
C66   C90   A    
C109  C118  A    
N4    C60   S    
C49   H9    S    
C68   C123  A    
C28   C60   A    
C172  H102  S    
C140  C178  S    
C120  C151  A    
C149  H45   S    
C88   C152  A    
C176  H107  S    
C43   H3    S    
C70   C94   A    
C27   C35   A    
C12   C76   A    
C31   C63   A    
C159  H67   S    
C130  C138  A    
C26   C58   A    
C8    C97   S    
C28   C36   A    
C9    C73   A    
C170  H92   S    
C171  H91   S    
O14   C6    A    
C30   H29   S    
C32   C40   A    
C35   C99   A    
C138  C172  S    
C183  H119  S    
C107  C123  A    
C115  C148  A    
C158  H61   S    
C15   C79   A    
C113  C146  A    
C33   H18   S    
C167  H87   S    
C168  H86   S    
C106  C122  A    
C163  H78   S    
C37   H22   S    
C153  H52   S    
C73   C81   A    
C54   H14   S    
C162  H69   S    
C44   C52   A    
C51   C59   A    
C77   C85   A    
C130  H34   S    
C79   C87   A    
C94   C141  A    
C48   C56   A    
C7    C98   S    
C134  H38   S    
C116  C147  A    
C43   C99   A    
C89   C138  A    
C69   C77   A    
C157  C158  S    
C41   C97   A    
C184  H130  S    
C34   C98   A    
O11   C3    A    
N7    C23   A    
C38   C102  A    
C82   C155  S    
C9    N1    A    
C169  H94   S    
C174  H97   S    
C188  C189  S    
C105  C129  A    
C86   C150  A    
C180  H111  S    
C15   N7    A    
C91   C140  A    
O11   V2    S    
N5    C61   S    
C16   N8    A    
C162  H71   S    
C86   C163  S    
C92   C139  A    
C109  C133  A    
C50   H10   S    
C108  C124  A    
C27   C59   A    
C41   C49   A    
C190  H144  S    
C116  C124  A    
C117  C125  A    
C172  C173  S    
C186  H125  S    
O7    V2    S    
C155  H57   S    
C44   C100  A    
C84   C148  A    
C4    C101  S    
C31   C39   A    
C42   H2    S    
C187  H137  S    
C72   C127  A    
C44   H4    S    
C157  H62   S    
C171  H89   S    
N2    C18   A    
C147  H43   S    
N8    C64   S    
C95   C144  A    
C191  H141  S    
C32   C64   A    
C154  H49   S    
C69   C93   A    
C168  H84   S    
C164  H74   S    
C14   N6    A    
C185  H127  S    
C189  H132  S    
O4    C1    A    
C16   C80   A    
C173  H99   S    
C3    C102  S    
C188  H135  S    
C183  H117  S    
C134  C142  A    
C110  C117  A    
C76   C84   A    
O13   V3    S    
O14   V4    S    
C80   C88   A    
C182  H121  S    
N6    C22   A    
C185  H128  S    
C42   C50   A    
C181  H123  S    
C9    O21   S    
C156  H56   S    
C117  C150  A    
C177  H103  S    
C71   C95   A    
C85   C161  S    
C35   H20   S    
C18   C90   A    
C25   H26   S    
O3    V4    S    
O4    V3    S    
C14   C78   A    
C158  H60   S    
C169  C170  S    
C159  C160  S    
C5    C100  S    
C93   C142  A    
C67   C124  A    
C30   C38   A    
C175  H108  S    
C189  H131  S    
C65   C122  A    
C28   H27   S    
O5    C8    A    
C66   C74   A    
C143  C187  S    
C144  C190  S    
C17   C89   A    
C166  H79   S    
C135  C143  A    
C164  H76   S    
N7    C63   S    
C25   C33   A    
O3    C2    A    
C107  C131  A    
C185  C186  S    
C96   C143  A    
C46   C54   A    
C172  H101  S    
C111  C127  A    
C18   O29   S    
C83   C157  S    
C112  C128  A    
C83   C147  A    
C31   H32   S    
C81   C145  A    
C22   O33   S    
C132  H36   S    
O9    V1    S    
O15   C7    A    
C161  H73   S    
O16   C8    A    
C47   H7    S    
C48   H8    S    
C45   C53   A    
C178  H116  S    
O5    V1    S    
C36   C100  A    
N3    C59   S    
C10   N2    A    
C14   O26   S    
C46   C102  A    
C159  H68   S    
C67   C91   A    
C106  C130  A    
C65   C89   A    
C170  H93   S    
C49   C57   A    
C171  H90   S    
C23   C95   A    
C51   H11   S    
C179  H113  S    
C183  H118  S    
C20   O31   S    
C81   C153  S    
C157  H63   S    
C155  C156  S    
N8    C24   A    
O8    C5    A    
C150  H46   S    
C167  H88   S    
C53   H13   S    
C168  H85   S    
C67   C75   A    
C192  H138  S    
C45   C101  A    
C105  C114  A    
C71   C79   A    
O9    C1    A    
C56   H16   S    
C41   H1    S    
C162  H70   S    
N3    C19   A    
C191  C192  S    
C52   C60   A    
C160  H65   S    
C131  C139  A    
C166  H81   S    
C129  C137  A    
C139  C175  S    
C163  H77   S    
C177  H105  S    
C88   C167  S    
C10   C74   A    
C184  H129  S    
C109  C125  A    
C22   C94   A    
O20   V2    S    
C25   C57   A    
C148  H44   S    
C29   H30   S    
C182  C183  S    
C114  C145  A    
C27   H28   S    
O6    C7    A    
C34   H17   S    
C71   C128  A    
C48   C104  A    
C174  H96   S    
C165  H83   S    
C45   H5    S    
C38   H21   S    
C74   C82   A    
C132  C140  A    
C176  H106  S    
C108  C115  A    
C78   C86   A    
C47   C103  A    
C181  C182  S    
C105  C121  A    
C50   C58   A    
C131  H35   S    
C111  C120  A    
C190  H143  S    
