data_mof_unit_27561.cif
_audit_creation_date              2012-10-26T19:46:51-0400
_audit_creation_method            fapswitch 2.2
_symmetry_space_group_name_H-M    P1
_symmetry_Int_Tables_number       1
_space_group_crystal_system       triclinic
_cell_length_a                    10.828409
_cell_length_b                    9.527172
_cell_length_c                    15.977338
_cell_angle_alpha                 90.031629
_cell_angle_beta                  90.287862
_cell_angle_gamma                 90.011671
_cell_volume                      1648.26684604

loop_
_atom_site_label
_atom_site_type_symbol
_atom_type_description
_atom_site_fract_x
_atom_site_fract_y
_atom_site_fract_z
_atom_type_partial_charge
C1    C     C_R   0.871518 0.500498 0.500634 -0.055384
C2    C     C_R   0.414805 0.417797 0.955922 -0.096595
C3    C     C_R   0.500589 0.500009 0.912682 0.038066
C4    C     C_R   0.500324 0.499913 0.087327 0.037662
C5    C     C_1   0.500663 0.500092 0.823120 -0.035637
C6    C     C_1   0.500225 0.499826 0.176884 -0.044902
C7    C     C_1   0.500175 0.499797 0.252011 0.010194
C8    C     C_1   0.500576 0.500119 0.747989 0.028675
C9    C     C_R   0.423410 0.074311 0.447729 0.047147
C10   C     C_R   0.576596 0.925696 0.552265 0.043873
C11   C     C_R   0.576503 0.074455 0.552304 0.042365
C12   C     C_R   0.128382 0.499786 0.499607 -0.053032
C13   C     C_R   0.423498 0.925547 0.447681 0.043392
C14   C     C_R   0.065348 0.418048 0.559370 0.011131
C15   C     C_R   0.934529 0.582402 0.440955 0.007473
C16   C     C_R   0.935914 0.419005 0.560374 0.009997
C17   C     C_R   0.063979 0.582184 0.440386 0.009795
C18   C     C_2   0.135505 0.341845 0.625229 0.620931
C19   C     C_2   0.864506 0.658517 0.374912 0.618958
C20   C     C_2   0.868203 0.343158 0.627450 0.596493
C21   C     C_2   0.132031 0.659051 0.373995 0.598320
C22   C     C_R   0.262493 0.499973 0.499732 0.598659
C23   C     C_R   0.737471 0.500063 0.500278 0.597501
C24   C     C_R   0.500121 0.499937 0.341227 0.597249
C25   C     C_R   0.500257 0.500042 0.658776 0.599533
C26   C     C_R   0.586225 0.582194 0.956730 -0.091719
C27   C     C_R   0.414676 0.417745 0.043279 -0.093322
C28   C     C_R   0.586095 0.582141 0.044089 -0.095768
Cu1   Cu    Cu3+1 0.500000 0.640660 0.500000 1.032106
Cu2   Cu    Cu3+1 0.500000 0.359340 0.500000 1.041318
H1    H     H_    0.362010 0.130250 0.405840 0.135543
H2    H     H_    0.751590 0.645667 0.274544 0.332784
H3    H     H_    0.835313 0.160025 0.686527 0.330805
H4    H     H_    0.253392 0.649394 0.278951 0.331216
H5    H     H_    0.638009 0.869771 0.594153 0.128474
H6    H     H_    0.637575 0.130548 0.594306 0.138560
H7    H     H_    0.362398 0.869484 0.405651 0.150251
H8    H     H_    0.652613 0.645953 0.077853 0.125179
H9    H     H_    0.348279 0.353997 0.922160 0.124399
H10   H     H_    0.652830 0.646072 0.923604 0.129638
H11   H     H_    0.348062 0.353886 0.076406 0.130682
H12   H     H_    0.245745 0.354654 0.726951 0.331872
N1    N     N_R   0.500000 0.852070 0.500000 -0.237318
N2    N     N_R   0.500000 0.147930 0.500000 -0.237212
O1    O     O_R   0.319640 0.618740 0.499990 -0.486391
O2    O     O_R   0.200788 0.417749 0.685803 -0.700607
O3    O     O_2   0.865125 0.786794 0.373169 -0.447259
O4    O     O_R   0.795716 0.582612 0.316122 -0.696590
O5    O     O_2   0.796164 0.406951 0.672237 -0.533526
O6    O     O_R   0.886152 0.199171 0.638810 -0.645825
O7    O     O_2   0.118634 0.785721 0.365849 -0.474312
O8    O     O_R   0.212404 0.585968 0.321511 -0.703958
O9    O     O_R   0.680360 0.381260 0.500010 -0.483913
O10   O     O_R   0.680360 0.618740 0.500010 -0.490575
O11   O     O_R   0.319640 0.381260 0.499990 -0.488476
O12   O     O_R   0.499970 0.618750 0.380310 -0.497980
O13   O     O_R   0.500030 0.381250 0.619690 -0.490634
O14   O     O_R   0.500030 0.618750 0.619690 -0.500826
O15   O     O_R   0.499970 0.381250 0.380310 -0.493825
O16   O     O_2   0.138441 0.213607 0.625103 -0.444655

loop_
_geom_bond_atom_site_label_1
_geom_bond_atom_site_label_2
_ccdc_geom_bond_type
C12   C17   A    
C5    C8    T    
C1    C23   S    
C6    C7    T    
C1    C15   A    
Cu1   O12   S    
C24   O12   A    
Cu1   Cu2   S    
Cu2   O11   S    
C14   C18   S    
C26   C28   A    
C28   H8    S    
C16   C20   S    
C2    C27   A    
Cu2   N2    S    
Cu2   O15   S    
C22   O1    A    
C2    C3    A    
H3    O6    S    
C11   N2    A    
C1    C16   A    
Cu1   N1    S    
C15   C19   S    
C8    C25   S    
H2    O4    S    
C26   H10   S    
C22   O11   A    
C25   O13   A    
C24   O15   A    
C20   O5    D    
C18   O2    S    
C18   O16   D    
C11   H6    S    
C4    C28   A    
C12   C14   A    
C23   O9    A    
C19   O3    D    
C21   O8    S    
Cu2   O9    S    
C14   C16   A    
C21   O7    D    
C10   C11   A    
C9    H1    S    
C7    C24   S    
C10   H5    S    
Cu2   O13   S    
C12   C22   S    
C13   N1    A    
C4    C27   A    
Cu1   O14   S    
C23   O10   A    
C4    C6    S    
C25   O14   A    
H12   O2    S    
Cu1   O10   S    
C15   C17   A    
C9    C13   A    
C19   O4    S    
C9    N2    A    
C20   O6    S    
H4    O8    S    
C10   N1    A    
C13   H7    S    
C2    H9    S    
C3    C26   A    
C17   C21   S    
Cu1   O1    S    
C27   H11   S    
C3    C5    S    
