data_mof_unit_52910.cif
_audit_creation_date              2012-12-11T15:15:16-0500
_audit_creation_method            fapswitch 2.2
_symmetry_space_group_name_H-M    P1
_symmetry_Int_Tables_number       1
_space_group_crystal_system       triclinic
_cell_length_a                    18.797937
_cell_length_b                    18.837337
_cell_length_c                    20.472097
_cell_angle_alpha                 107.423807
_cell_angle_beta                  106.457051
_cell_angle_gamma                 110.912936
_cell_volume                      5808.93013983

loop_
_atom_site_label
_atom_site_type_symbol
_atom_type_description
_atom_site_fract_x
_atom_site_fract_y
_atom_site_fract_z
_atom_type_partial_charge
C1    C     C_R   0.091797 0.087325 0.357164 -0.146951
C2    C     C_R   0.245846 0.070246 0.543944 -0.129245
C3    C     C_R   0.152874 0.224030 0.708510 -0.138905
C4    C     C_R   0.761845 0.925618 0.505738 -0.143543
C5    C     C_R   0.998698 0.763133 0.430813 -0.148590
C6    C     C_R   0.228439 0.275040 0.710356 0.044657
C7    C     C_R   0.947182 0.709265 0.451016 0.081214
C8    C     C_R   0.254316 0.997739 0.533570 0.073251
C9    C     C_R   0.000916 0.977983 0.726569 0.017023
C10   C     C_R   0.946205 0.577625 0.374937 -0.244733
C11   C     C_R   0.916017 0.617144 0.421679 0.111448
C12   C     C_R   0.757969 0.994245 0.550874 0.081461
C13   C     C_R   0.861447 0.569507 0.445195 -0.263984
C14   C     C_R   0.847109 0.487496 0.431687 0.152544
C15   C     C_R   0.886623 0.452261 0.392929 0.025292
C16   C     C_R   0.839406 0.816378 0.281740 -0.126902
C17   C     C_R   0.932641 0.495779 0.361174 0.119529
C18   C     C_R   0.800498 0.443541 0.462526 -0.210175
C19   C     C_R   0.800751 0.369683 0.462305 -0.210210
C20   C     C_R   0.847973 0.339682 0.431587 0.158471
C21   C     C_R   0.887324 0.378123 0.392818 0.000135
C22   C     C_R   0.934685 0.347806 0.361176 0.081161
C23   C     C_R   0.756895 0.791935 0.273378 0.038632
C24   C     C_R   0.972284 0.386120 0.320907 0.135849
C25   C     C_R   0.970738 0.460266 0.321795 -0.280170
C26   C     C_R   0.864405 0.278547 0.446745 -0.256004
C27   C     C_R   0.922500 0.258449 0.426687 0.118787
C28   C     C_R   0.947593 0.194594 0.519520 -0.132786
C29   C     C_R   0.950351 0.286418 0.377820 -0.270152
C30   C     C_R   0.331011 0.916175 0.552149 -0.241315
C31   C     C_R   0.331602 0.994536 0.571264 0.113696
C32   C     C_R   0.408398 0.070054 0.619990 -0.261528
C33   C     C_R   0.484825 0.068353 0.637685 0.151330
C34   C     C_R   0.962767 0.218585 0.464709 0.073820
C35   C     C_R   0.483934 0.989872 0.608223 0.026484
C36   C     C_R   0.406939 0.913502 0.569214 0.113614
C37   C     C_R   0.561723 0.144341 0.677360 -0.210353
C38   C     C_R   0.636084 0.143224 0.679955 -0.212207
C39   C     C_R   0.633762 0.066151 0.642591 0.160993
C40   C     C_R   0.760550 0.809816 0.345880 -0.127566
C41   C     C_R   0.558578 0.988404 0.610464 0.001457
C42   C     C_R   0.555938 0.910107 0.573432 0.075435
C43   C     C_R   0.480826 0.832539 0.545904 0.135961
C44   C     C_R   0.406436 0.835778 0.542233 -0.275647
C45   C     C_R   0.229900 0.229168 0.644542 -0.145239
C46   C     C_R   0.702631 0.066532 0.629876 -0.262309
C47   C     C_R   0.695637 0.990989 0.581910 0.112159
C48   C     C_R   0.624941 0.912993 0.558247 -0.256872
C49   C     C_R   0.283361 0.367186 0.759524 0.142796
C50   C     C_R   0.254483 0.415585 0.800392 -0.188680
C51   C     C_R   0.308444 0.501477 0.850066 -0.161773
C52   C     C_R   0.026012 0.200999 0.455132 -0.130650
C53   C     C_R   0.392259 0.540259 0.859914 0.230908
C54   C     C_R   0.419162 0.493830 0.815018 -0.183738
C55   C     C_R   0.365347 0.407803 0.765523 -0.179791
C56   C     C_R   0.921377 0.756628 0.495162 -0.134983
C57   C     C_R   0.615259 0.700036 0.064263 -0.153369
C58   C     C_R   0.686036 0.733127 0.132067 -0.189440
C59   C     C_R   0.605847 0.755099 0.202755 -0.171009
C60   C     C_R   0.534597 0.721483 0.134566 -0.190805
C61   C     C_R   0.538345 0.692878 0.064684 0.228090
C62   C     C_2   0.456898 0.623301 0.924513 -0.235325
C63   C     C_2   0.458572 0.641882 0.993826 -0.220374
C64   C     C_R   0.831194 0.065913 0.570295 -0.150757
C65   C     C_R   0.681939 0.759780 0.202042 0.144599
C66   C     C_R   0.125113 0.024301 0.249156 0.146626
C67   C     C_R   0.176056 0.928756 0.479187 -0.134080
C68   C     C_R   0.134797 0.954058 0.213769 -0.188329
C69   C     C_R   0.170164 0.953366 0.162544 -0.164398
C70   C     C_R   0.196277 0.022845 0.146603 0.214604
C71   C     C_R   0.196828 0.097078 0.189045 -0.168601
C72   C     C_R   0.160981 0.097709 0.239942 -0.196435
C73   C     C_R   0.148121 0.046946 0.927611 0.148842
C74   C     C_R   0.117170 0.040513 0.854371 -0.240805
C75   C     C_R   0.993082 0.906822 0.810808 -0.192879
C76   C     C_R   0.021843 0.947104 0.292972 -0.135685
C77   C     C_R   0.024376 0.910415 0.882599 -0.213467
C78   C     C_R   0.015102 0.052103 0.718453 0.154786
C79   C     C_R   0.100262 0.980847 0.941767 0.168087
C80   C     C_2   0.189924 0.006784 0.070414 -0.248910
C81   C     C_2   0.116498 0.990366 0.018832 -0.218203
C82   C     C_R   0.037720 0.973827 0.797642 0.118666
C83   C     C_R   0.075473 0.020103 0.293278 0.046382
C84   C     C_3   0.026581 0.132910 0.775126 -0.468743
C85   C     C_3   0.967415 0.115672 0.813717 -0.230683
C86   C     C_3   0.973482 0.197970 0.864025 -0.943997
C87   C     C_3   0.019380 0.353850 0.281258 -0.431647
C88   C     C_3   0.958485 0.268539 0.210045 -0.230772
C89   C     C_R   0.955333 0.910730 0.653924 -0.179456
C90   C     C_3   0.006716 0.233942 0.173192 -0.937598
C91   C     C_3   0.475133 0.745305 0.518261 -0.439233
C92   C     C_3   0.454076 0.703214 0.568907 -0.224976
C93   C     C_3   0.449811 0.616315 0.542302 -0.942129
C94   C     C_3   0.224351 0.130088 0.989816 -0.430470
C95   C     C_3   0.196273 0.189655 0.030898 -0.230110
C96   C     C_3   0.272339 0.272730 0.095079 -0.940541
H1    H     H_    0.871175 0.732641 0.511315 0.084983
H2    H     H_    0.769146 0.339628 0.490981 0.129384
H3    H     H_    0.838336 0.253553 0.480704 0.116667
H4    H     H_    0.003489 0.493162 0.295282 0.130475
H5    H     H_    0.272125 0.857031 0.518486 0.117550
H6    H     H_    0.409927 0.130919 0.638695 0.117190
H7    H     H_    0.563458 0.204914 0.701613 0.128391
H8    H     H_    0.694029 0.203048 0.706184 0.127781
H9    H     H_    0.758018 0.126992 0.651412 0.116020
H10   H     H_    0.861203 0.814304 0.238153 0.094420
H11   H     H_    0.620699 0.855827 0.521542 0.111789
H12   H     H_    0.158683 0.862383 0.457191 0.095251
H13   H     H_    0.347048 0.777118 0.515104 0.135293
H14   H     H_    0.190737 0.387524 0.795138 0.112767
H15   H     H_    0.742872 0.734543 0.128788 0.111081
H16   H     H_    0.600549 0.776008 0.255599 0.113351
H17   H     H_    0.402253 0.606807 0.999207 0.133015
H18   H     H_    0.483754 0.522684 0.821994 0.110268
H19   H     H_    0.620349 0.675477 0.011820 0.109442
H20   H     H_    0.902033 0.198061 0.540786 0.096500
H21   H     H_    0.512830 0.658727 0.918895 0.130495
H22   H     H_    0.285530 0.536685 0.882655 0.113825
H23   H     H_    0.932864 0.844058 0.638902 0.113583
H24   H     H_    0.475644 0.715252 0.136227 0.115169
H25   H     H_    0.111231 0.897786 0.222247 0.111459
H26   H     H_    0.932067 0.854308 0.767117 0.121979
H27   H     H_    0.064291 0.983912 0.034088 0.147102
H28   H     H_    0.216009 0.150851 0.176391 0.131729
H29   H     H_    0.155585 0.153121 0.267425 0.113320
H30   H     H_    0.241750 0.007148 0.056782 0.137251
H31   H     H_    0.986687 0.860393 0.893374 0.130441
H32   H     H_    0.053357 0.210166 0.416657 0.095304
H33   H     H_    0.856303 0.129231 0.614005 0.086902
H34   H     H_    0.293453 0.135251 0.582310 0.094320
H35   H     H_    0.006460 0.882990 0.258265 0.084460
H36   H     H_    0.271251 0.254958 0.620587 0.090707
H37   H     H_    0.142636 0.151716 0.382107 0.092417
H38   H     H_    0.039373 0.242224 0.909033 0.260874
H39   H     H_    0.954046 0.228989 0.829302 0.259511
H40   H     H_    0.930784 0.183731 0.891724 0.253957
H41   H     H_    0.900826 0.072267 0.769602 0.202068
H42   H     H_    0.984423 0.085247 0.849928 0.205012
H43   H     H_    0.093502 0.173272 0.818671 0.184103
H44   H     H_    0.009279 0.167526 0.743612 0.190153
H45   H     H_    0.125350 0.246522 0.743651 0.086452
H46   H     H_    0.768513 0.469146 0.491132 0.128445
H47   H     H_    0.990419 0.265928 0.358524 0.129384
H48   H     H_    0.044104 0.279443 0.156276 0.261928
H49   H     H_    0.050050 0.222695 0.213435 0.258309
H50   H     H_    0.961155 0.172743 0.121524 0.252341
H51   H     H_    0.920361 0.220809 0.224618 0.200481
H52   H     H_    0.914134 0.277340 0.168173 0.198518
H53   H     H_    0.053730 0.400094 0.263240 0.185319
H54   H     H_    0.068978 0.348809 0.321557 0.181765
H55   H     H_    0.400031 0.573503 0.482899 0.262433
H56   H     H_    0.019597 0.745344 0.387525 0.085928
H57   H     H_    0.511837 0.622744 0.545143 0.260196
H58   H     H_    0.434075 0.587421 0.579706 0.251916
H59   H     H_    0.503620 0.744490 0.628674 0.199396
H60   H     H_    0.392038 0.694662 0.567737 0.195643
H61   H     H_    0.425077 0.704810 0.458633 0.187243
H62   H     H_    0.534462 0.747211 0.518146 0.186410
H63   H     H_    0.389207 0.372453 0.734383 0.110835
H64   H     H_    0.152993 0.090643 0.842791 0.125275
H65   H     H_    0.310758 0.260061 0.137814 0.261576
H66   H     H_    0.312512 0.306385 0.072034 0.265596
H67   H     H_    0.985832 0.612051 0.353821 0.114713
H68   H     H_    0.250005 0.314322 0.123714 0.249387
H69   H     H_    0.158202 0.204101 0.989525 0.197725
H70   H     H_    0.155968 0.158698 0.055181 0.201469
H71   H     H_    0.267287 0.119495 0.030625 0.192485
H72   H     H_    0.262905 0.162188 0.964744 0.183151
H73   H     H_    0.708681 0.800190 0.361271 0.093472
H74   H     H_    0.168586 0.895411 0.129459 0.119800
H75   H     H_    0.835082 0.597693 0.479013 0.116387
H76   H     H_    0.722871 0.859472 0.489856 0.085173
N1    N     N_R   0.052580 0.056040 0.395500 -0.036743
N2    N     N_R   0.890210 0.849400 0.355780 -0.039109
N3    N     N_R   0.997110 0.161140 0.539580 -0.041409
N4    N     N_R   0.841950 0.845400 0.395490 -0.038377
N5    N     N_R   0.045360 0.165140 0.499870 -0.039577
N6    N     N_R   0.877490 0.041510 0.539580 -0.038871
N7    N     N_R   0.009820 0.969030 0.355780 -0.037161
N8    N     N_R   0.158050 0.154600 0.604510 -0.036705
N9    N     N_R   0.954640 0.834860 0.500130 -0.037083
N10   N     N_R   0.122510 0.958490 0.460420 -0.040738
N11   N     N_R   0.990180 0.030970 0.644220 -0.059105
N12   N     N_R   0.947420 0.943960 0.604500 -0.046545
N13   N     N_R   0.165270 0.045500 0.500140 -0.040170
N14   N     N_R   0.109790 0.150600 0.644220 -0.040672
N15   N     N_R   0.002890 0.838860 0.460420 -0.038246
N16   N     N_R   0.834730 0.954500 0.499860 -0.036742
Ni1   Ni    Ni4+2 0.104370 0.104380 0.500010 0.211147
Ni2   Ni    Ni4+2 0.895630 0.895620 0.499990 0.208327
Ni3   Ni    Ni4+2 0.006300 0.904810 0.408930 0.208902
Ni4   Ni    Ni4+2 0.993700 0.095190 0.591070 0.201411

loop_
_geom_bond_atom_site_label_1
_geom_bond_atom_site_label_2
_ccdc_geom_bond_type
C66   C68   A    
C87   C88   S    
C3    N14   A    
C10   H67   S    
C22   C29   A    
C27   C29   A    
C75   H26   S    
C41   C42   A    
C14   C18   A    
C95   C96   S    
C3    H45   S    
N11   N12   A    
C3    C6    A    
N11   Ni4   S    
N9    N15   A    
C57   H19   S    
C53   C54   A    
C25   H4    S    
C7    C11   S    
C1    N1    A    
C26   C27   A    
C37   C38   A    
C5    H56   S    
C80   H30   S    
C81   H27   S    
C56   H1    S    
C91   H61   S    
C93   H58   S    
C6    C45   A    
C18   C19   A    
C90   H49   S    
N8    Ni1   S    
C30   C31   A    
C12   C64   A    
C76   H35   S    
C67   H12   S    
C48   H11   S    
C56   N9    A    
N1    N7    A    
C10   C17   A    
C23   C40   A    
C29   H47   S    
C46   H9    S    
C50   H14   S    
C51   H22   S    
C64   N6    A    
C96   H65   S    
N16   Ni2   S    
C78   N11   A    
C73   C74   A    
C61   C63   S    
C52   N5    A    
C62   H21   S    
C38   H8    S    
C28   H20   S    
C45   N8    A    
C33   C35   A    
C66   C83   S    
C54   C55   A    
C86   H38   S    
C66   C72   A    
C19   C20   A    
C84   H43   S    
C68   C69   A    
C91   H62   S    
C87   H54   S    
C70   C71   A    
C4    C12   A    
N15   Ni3   S    
C77   H31   S    
C16   H10   S    
C26   H3    S    
C69   H74   S    
N6    N16   A    
C44   H13   S    
C76   N7    A    
C55   H63   S    
C28   C34   A    
C59   C60   A    
C6    C49   S    
C13   C14   A    
C43   C91   S    
C94   C95   S    
C73   C94   S    
C74   C82   A    
C12   C47   S    
C1    H37   S    
C95   H69   S    
C76   C83   A    
C40   H73   S    
C19   H2    S    
C59   H16   S    
C77   C79   A    
C27   C34   S    
C73   C79   A    
N5    Ni1   S    
C70   C80   S    
C58   H15   S    
C89   N12   A    
C89   H23   S    
C71   H28   S    
C18   H46   S    
C84   C85   S    
N3    N5    A    
C9    C89   A    
C91   C92   S    
C40   N4    A    
C85   C86   S    
C33   C37   A    
C96   H68   S    
C60   C61   A    
C51   C53   A    
C35   C36   A    
C94   H71   S    
C43   C44   A    
C62   C63   D    
C67   N10   A    
N6    Ni4   S    
N9    Ni2   S    
C58   C65   A    
N4    Ni2   S    
C47   C48   A    
C13   H75   S    
C50   C51   A    
C88   H52   S    
C92   H60   S    
C42   C48   A    
C24   C25   A    
C57   C61   A    
C75   C77   A    
C84   H44   S    
N8    N14   A    
C8    C67   A    
C39   C46   A    
C86   H40   S    
C88   C90   S    
C16   C23   A    
C22   C24   A    
C36   C44   A    
C42   C43   A    
C5    N15   A    
C94   H72   S    
C95   H70   S    
C85   H41   S    
N3    Ni4   S    
C5    C7    A    
C16   N2    A    
C15   C17   A    
C46   C47   A    
N12   Ni2   S    
C4    H76   S    
C8    C31   S    
C34   C52   A    
C31   C32   A    
C2    C8    A    
C80   C81   D    
C68   H25   S    
C52   H32   S    
C37   H7    S    
C75   C82   A    
N13   Ni1   S    
C32   H6    S    
C74   H64   S    
C64   H33   S    
C1    C83   A    
C9    C82   S    
C79   C81   S    
C30   C36   A    
C72   H29   S    
N2    Ni3   S    
C17   C25   A    
C32   C33   A    
C4    N16   A    
C93   H57   S    
C2    N13   A    
C71   C72   A    
C90   H50   S    
C49   C55   A    
C59   C65   A    
C11   C13   A    
C23   C65   S    
C57   C58   A    
C38   C39   A    
C20   C26   A    
C54   H18   S    
C30   H5    S    
N1    Ni1   S    
C92   C93   S    
C2    H34   S    
C88   H51   S    
C96   H66   S    
C60   H24   S    
C92   H59   S    
C7    C56   A    
C9    C78   A    
C28   N3    A    
N14   Ni4   S    
C69   C70   A    
C35   C41   A    
C24   C87   S    
N2    N4    A    
C53   C62   S    
C93   H55   S    
C10   C11   A    
C63   H17   S    
C78   C84   S    
C86   H39   S    
C15   C21   A    
N7    Ni3   S    
C20   C21   A    
C39   C41   A    
C45   H36   S    
C49   C50   A    
C87   H53   S    
C14   C15   A    
C21   C22   A    
C85   H42   S    
N10   N13   A    
C90   H48   S    
N10   Ni3   S    
