data_mof_unit_56073.cif
_audit_creation_date              2012-10-26T17:50:26-0400
_audit_creation_method            fapswitch 2.2
_symmetry_space_group_name_H-M    P1
_symmetry_Int_Tables_number       1
_space_group_crystal_system       triclinic
_cell_length_a                    21.848139
_cell_length_b                    21.977076
_cell_length_c                    30.156065
_cell_angle_alpha                 88.266615
_cell_angle_beta                  89.728908
_cell_angle_gamma                 92.375718
_cell_volume                      14460.3569136

loop_
_atom_site_label
_atom_site_type_symbol
_atom_type_description
_atom_site_fract_x
_atom_site_fract_y
_atom_site_fract_z
_atom_type_partial_charge
C1    C     C_R   0.501837 0.119015 0.499939 0.503486
C2    C     C_R   0.288549 0.434043 0.619272 0.152236
C3    C     C_R   0.000751 0.500919 0.414657 0.538510
C4    C     C_R   0.999855 0.499215 0.085748 0.565614
C5    C     C_R   0.499524 0.999282 0.085669 0.552216
C6    C     C_R   0.000073 0.501313 0.914397 0.548592
C7    C     C_R   0.492990 0.000807 0.915020 0.553646
C8    C     C_R   0.516373 0.052387 0.842651 -0.118817
C9    C     C_R   0.044941 0.532476 0.841535 -0.046119
C10   C     C_R   0.456215 0.957545 0.844968 -0.140712
C11   C     C_R   0.955413 0.463875 0.844602 -0.114634
C12   C     C_R   0.479120 0.945161 0.158371 -0.081368
C13   C     C_R   0.352610 0.700694 0.563262 0.122860
C14   C     C_R   0.053036 0.486022 0.157691 -0.025096
C15   C     C_R   0.512578 0.051541 0.156877 -0.105991
C16   C     C_R   0.948583 0.518168 0.157439 -0.143814
C17   C     C_R   0.051708 0.482045 0.344076 -0.126396
C18   C     C_R   0.467847 0.949094 0.344599 -0.100301
C19   C     C_R   0.952501 0.526859 0.343471 -0.111279
C20   C     C_R   0.534071 0.040093 0.341799 -0.062920
C21   C     C_R   0.030973 0.541542 0.655861 -0.080946
C22   C     C_R   0.538043 0.038238 0.658017 -0.139397
C23   C     C_R   0.956920 0.456581 0.658213 -0.078724
C24   C     C_R   0.722119 0.638264 0.557172 0.127705
C25   C     C_R   0.457121 0.960755 0.658863 -0.134361
C26   C     C_R   0.487680 0.003897 0.866795 -0.042342
C27   C     C_R   0.000005 0.499389 0.866005 0.060521
C28   C     C_R   0.497706 0.998242 0.134365 0.004908
C29   C     C_R   0.000129 0.500493 0.134428 0.030629
C30   C     C_R   0.001576 0.503212 0.366560 0.019156
C31   C     C_R   0.500907 0.995052 0.366228 0.048087
C32   C     C_R   0.993849 0.498924 0.633955 0.061350
C33   C     C_R   0.498761 0.999067 0.634923 -0.020463
C34   C     C_R   0.455700 0.957376 0.798557 0.009008
C35   C     C_R   0.610518 0.726037 0.408294 0.177882
C36   C     C_R   0.955501 0.460299 0.798234 0.007914
C37   C     C_R   0.519952 0.051936 0.796417 -0.003755
C38   C     C_R   0.043206 0.534564 0.795081 0.023372
C39   C     C_R   0.517078 0.050644 0.203092 -0.014861
C40   C     C_R   0.949444 0.522534 0.203729 0.010282
C41   C     C_R   0.473960 0.945453 0.204797 0.041321
C42   C     C_R   0.054273 0.485865 0.204143 0.006735
C43   C     C_R   0.950808 0.526005 0.297026 0.009319
C44   C     C_R   0.528428 0.044369 0.295750 0.017241
C45   C     C_R   0.054112 0.485071 0.297598 -0.007377
C46   C     C_R   0.278486 0.575786 0.396261 0.220107
C47   C     C_R   0.469251 0.946879 0.298109 0.026504
C48   C     C_R   0.956093 0.457081 0.704808 0.021156
C49   C     C_R   0.456990 0.958102 0.705304 -0.000249
C50   C     C_R   0.035779 0.539252 0.702018 0.012299
C51   C     C_R   0.531785 0.044507 0.703925 0.000879
C52   C     C_R   0.489220 0.004020 0.774218 -0.025364
C53   C     C_R   0.998606 0.497448 0.773342 -0.009104
C54   C     C_R   0.496155 0.997478 0.227198 -0.021471
C55   C     C_R   0.002065 0.504666 0.227306 -0.019316
C56   C     C_R   0.002370 0.505366 0.273916 -0.013277
C57   C     C_R   0.397988 0.285216 0.405370 0.186388
C58   C     C_R   0.497761 0.996282 0.273636 -0.026715
C59   C     C_R   0.996905 0.497804 0.726782 -0.022438
C60   C     C_R   0.492484 0.002381 0.727857 -0.009838
C61   C     C_R   0.423261 0.910974 0.776189 0.168597
C62   C     C_R   0.913212 0.421074 0.776228 0.148791
C63   C     C_R   0.555717 0.096973 0.772403 0.162426
C64   C     C_R   0.084700 0.573125 0.769941 0.155766
C65   C     C_R   0.543170 0.101010 0.225657 0.139912
C66   C     C_R   0.898381 0.543736 0.226694 0.171605
C67   C     C_R   0.447592 0.894781 0.229046 0.152059
C68   C     C_R   0.718856 0.342812 0.449664 0.177655
C69   C     C_R   0.106798 0.468226 0.227840 0.171563
C70   C     C_R   0.899021 0.545570 0.273297 0.152854
C71   C     C_R   0.551768 0.096303 0.271761 0.162568
C72   C     C_R   0.106546 0.467390 0.274374 0.163928
C73   C     C_R   0.443037 0.896522 0.275850 0.154160
C74   C     C_R   0.915092 0.418042 0.729616 0.169546
C75   C     C_R   0.422792 0.912011 0.729629 0.148234
C76   C     C_R   0.079415 0.576977 0.723512 0.158178
C77   C     C_R   0.563258 0.092164 0.726228 0.140064
C78   C     C_R   0.603656 0.193868 0.542724 0.015140
C79   C     C_R   0.135497 0.791247 0.067680 0.123176
C80   C     C_R   0.192975 0.466665 0.588944 0.007365
C81   C     C_R   0.409496 0.798352 0.558434 -0.000062
C82   C     C_R   0.805058 0.567672 0.563956 0.013110
C83   C     C_R   0.579817 0.816509 0.442120 0.022471
C84   C     C_R   0.206769 0.593751 0.456077 -0.001490
C85   C     C_R   0.453149 0.194608 0.423135 0.009501
C86   C     C_R   0.811186 0.406536 0.450431 0.020419
C87   C     C_R   0.070111 0.698396 0.068123 0.004133
C88   C     C_R   0.697794 0.036228 0.076991 -0.007093
C89   C     C_R   0.969673 0.302990 0.079495 0.002379
C90   C     C_R   0.771869 0.979132 0.119920 0.125641
C91   C     C_R   0.305800 0.041322 0.081838 0.004663
C92   C     C_R   0.066998 0.313417 0.932142 0.013512
C93   C     C_R   0.690440 0.981076 0.915739 -0.001647
C94   C     C_R   0.941937 0.685436 0.931364 0.037605
C95   C     C_R   0.294005 0.909779 0.953462 0.026374
C96   C     C_R   0.657643 0.230594 0.547148 0.178590
C97   C     C_R   0.229303 0.451934 0.625885 0.179393
C98   C     C_R   0.361186 0.760176 0.576993 0.169400
C99   C     C_R   0.774901 0.619497 0.578843 0.182552
C100  C     C_R   0.627387 0.783608 0.424206 0.171726
C101  C     C_R   0.897364 0.219591 0.099794 0.130565
C102  C     C_R   0.235161 0.612437 0.415482 0.131330
C103  C     C_R   0.419188 0.229743 0.392683 0.184305
C104  C     C_R   0.782692 0.348303 0.446858 0.180702
C105  C     C_R   0.117610 0.734797 0.087554 0.182928
C106  C     C_R   0.724102 0.020002 0.118498 0.179058
C107  C     C_R   0.926263 0.275518 0.109572 0.194087
C108  C     C_R   0.279696 0.087487 0.107022 0.193034
C109  C     C_R   0.108244 0.278058 0.909145 0.194955
C110  C     C_R   0.726649 0.964784 0.879218 0.142243
C111  C     C_R   0.884276 0.700972 0.915678 0.190725
C112  C     C_R   0.119039 0.501498 0.503648 0.535524
C113  C     C_R   0.226757 0.115519 0.092166 0.127057
C114  C     C_R   0.268024 0.896396 0.912000 0.133882
C115  C     C_3   0.424463 0.815308 0.819468 -0.317753
C116  C     C_3   0.813343 0.409489 0.810993 -0.312641
C117  C     C_3   0.552309 0.194840 0.807685 -0.300078
C118  C     C_3   0.186605 0.581419 0.800533 -0.322118
C119  C     C_3   0.522284 0.200484 0.194121 -0.311584
C120  C     C_3   0.850339 0.621250 0.180418 -0.314314
C121  C     C_3   0.362850 0.847177 0.188154 -0.291942
C122  C     C_3   0.203880 0.500696 0.194490 -0.297529
C123  C     C_3   0.848663 0.629939 0.305436 -0.309086
C124  C     C_R   0.086598 0.219796 0.897413 0.160906
C125  C     C_3   0.648720 0.137652 0.297241 -0.313185
C126  C     C_3   0.164756 0.385573 0.305879 -0.273865
C127  C     C_3   0.349437 0.855865 0.310547 -0.309824
C128  C     C_3   0.901603 0.317673 0.700128 -0.307324
C129  C     C_3   0.429384 0.814054 0.696258 -0.312388
C130  C     C_3   0.094739 0.678096 0.691016 -0.290383
C131  C     C_3   0.570362 0.184961 0.680499 -0.291024
C132  C     C_3   0.346563 0.186547 0.339835 -0.245403
C133  C     C_3   0.262940 0.719493 0.404478 -0.272768
C134  C     C_3   0.713200 0.848214 0.448517 -0.275087
C135  C     C_R   0.789103 0.981293 0.879178 0.131562
C136  C     C_3   0.862579 0.280948 0.469668 -0.276060
C137  C     C_3   0.260682 0.798667 0.590883 -0.252732
C138  C     C_3   0.191828 0.398941 0.694149 -0.228077
C139  C     C_3   0.732444 0.166558 0.513316 -0.268748
C140  C     C_3   0.838652 0.704295 0.603945 -0.249460
C141  C     C_3   0.824075 0.607210 0.907997 -0.264154
C142  C     C_3   0.685470 0.981557 0.805002 -0.277124
C143  C     C_3   0.203334 0.334992 0.923716 -0.269588
C144  C     C_3   0.240732 0.790565 0.901525 -0.290994
C145  C     C_3   0.875364 0.359452 0.142485 -0.250479
C146  C     C_R   0.859730 0.755212 0.929179 0.136081
C147  C     C_3   0.661859 0.004666 0.184852 -0.259477
C148  C     C_3   0.205054 0.686399 0.120533 -0.256146
C149  C     C_3   0.363587 0.143995 0.141572 -0.262468
C150  C     C_2   0.597342 0.138168 0.571100 0.266232
C151  C     C_2   0.128952 0.473881 0.597736 0.241334
C152  C     C_2   0.418629 0.858732 0.576821 0.229210
C153  C     C_2   0.855287 0.541623 0.590344 0.242236
C154  C     C_2   0.562174 0.869661 0.414910 0.286768
C155  C     C_2   0.173577 0.639895 0.481070 0.249543
C156  C     C_2   0.472803 0.135887 0.408272 0.237758
C157  C     C_R   0.226608 0.936374 0.892298 0.188426
C158  C     C_2   0.860677 0.427108 0.418778 0.263520
C159  C     C_2   0.048105 0.640938 0.090681 0.236591
C160  C     C_2   0.658480 0.089255 0.072342 0.237196
C161  C     C_2   0.018817 0.345881 0.095671 0.201029
C162  C     C_2   0.349028 0.998402 0.102808 0.200430
C163  C     C_2   0.050549 0.370707 0.909808 0.268757
C164  C     C_2   0.630432 0.001686 0.904498 0.238003
C165  C     C_2   0.981062 0.646306 0.904841 0.245496
C166  C     C_2   0.328200 0.861548 0.976903 0.264528
C167  C     C_3   0.724814 0.320844 0.612403 -0.285737
C168  C     C_R   0.591407 0.315439 0.552477 0.006202
C169  C     C_3   0.361387 0.465649 0.674536 -0.316321
C170  C     C_3   0.325188 0.615205 0.612891 -0.305387
C171  C     C_3   0.649125 0.688716 0.602184 -0.294865
C172  C     C_3   0.643228 0.726713 0.331212 -0.294986
C173  C     C_3   0.269838 0.585568 0.315907 -0.274885
C174  C     C_3   0.404426 0.357281 0.343470 -0.263913
C175  C     C_3   0.690394 0.264343 0.396327 -0.273237
C176  C     C_3   0.175488 0.870819 0.114440 -0.297458
C177  C     C_3   0.837904 0.993539 0.183321 -0.311650
C178  C     C_3   0.873027 0.161225 0.167188 -0.304252
C179  C     C_R   0.311681 0.432236 0.575960 0.035460
C180  C     C_3   0.163082 0.146867 0.152337 -0.300415
C181  C     C_3   0.101514 0.214527 0.817820 -0.284937
C182  C     C_3   0.882073 0.948386 0.843927 -0.294663
C183  C     C_3   0.789948 0.800584 0.875454 -0.305709
C184  C     C_3   0.245737 0.958053 0.814274 -0.296465
C185  C     C_2   0.571887 0.352639 0.589878 0.263913
C186  C     C_2   0.360603 0.389265 0.569986 0.210374
C187  C     C_2   0.362686 0.632699 0.500777 0.232338
C188  C     C_2   0.647560 0.626998 0.495928 0.231914
C189  C     C_2   0.515830 0.661305 0.393141 0.276197
C190  C     C_R   0.389477 0.680062 0.529362 0.004181
C191  C     C_2   0.331520 0.476098 0.397310 0.241345
C192  C     C_2   0.371374 0.347890 0.468301 0.249775
C193  C     C_2   0.633408 0.403312 0.425369 0.259094
C194  C     C_2   0.129712 0.863745 0.003146 0.239822
C195  C     C_2   0.845636 0.914151 0.082783 0.264575
C196  C     C_2   0.878269 0.133266 0.050496 0.237362
C197  C     C_2   0.144745 0.130262 0.036150 0.225162
C198  C     C_2   0.986310 0.161282 0.893213 0.240700
C199  C     C_2   0.848058 0.069682 0.906477 0.265414
C200  C     C_2   0.874415 0.859046 0.955844 0.250522
C201  C     C_R   0.694747 0.601250 0.524869 0.009399
C202  C     C_2   0.167771 0.033390 0.897152 0.256543
C203  C     C_R   0.554673 0.697900 0.423888 0.048365
C204  C     C_R   0.498753 0.880858 0.501626 0.499254
C205  C     C_R   0.299162 0.524184 0.420419 0.058158
C206  C     C_R   0.413428 0.307155 0.447293 0.021837
C207  C     C_R   0.685865 0.395870 0.455676 -0.022993
C208  C     C_R   0.101137 0.815041 0.032257 0.003808
C209  C     C_R   0.799847 0.962283 0.080090 0.012094
C210  C     C_R   0.914277 0.188996 0.061299 0.006094
C211  C     C_R   0.196602 0.095185 0.053785 0.008284
C212  C     C_R   0.033610 0.194784 0.919304 0.046323
C213  C     C_R   0.812002 0.012111 0.915909 0.030163
C214  C     C_R   0.896532 0.797001 0.953810 0.016801
C215  C     C_R   0.881208 0.498526 0.500951 0.505325
C216  C     C_R   0.202213 0.982904 0.917973 0.052635
C217  C     C_R   0.546250 0.283726 0.526583 -0.072234
C218  C     C_R   0.281758 0.463437 0.540008 -0.012802
C219  C     C_R   0.443905 0.713432 0.516595 -0.013846
C220  C     C_R   0.719516 0.544173 0.515772 -0.001131
C221  C     C_R   0.527000 0.721418 0.462559 -0.098518
C222  C     C_R   0.278279 0.512607 0.464937 -0.065377
C223  C     C_R   0.461533 0.280731 0.472148 -0.015370
C224  C     C_R   0.716182 0.447246 0.476003 -0.093187
C225  C     C_R   0.045485 0.784467 0.020222 -0.007085
C226  C     C_R   0.001160 0.618673 0.001699 0.516745
C227  C     C_R   0.778640 0.987088 0.038849 -0.003140
C228  C     C_R   0.958130 0.216914 0.030916 -0.013518
C229  C     C_R   0.220889 0.046700 0.029981 -0.019598
C230  C     C_R   0.015349 0.220455 0.959993 -0.056027
C231  C     C_R   0.782174 0.001560 0.957666 0.034218
C232  C     C_R   0.952795 0.777608 0.973703 -0.049098
C233  C     C_R   0.221137 0.988098 0.962798 -0.081878
C234  C     C_R   0.551257 0.220091 0.522972 -0.094527
C235  C     C_R   0.218956 0.476822 0.545796 -0.046284
C236  C     C_R   0.450128 0.776289 0.525378 -0.063135
C237  C     C_R   0.618751 0.001319 0.000065 0.581242
C238  C     C_R   0.780465 0.535219 0.527288 -0.071042
C239  C     C_R   0.534404 0.784518 0.468985 -0.094583
C240  C     C_R   0.222674 0.537383 0.476733 -0.038712
C241  C     C_R   0.473338 0.219326 0.464364 -0.042471
C242  C     C_R   0.781106 0.450000 0.475802 -0.073332
C243  C     C_R   0.038935 0.721631 0.030140 -0.074168
C244  C     C_R   0.719863 0.010116 0.037850 -0.088231
C245  C     C_R   0.974963 0.278988 0.036418 -0.070531
C246  C     C_R   0.281272 0.028408 0.039391 -0.073756
C247  C     C_R   0.026339 0.283775 0.963750 -0.088918
C248  C     C_R   0.999522 0.381210 0.000258 0.512471
C249  C     C_R   0.718126 0.994827 0.957239 -0.000609
C250  C     C_R   0.966750 0.716000 0.968211 -0.068397
C251  C     C_R   0.276901 0.963129 0.975075 -0.034390
C252  C     C_R   0.499286 0.313796 0.502660 0.023581
C253  C     C_R   0.312559 0.483738 0.499716 -0.021772
C254  C     C_R   0.489764 0.685472 0.492640 0.006151
C255  C     C_R   0.685404 0.495821 0.496085 0.026766
C256  C     C_R   0.996289 0.813867 0.998674 0.038295
C257  C     C_R   0.813535 0.994453 0.998942 0.094753
C258  C     C_R   0.985629 0.185804 0.995452 0.030042
C259  C     C_R   0.380688 0.998099 0.002861 0.518935
C260  C     C_R   0.187724 0.017952 0.995710 -0.008227
C261  C     C_R   0.507837 0.186634 0.496569 -0.019216
C262  C     C_R   0.187211 0.506456 0.510121 0.025152
C263  C     C_R   0.495456 0.813117 0.500049 -0.023422
C264  C     C_R   0.813580 0.494255 0.501627 -0.027106
C265  C     C_R   0.003135 0.686057 0.000307 -0.027451
C266  C     C_R   0.686118 0.005125 0.997690 0.004764
C267  C     C_R   0.000035 0.313931 0.999899 -0.020844
C268  C     C_R   0.312094 0.992481 0.008250 0.008168
C269  C     C_R   0.380779 0.493718 0.499964 0.505398
C270  C     C_R   0.650766 0.292699 0.554849 0.140167
C271  C     C_R   0.497953 0.618870 0.498496 0.575256
C272  C     C_R   0.618362 0.495145 0.499416 0.582113
C273  C     C_R   0.500555 0.381075 0.500781 0.526931
C274  C     C_R   0.880974 0.997204 0.999955 0.619189
C275  C     C_R   0.994141 0.118632 0.998980 0.608358
C276  C     C_R   0.119229 0.007380 0.999072 0.582672
C277  C     C_R   0.995076 0.881033 0.000075 0.580347
C278  C     C_R   0.499771 0.999486 0.585912 0.520059
C279  C     C_R   0.994913 0.499243 0.585368 0.555129
C280  C     C_R   0.500129 0.997305 0.414570 0.550483
Cu1   Cu    Cu3+1 0.438180 1.000000 0.500000 1.040771
Cu2   Cu    Cu3+1 0.500000 0.500000 0.544440 0.920603
Cu3   Cu    Cu3+1 1.000000 1.000000 0.955560 1.047579
Cu4   Cu    Cu3+1 1.000000 1.000000 0.044440 0.897937
Cu5   Cu    Cu3+1 0.000000 0.561820 0.500000 0.956541
Cu6   Cu    Cu3+1 0.561820 1.000000 0.500000 0.958085
Cu7   Cu    Cu3+1 1.000000 0.438180 0.500000 0.977815
Cu8   Cu    Cu3+1 0.938180 0.500000 0.000000 0.898078
Cu9   Cu    Cu3+1 0.500000 0.061820 0.000000 0.992655
Cu10  Cu    Cu3+1 0.061820 0.500000 0.000000 0.948942
Cu11  Cu    Cu3+1 0.500000 0.938180 0.000000 0.954166
Cu12  Cu    Cu3+1 0.500000 0.500000 0.455560 1.052601
H1    H     H_    0.538864 0.088872 0.860341 0.210561
H2    H     H_    0.443139 0.914122 0.364331 0.127727
H3    H     H_    0.267183 0.838160 0.567235 0.176489
H4    H     H_    0.176961 0.490166 0.676037 0.252922
H5    H     H_    0.207513 0.359015 0.676060 0.176011
H6    H     H_    0.214377 0.399652 0.727030 0.145452
H7    H     H_    0.141501 0.393412 0.699337 0.162820
H8    H     H_    0.752392 0.232139 0.559175 0.263226
H9    H     H_    0.695863 0.131519 0.506652 0.187156
H10   H     H_    0.740971 0.195470 0.482993 0.171379
H11   H     H_    0.775030 0.142805 0.521417 0.134628
H12   H     H_    0.807657 0.628886 0.643501 0.282114
H13   H     H_    0.915378 0.544469 0.362361 0.102605
H14   H     H_    0.817418 0.736037 0.579739 0.159316
H15   H     H_    0.850367 0.729745 0.634211 0.135396
H16   H     H_    0.881401 0.687664 0.589366 0.181030
H17   H     H_    0.821529 0.682616 0.865092 0.266043
H18   H     H_    0.803053 0.577483 0.882600 0.131415
H19   H     H_    0.788018 0.619394 0.931887 0.131613
H20   H     H_    0.859479 0.581312 0.925774 0.195695
H21   H     H_    0.663545 0.908137 0.847880 0.228448
H22   H     H_    0.650451 0.013305 0.815632 0.156411
H23   H     H_    0.667126 0.956140 0.776356 0.140934
H24   H     H_    0.561042 0.074042 0.359145 0.134854
H25   H     H_    0.727062 0.008305 0.793746 0.172053
H26   H     H_    0.189397 0.276599 0.872063 0.266517
H27   H     H_    0.244856 0.355361 0.906751 0.131888
H28   H     H_    0.217733 0.301866 0.949823 0.139546
H29   H     H_    0.179054 0.372260 0.939389 0.188898
H30   H     H_    0.289600 0.847034 0.856972 0.281930
H31   H     H_    0.257168 0.749095 0.885910 0.127926
H32   H     H_    0.194129 0.799490 0.888900 0.188509
H33   H     H_    0.238396 0.781938 0.938003 0.167776
H34   H     H_    0.940963 0.305827 0.173763 0.286889
H35   H     H_    0.058558 0.574646 0.636400 0.149181
H36   H     H_    0.904622 0.395541 0.125474 0.177925
H37   H     H_    0.860812 0.376148 0.175121 0.144156
H38   H     H_    0.833816 0.350064 0.122298 0.155701
H39   H     H_    0.693641 0.089510 0.158372 0.275366
H40   H     H_    0.620593 0.993322 0.165069 0.165390
H41   H     H_    0.648429 0.027581 0.215488 0.137405
H42   H     H_    0.683571 0.961703 0.194896 0.179635
H43   H     H_    0.120126 0.695487 0.151522 0.271189
H44   H     H_    0.197212 0.643346 0.102679 0.177108
H45   H     H_    0.225913 0.675712 0.153209 0.121390
H46   H     H_    0.571795 0.065320 0.639956 0.164883
H47   H     H_    0.237840 0.716766 0.101165 0.175940
H48   H     H_    0.304917 0.078023 0.173599 0.285222
H49   H     H_    0.400276 0.115554 0.128921 0.173335
H50   H     H_    0.377722 0.161959 0.174140 0.130299
H51   H     H_    0.357352 0.183195 0.118125 0.151979
H52   H     H_    0.551781 0.121141 0.580471 0.086223
H53   H     H_    0.109172 0.516155 0.587799 0.102663
H54   H     H_    0.463987 0.873702 0.587419 0.074453
H55   H     H_    0.863027 0.493272 0.589148 0.083629
H56   H     H_    0.514679 0.881150 0.414637 0.073756
H57   H     H_    0.927488 0.424976 0.640401 0.134415
H58   H     H_    0.150502 0.676331 0.463980 0.096986
H59   H     H_    0.518663 0.121836 0.415355 0.090970
H60   H     H_    0.872524 0.475269 0.414984 0.089137
H61   H     H_    0.999852 0.627343 0.089731 0.094942
H62   H     H_    0.662675 0.118709 0.042850 0.146313
H63   H     H_    0.056899 0.360531 0.074402 0.133868
H64   H     H_    0.368059 0.962322 0.084192 0.142202
H65   H     H_    0.004173 0.385225 0.913195 0.084836
H66   H     H_    0.599199 0.971798 0.886942 0.098246
H67   H     H_    0.026112 0.634719 0.916428 0.092893
H68   H     H_    0.425658 0.932213 0.641401 0.165686
H69   H     H_    0.353467 0.829288 0.958245 0.124843
H70   H     H_    0.700200 0.375946 0.557973 0.285407
H71   H     H_    0.775321 0.317484 0.610939 0.133404
H72   H     H_    0.704622 0.278380 0.628485 0.155695
H73   H     H_    0.714251 0.359848 0.633302 0.180835
H74   H     H_    0.347471 0.377027 0.653632 0.254791
H75   H     H_    0.384983 0.449170 0.704852 0.141041
H76   H     H_    0.332385 0.503755 0.683669 0.163054
H77   H     H_    0.396433 0.482389 0.649725 0.124161
H78   H     H_    0.271482 0.648216 0.561523 0.282814
H79   H     H_    0.348684 0.849054 0.786337 0.271493
H80   H     H_    0.284823 0.591006 0.628834 0.149649
H81   H     H_    0.354459 0.634981 0.639296 0.155274
H82   H     H_    0.351344 0.581735 0.594437 0.145461
H83   H     H_    0.686373 0.722787 0.542272 0.234093
H84   H     H_    0.634618 0.734716 0.610863 0.139402
H85   H     H_    0.666299 0.665682 0.632697 0.175160
H86   H     H_    0.608771 0.662225 0.589571 0.136089
H87   H     H_    0.645857 0.652485 0.375761 0.326657
H88   H     H_    0.675723 0.704977 0.308779 0.134950
H89   H     H_    0.655410 0.776242 0.331389 0.173286
H90   H     H_    0.407446 0.804008 0.853582 0.153415
H91   H     H_    0.596145 0.720128 0.318002 0.182834
H92   H     H_    0.352114 0.588782 0.351617 0.294973
H93   H     H_    0.292065 0.610004 0.286960 0.132635
H94   H     H_    0.223058 0.602672 0.319845 0.158947
H95   H     H_    0.266457 0.536242 0.309126 0.186712
H96   H     H_    0.328636 0.343322 0.385377 0.280977
H97   H     H_    0.375875 0.379341 0.317766 0.182286
H98   H     H_    0.437149 0.328409 0.326370 0.164491
H99   H     H_    0.430566 0.392892 0.361767 0.173647
H100  H     H_    0.646777 0.277296 0.457305 0.282936
H101  H     H_    0.474100 0.828409 0.821266 0.147269
H102  H     H_    0.709828 0.218484 0.396730 0.135680
H103  H     H_    0.718923 0.295415 0.374113 0.150433
H104  H     H_    0.643410 0.260788 0.382444 0.164969
H105  H     H_    0.220385 0.836697 0.060059 0.276684
H106  H     H_    0.219241 0.890783 0.127217 0.152057
H107  H     H_    0.147977 0.851650 0.143038 0.166590
H108  H     H_    0.150157 0.907526 0.097436 0.142436
H109  H     H_    0.800758 0.910171 0.163072 0.237673
H110  H     H_    0.850252 0.971825 0.215593 0.137763
H111  H     H_    0.819835 0.038768 0.189947 0.176217
H112  H     H_    0.079141 0.558750 0.859404 0.117155
H113  H     H_    0.418678 0.774016 0.799320 0.138712
H114  H     H_    0.879716 0.999210 0.162232 0.111841
H115  H     H_    0.813640 0.173526 0.114244 0.246190
H116  H     H_    0.834160 0.148093 0.189804 0.141087
H117  H     H_    0.906724 0.189517 0.185867 0.169493
H118  H     H_    0.895104 0.119500 0.156347 0.110082
H119  H     H_    0.190043 0.201112 0.097335 0.241068
H120  H     H_    0.150918 0.187680 0.170775 0.148469
H121  H     H_    0.184945 0.114581 0.175822 0.165390
H122  H     H_    0.120472 0.124969 0.139135 0.119171
H123  H     H_    0.110547 0.143067 0.863865 0.321171
H124  H     H_    0.888725 0.357833 0.826608 0.246481
H125  H     H_    0.127884 0.190281 0.792761 0.152334
H126  H     H_    0.114990 0.263745 0.814931 0.158846
H127  H     H_    0.051952 0.208611 0.810365 0.181878
H128  H     H_    0.828133 0.018478 0.821560 0.237858
H129  H     H_    0.903206 0.944492 0.810640 0.154691
H130  H     H_    0.874942 0.901916 0.858731 0.140171
H131  H     H_    0.914236 0.975113 0.864922 0.142108
H132  H     H_    0.769465 0.778627 0.942332 0.300942
H133  H     H_    0.748977 0.781110 0.858525 0.148061
H134  H     H_    0.830181 0.797506 0.853031 0.145520
H135  H     H_    0.821216 0.447005 0.834431 0.142821
H136  H     H_    0.782254 0.849014 0.881937 0.190942
H137  H     H_    0.161501 0.927204 0.842152 0.305065
H138  H     H_    0.231536 0.942867 0.780949 0.148212
H139  H     H_    0.294679 0.947827 0.819025 0.154712
H140  H     H_    0.240805 0.008028 0.815756 0.180907
H141  H     H_    0.526061 0.345107 0.603617 0.105070
H142  H     H_    0.406715 0.401429 0.580097 0.135172
H143  H     H_    0.328395 0.600575 0.514034 0.112435
H144  H     H_    0.617154 0.660320 0.508123 0.090622
H145  H     H_    0.466404 0.659797 0.397381 0.148094
H146  H     H_    0.781323 0.374561 0.826666 0.148386
H147  H     H_    0.343623 0.435803 0.415582 0.135047
H148  H     H_    0.388767 0.383486 0.488254 0.121144
H149  H     H_    0.631140 0.444671 0.405015 0.138390
H150  H     H_    0.162954 0.895978 0.016360 0.104743
H151  H     H_    0.878116 0.912871 0.109848 0.093735
H152  H     H_    0.867518 0.098421 0.075919 0.103914
H153  H     H_    0.112239 0.149426 0.058556 0.113480
H154  H     H_    0.938554 0.167089 0.900913 0.146588
H155  H     H_    0.879509 0.073817 0.878573 0.111659
H156  H     H_    0.899512 0.895995 0.939043 0.124488
H157  H     H_    0.791668 0.427883 0.780443 0.152868
H158  H     H_    0.165683 0.076193 0.914029 0.141203
H159  H     H_    0.630286 0.157708 0.781838 0.280589
H160  H     H_    0.578408 0.222716 0.831820 0.153532
H161  H     H_    0.508200 0.178915 0.823390 0.146992
H162  H     H_    0.542689 0.224111 0.778210 0.137778
H163  H     H_    0.114191 0.636144 0.816259 0.254245
H164  H     H_    0.432160 0.921980 0.864603 0.157033
H165  H     H_    0.178789 0.544424 0.826093 0.155627
H166  H     H_    0.220681 0.615366 0.813276 0.139537
H167  H     H_    0.205718 0.561917 0.770111 0.153339
H168  H     H_    0.594198 0.146898 0.175595 0.285706
H169  H     H_    0.488649 0.184975 0.169020 0.129596
H170  H     H_    0.546249 0.242977 0.181274 0.153225
H171  H     H_    0.497746 0.210770 0.225201 0.149605
H172  H     H_    0.803778 0.552594 0.218370 0.280791
H173  H     H_    0.831766 0.617369 0.146392 0.152834
H174  H     H_    0.898646 0.639179 0.177864 0.147186
H175  H     H_    0.921940 0.438022 0.864793 0.111854
H176  H     H_    0.823141 0.654316 0.198436 0.139150
H177  H     H_    0.434663 0.800809 0.218505 0.248050
H178  H     H_    0.363846 0.837275 0.152298 0.169221
H179  H     H_    0.344526 0.893182 0.192056 0.191891
H180  H     H_    0.331373 0.813052 0.205308 0.126918
H181  H     H_    0.153888 0.420398 0.180634 0.250372
H182  H     H_    0.183616 0.532633 0.169920 0.150471
H183  H     H_    0.245940 0.482583 0.179945 0.141917
H184  H     H_    0.216930 0.525731 0.224721 0.163630
H185  H     H_    0.830702 0.537974 0.321771 0.249387
H186  H     H_    0.465784 0.904787 0.140490 0.163833
H187  H     H_    0.803836 0.642461 0.319213 0.150543
H188  H     H_    0.858170 0.658113 0.274827 0.158688
H189  H     H_    0.884889 0.640118 0.330156 0.137922
H190  H     H_    0.572250 0.187527 0.283688 0.272328
H191  H     H_    0.669250 0.174607 0.317388 0.130486
H192  H     H_    0.669899 0.140584 0.263612 0.164155
H193  H     H_    0.658887 0.093215 0.313542 0.153715
H194  H     H_    0.172711 0.476452 0.323684 0.234822
H195  H     H_    0.209738 0.376446 0.321163 0.155766
H196  H     H_    0.161092 0.360427 0.274529 0.176256
H197  H     H_    0.092721 0.473719 0.138986 0.150326
H198  H     H_    0.127733 0.368784 0.329086 0.140009
H199  H     H_    0.421730 0.804456 0.290413 0.252874
H200  H     H_    0.331586 0.817948 0.332763 0.136914
H201  H     H_    0.322316 0.856088 0.279534 0.148407
H202  H     H_    0.343598 0.899395 0.327557 0.156647
H203  H     H_    0.831590 0.371252 0.720435 0.272022
H204  H     H_    0.869512 0.289212 0.680232 0.136196
H205  H     H_    0.909719 0.293511 0.732345 0.164477
H206  H     H_    0.945567 0.323968 0.681554 0.160867
H207  H     H_    0.361208 0.876933 0.683972 0.247462
H208  H     H_    0.522695 0.093171 0.138006 0.187560
H209  H     H_    0.400099 0.773858 0.687391 0.148325
H210  H     H_    0.458574 0.800297 0.724582 0.159452
H211  H     H_    0.459280 0.828043 0.667569 0.123920
H212  H     H_    0.163717 0.620257 0.708485 0.272271
H213  H     H_    0.126038 0.705868 0.668600 0.148758
H214  H     H_    0.090997 0.701410 0.723054 0.165540
H215  H     H_    0.048917 0.674584 0.675243 0.160156
H216  H     H_    0.635211 0.117965 0.683533 0.270332
H217  H     H_    0.604395 0.218119 0.665010 0.147673
H218  H     H_    0.542233 0.209243 0.704343 0.153253
H219  H     H_    0.908187 0.529523 0.138834 0.155749
H220  H     H_    0.539862 0.166922 0.654253 0.129224
H221  H     H_    0.442195 0.188437 0.333172 0.270450
H222  H     H_    0.311797 0.220081 0.347670 0.172143
H223  H     H_    0.342331 0.175842 0.304202 0.128602
H224  H     H_    0.336884 0.144202 0.360082 0.190921
H225  H     H_    0.176296 0.679162 0.393344 0.225641
H226  H     H_    0.250705 0.760558 0.384654 0.121523
H227  H     H_    0.311020 0.709180 0.396432 0.202651
H228  H     H_    0.259317 0.729448 0.440280 0.143159
H229  H     H_    0.716743 0.785458 0.398917 0.266468
H230  H     H_    0.088668 0.463965 0.363515 0.114402
H231  H     H_    0.683241 0.885367 0.457961 0.192538
H232  H     H_    0.721704 0.818392 0.478090 0.122057
H233  H     H_    0.757572 0.869372 0.436663 0.133576
H234  H     H_    0.830258 0.293419 0.404883 0.282837
H235  H     H_    0.842010 0.276929 0.503465 0.145459
H236  H     H_    0.881611 0.236484 0.461722 0.129577
H237  H     H_    0.900459 0.316269 0.469110 0.185609
H238  H     H_    0.336768 0.811892 0.630822 0.262204
H239  H     H_    0.230223 0.811601 0.618321 0.131468
H240  H     H_    0.237786 0.760203 0.573549 0.180944
N1    N     N_2   0.389274 0.864006 0.800464 -0.531529
N2    N     N_2   0.583277 0.144321 0.294236 -0.528604
N3    N     N_2   0.160631 0.450301 0.297070 -0.502068
N4    N     N_2   0.413402 0.847521 0.300846 -0.528772
N5    N     N_2   0.875328 0.375866 0.707497 -0.528405
N6    N     N_2   0.391210 0.863412 0.708175 -0.529010
N7    N     N_2   0.118790 0.618292 0.698176 -0.529212
N8    N     N_2   0.601923 0.136227 0.702814 -0.528938
N9    N     N_2   0.407797 0.211127 0.348299 -0.490947
N10   N     N_2   0.221854 0.668810 0.393717 -0.518934
N11   N     N_2   0.685646 0.812671 0.413606 -0.468846
N12   N     N_2   0.870428 0.381972 0.800365 -0.526454
N13   N     N_2   0.816399 0.296121 0.437440 -0.492766
N14   N     N_2   0.319029 0.781312 0.608816 -0.478086
N15   N     N_2   0.206566 0.455880 0.670218 -0.493231
N16   N     N_2   0.716224 0.203858 0.550038 -0.457811
N17   N     N_2   0.796424 0.653758 0.615424 -0.474525
N18   N     N_2   0.851128 0.661704 0.886601 -0.447969
N19   N     N_2   0.699460 0.938868 0.840758 -0.507912
N20   N     N_2   0.164671 0.304380 0.891705 -0.464979
N21   N     N_2   0.282441 0.841753 0.890655 -0.546845
N22   N     N_2   0.908575 0.304343 0.149069 -0.472056
N23   N     N_2   0.588288 0.144064 0.795310 -0.508594
N24   N     N_2   0.703986 0.044233 0.159135 -0.494373
N25   N     N_2   0.147859 0.715952 0.127172 -0.477341
N26   N     N_2   0.306732 0.108476 0.146940 -0.468236
N27   N     N_2   0.701742 0.330704 0.567819 -0.505421
N28   N     N_2   0.324027 0.416420 0.656779 -0.504676
N29   N     N_2   0.304757 0.662943 0.583131 -0.499221
N30   N     N_2   0.696898 0.694471 0.568784 -0.510897
N31   N     N_2   0.647201 0.699399 0.375382 -0.494457
N32   N     N_2   0.306100 0.596183 0.355183 -0.465192
N33   N     N_2   0.365466 0.320827 0.373775 -0.512078
N34   N     N_2   0.130052 0.610914 0.790665 -0.527363
N35   N     N_2   0.688160 0.285760 0.441299 -0.484671
N36   N     N_2   0.188336 0.823392 0.083951 -0.509163
N37   N     N_2   0.791781 0.955866 0.161883 -0.515405
N38   N     N_2   0.850612 0.195023 0.129172 -0.494918
N39   N     N_2   0.204740 0.164929 0.116445 -0.499549
N40   N     N_2   0.114489 0.189854 0.861735 -0.510665
N41   N     N_2   0.824232 0.977759 0.839445 -0.508721
N42   N     N_2   0.798325 0.767421 0.916999 -0.520347
N43   N     N_2   0.207901 0.926412 0.847857 -0.504008
N44   N     N_2   0.566590 0.154480 0.202447 -0.528082
N45   N     N_2   0.845466 0.561999 0.202936 -0.522502
N46   N     N_2   0.424072 0.843189 0.206004 -0.538693
N47   N     N_2   0.160798 0.450787 0.205668 -0.497612
N48   N     N_2   0.846303 0.565849 0.295652 -0.525835
O1    O     O_R   0.447800 0.090110 0.500010 -0.482264
O2    O     O_R   0.590110 0.052200 0.000010 -0.471824
O3    O     O_R   0.052200 0.409890 0.000010 -0.530573
O4    O     O_R   0.409890 0.947800 0.000010 -0.491260
O5    O     O_R   0.947800 0.409890 0.999990 -0.502770
O6    O     O_R   0.590110 0.947800 0.999990 -0.509922
O7    O     O_R   0.052200 0.590110 0.999990 -0.502210
O8    O     O_R   0.409890 0.052200 0.999990 -0.517890
O9    O     O_R   0.447790 0.999910 0.564880 -0.468070
O10   O     O_R   0.999910 0.552210 0.564880 -0.495844
O11   O     O_R   0.552210 0.000090 0.564880 -0.496875
O12   O     O_R   0.090110 0.552200 0.500010 -0.488750
O13   O     O_R   0.000090 0.447790 0.564880 -0.487416
O14   O     O_R   0.447790 0.000090 0.435120 -0.476428
O15   O     O_R   0.999910 0.447790 0.435120 -0.477090
O16   O     O_R   0.552210 0.999910 0.435120 -0.505029
O17   O     O_R   0.000090 0.552210 0.435120 -0.529641
O18   O     O_R   0.947790 0.499910 0.064880 -0.534524
O19   O     O_R   0.499910 0.052210 0.064880 -0.499355
O20   O     O_R   0.052210 0.500090 0.064880 -0.484274
O21   O     O_R   0.500090 0.947790 0.064880 -0.523335
O22   O     O_R   0.947790 0.500090 0.935120 -0.529808
O23   O     O_R   0.552200 0.909890 0.500010 -0.523070
O24   O     O_R   0.499910 0.947790 0.935120 -0.534601
O25   O     O_R   0.052210 0.499910 0.935120 -0.494118
O26   O     O_R   0.500090 0.052210 0.935120 -0.474947
O27   O     O_R   0.409850 0.499950 0.462440 -0.505939
O28   O     O_R   0.499950 0.590150 0.462440 -0.457071
O29   O     O_R   0.590150 0.500050 0.462440 -0.487077
O30   O     O_R   0.500050 0.409850 0.462440 -0.495243
O31   O     O_R   0.409850 0.500050 0.537560 -0.557771
O32   O     O_R   0.499950 0.409850 0.537560 -0.550393
O33   O     O_R   0.590150 0.499950 0.537560 -0.483313
O34   O     O_R   0.909890 0.447800 0.500010 -0.529056
O35   O     O_R   0.500050 0.590150 0.537560 -0.532167
O36   O     O_R   0.909850 0.999950 0.962440 -0.546343
O37   O     O_R   0.999950 0.090150 0.962440 -0.478174
O38   O     O_R   0.090150 0.000050 0.962440 -0.461014
O39   O     O_R   0.000050 0.909850 0.962440 -0.507206
O40   O     O_R   0.909850 0.000050 0.037560 -0.537328
O41   O     O_R   0.999950 0.909850 0.037560 -0.512749
O42   O     O_R   0.090150 0.999950 0.037560 -0.535472
O43   O     O_R   0.000050 0.090150 0.037560 -0.541158
O44   O     O_2   0.641896 0.111646 0.584705 -0.508533
O45   O     O_R   0.447800 0.909890 0.499990 -0.485731
O46   O     O_2   0.099288 0.432871 0.617151 -0.507709
O47   O     O_2   0.376219 0.893208 0.577830 -0.516263
O48   O     O_2   0.888442 0.573186 0.613510 -0.534939
O49   O     O_2   0.598984 0.898474 0.390974 -0.493272
O50   O     O_2   0.172972 0.638724 0.521571 -0.542165
O51   O     O_2   0.437318 0.102915 0.387946 -0.523111
O52   O     O_2   0.887015 0.391711 0.395644 -0.521849
O53   O     O_2   0.083369 0.608175 0.110292 -0.543118
O54   O     O_2   0.621119 0.100738 0.100547 -0.570284
O55   O     O_2   0.020776 0.361448 0.134082 -0.564927
O56   O     O_R   0.090110 0.447800 0.499990 -0.490401
O57   O     O_2   0.360512 0.999340 0.142280 -0.564407
O58   O     O_2   0.086401 0.399369 0.885060 -0.499913
O59   O     O_2   0.619163 0.054811 0.910077 -0.498524
O60   O     O_2   0.965367 0.630251 0.868062 -0.506676
O61   O     O_2   0.326567 0.855935 0.017316 -0.542840
O62   O     O_2   0.605639 0.392009 0.605483 -0.519440
O63   O     O_2   0.347536 0.336637 0.560826 -0.490733
O64   O     O_2   0.375220 0.632173 0.461305 -0.538260
O65   O     O_2   0.644730 0.613366 0.457096 -0.511412
O66   O     O_2   0.537542 0.632153 0.363542 -0.526957
O67   O     O_R   0.552200 0.090110 0.499990 -0.531406
O68   O     O_2   0.343271 0.479522 0.357737 -0.568024
O69   O     O_2   0.315923 0.339628 0.465257 -0.499945
O70   O     O_2   0.594915 0.362382 0.420136 -0.523532
O71   O     O_2   0.119503 0.865669 0.963365 -0.503232
O72   O     O_2   0.846386 0.874281 0.055682 -0.467948
O73   O     O_2   0.856811 0.127896 0.013614 -0.473216
O74   O     O_2   0.139530 0.140408 0.996337 -0.542433
O75   O     O_2   0.999491 0.126854 0.863973 -0.530266
O76   O     O_2   0.840074 0.114391 0.928381 -0.465817
O77   O     O_2   0.823990 0.867973 0.971185 -0.497108
O78   O     O_R   0.909890 0.552200 0.499990 -0.501361
O79   O     O_2   0.140620 0.028128 0.862148 -0.529295
O80   O     O_R   0.947800 0.590110 0.000010 -0.520625

loop_
_geom_bond_atom_site_label_1
_geom_bond_atom_site_label_2
_ccdc_geom_bond_type
C175  H104  S    
C101  C107  A    
C46   C205  A    
C126  H196  S    
C166  O61   D    
C269  O31   A    
H92   N32   S    
C219  C254  A    
C67   N46   S    
C8    C26   A    
Cu9   O8    S    
C120  N45   S    
C18   C47   A    
C115  H113  S    
C41   C67   A    
C83   C154  S    
C189  C203  S    
C259  O8    A    
C12   H186  S    
C277  O39   A    
C49   C60   A    
C226  O80   A    
C276  O42   A    
C50   C59   A    
C195  C209  S    
C118  N34   S    
H207  N6    S    
C92   C109  A    
C8    H1    S    
C220  C255  A    
C94   C111  A    
C158  O52   D    
C145  H36   S    
C70   N48   S    
H190  N2    S    
C153  O48   D    
C104  N13   S    
C143  H27   S    
C146  N42   S    
C139  H10   S    
C36   C53   A    
C173  N32   S    
C234  C261  A    
C45   C56   A    
C78   C96   A    
Cu6   O23   S    
C10   H164  S    
H115  N38   S    
C270  N27   S    
C217  C252  A    
H96   N33   S    
C128  H204  S    
C215  O34   A    
C211  C229  A    
C117  N23   S    
C63   N23   S    
C85   C103  A    
C93   C110  A    
C33   C278  S    
C196  C210  S    
C280  O16   A    
C184  N43   S    
C241  C261  A    
C190  C219  A    
C216  C233  A    
C39   C65   A    
H163  N34   S    
C220  C238  A    
C141  N18   S    
C36   C62   A    
C144  N21   S    
C172  N31   S    
C37   C63   A    
C116  N12   S    
C38   C64   A    
Cu6   O16   S    
C154  H56   S    
C48   C74   A    
C272  O33   A    
C137  H3    S    
C175  N35   S    
C149  N26   S    
C180  H121  S    
C119  H170  S    
Cu12  O30   S    
C125  H191  S    
C34   C61   A    
C194  O71   D    
C200  O77   D    
C156  O51   D    
C108  C113  A    
C151  H53   S    
C171  N30   S    
C197  C211  S    
C50   C76   A    
C42   C55   A    
C188  H144  S    
C172  H91   S    
C256  C277  S    
C189  H145  S    
C118  H167  S    
C11   C27   A    
C171  H84   S    
C86   C242  A    
C141  H20   S    
C68   C207  A    
H221  N9    S    
C10   C26   A    
H34   N22   S    
C131  H218  S    
C132  H224  S    
C134  H233  S    
C185  H141  S    
C15   C39   A    
C127  H200  S    
C146  C214  A    
C115  H90   S    
C21   H35   S    
C13   N29   S    
Cu5   O78   S    
H100  N35   S    
Cu2   Cu12  S    
C237  O6    A    
C278  O11   A    
C235  C262  A    
C136  N13   S    
C172  H89   S    
C155  O50   D    
Cu6   O11   S    
C170  N29   S    
C192  H148  S    
C95   C166  S    
C178  H116  S    
H17   N18   S    
C152  O47   D    
Cu1   Cu6   S    
C161  O55   D    
C103  N9    S    
C11   H175  S    
C210  C228  A    
C215  C264  S    
Cu8   O22   S    
C243  C265  A    
C250  C265  A    
C240  C262  A    
H123  N40   S    
C147  H42   S    
C157  N43   S    
C127  H201  S    
C20   H24   S    
C273  O30   A    
Cu10  O7    S    
C154  O49   D    
C182  H131  S    
H78   N29   S    
Cu5   Cu7   S    
C65   C71   A    
Cu11  O24   S    
C171  H86   S    
C66   C70   A    
C38   C53   A    
C177  H114  S    
C223  C241  A    
C170  H80   S    
C131  N8    S    
C89   C245  A    
C129  H210  S    
C130  H214  S    
Cu4   O43   S    
C133  H226  S    
C71   N2    S    
H128  N41   S    
C5    O19   A    
C183  N42   S    
C66   N45   S    
C236  C263  A    
C54   C58   A    
C242  C264  A    
C135  N41   S    
C18   C31   A    
C184  H139  S    
C142  N19   S    
C19   C30   A    
H12   N17   S    
C169  H77   S    
C152  H54   S    
C223  C252  A    
C140  H14   S    
C170  H81   S    
C17   H230  S    
C18   H2    S    
Cu1   O45   S    
C80   C97   A    
C69   C72   A    
C84   C102  A    
C132  N9    S    
Cu3   O39   S    
Cu8   O18   S    
C166  H69   S    
C136  H236  S    
C179  C186  S    
C105  N25   S    
C23   C48   A    
C231  C257  A    
C7    C26   S    
C221  C239  A    
Cu11  O21   S    
C160  H62   S    
C218  C235  A    
H216  N8    S    
C191  C205  S    
Cu1   O14   S    
C228  C258  A    
C118  H165  S    
C191  H147  S    
C178  N38   S    
C160  O54   D    
C254  C271  S    
C120  H173  S    
C117  H161  S    
C159  O53   D    
H4    N15   S    
H87   N31   S    
C197  H153  S    
H39   N24   S    
C259  C268  S    
C52   C60   A    
C96   N16   S    
C176  H107  S    
C87   C159  S    
C199  O76   D    
C99   N17   S    
C107  N22   S    
C200  C214  S    
C49   C75   A    
C91   C162  S    
C109  N20   S    
C275  O43   A    
C174  H98   S    
C198  C212  S    
C126  N3    S    
C137  H240  S    
C139  H11   S    
C213  C231  A    
C247  C267  A    
C121  H178  S    
C6    O25   A    
C88   C160  S    
C259  O4    A    
C91   C246  A    
C117  H160  S    
C248  O5    A    
C239  C263  A    
C245  C267  A    
Cu4   O40   S    
C246  C268  A    
C94   C250  A    
C147  H40   S    
C20   C44   A    
C232  C250  A    
C255  C272  S    
C273  O32   A    
C62   N12   S    
C24   C201  A    
C182  H129  S    
C101  N38   S    
C183  H136  S    
C69   N47   S    
H132  N42   S    
C147  N24   S    
C111  C146  A    
C44   C58   A    
C227  C244  A    
C37   C52   A    
C2    N28   S    
C57   C206  A    
C13   C190  A    
C138  H5    S    
Cu8   Cu10  S    
C133  H228  S    
Cu7   O34   S    
C180  H120  S    
C128  H206  S    
C277  O41   A    
C136  H237  S    
C87   C105  A    
Cu10  O25   S    
C78   C234  A    
Cu9   O26   S    
C149  H51   S    
C102  N10   S    
C78   C150  S    
C151  O46   D    
C145  H37   S    
C31   C280  S    
H238  N14   S    
C100  N11   S    
C181  H125  S    
C32   C279  S    
C122  H184  S    
C178  H118  S    
Cu1   O9    S    
C92   C163  S    
C140  H16   S    
C269  O27   A    
C35   N31   S    
C167  H72   S    
Cu4   O41   S    
H48   N26   S    
C272  O29   A    
Cu3   O37   S    
C14   C29   A    
C35   C100  A    
C231  C249  A    
C271  O28   A    
Cu7   O15   S    
C119  N44   S    
C174  N33   S    
C48   C59   A    
C175  H103  S    
C124  N40   S    
C7    O26   A    
C199  C213  S    
H137  N43   S    
C161  H63   S    
C177  H110  S    
C114  N21   S    
C274  O40   A    
C119  H169  S    
C127  N4    S    
H30   N21   S    
H194  N3    S    
C115  N1    S    
C138  H7    S    
C179  C218  A    
C144  H31   S    
C3    O15   A    
C195  O72   D    
C237  O2    A    
C193  O70   D    
C9    C38   A    
C126  H195  S    
C149  H49   S    
C120  H174  S    
H177  N46   S    
C139  H9    S    
H229  N11   S    
C226  C265  S    
C260  C276  S    
C229  C260  A    
C177  N37   S    
C79   N36   S    
C224  C255  A    
Cu3   Cu4   S    
C51   C60   A    
Cu4   O42   S    
H212  N7    S    
C230  C247  A    
C25   C33   A    
C163  H65   S    
C80   C151  S    
C55   C56   A    
C138  N15   S    
C17   C30   A    
H74   N28   S    
C82   C99   A    
C19   H13   S    
C183  H134  S    
C238  C264  A    
Cu12  O27   S    
C214  C232  A    
C191  O68   D    
H234  N13   S    
C173  H94   S    
Cu12  O28   S    
C248  C267  S    
H119  N39   S    
C196  H152  S    
C257  C274  S    
C130  N7    S    
C142  H23   S    
C12   C28   A    
C116  H157  S    
C163  O58   D    
H83   N30   S    
C181  N40   S    
C195  H151  S    
C180  H122  S    
C193  H149  S    
C4    O18   A    
C81   C98   A    
C95   C114  A    
H181  N47   S    
C46   N32   S    
C205  C222  A    
C94   C165  S    
C165  H67   S    
C169  H75   S    
C15   H208  S    
C181  H127  S    
C187  C190  S    
C122  H182  S    
C82   C153  S    
C188  O65   D    
C2    C97   A    
C253  C269  S    
C141  H19   S    
H26   N20   S    
C131  H217  S    
C173  H95   S    
C67   C73   A    
C180  N39   S    
C168  C217  A    
C4    C29   S    
Cu7   O13   S    
C72   N3    S    
C204  O45   A    
Cu9   O19   S    
C176  H106  S    
C40   C66   A    
C198  O75   D    
C156  H59   S    
C89   C161  S    
C204  C263  S    
C172  H88   S    
C233  C260  A    
C150  O44   D    
C77   N8    S    
C24   N30   S    
C129  N6    S    
C57   C103  A    
C164  O59   D    
C198  H154  S    
C143  H29   S    
C47   C73   A    
C127  H202  S    
C164  H66   S    
C133  N10   S    
C95   C251  A    
C147  H41   S    
Cu10  O20   S    
C124  C212  A    
H159  N23   S    
C6    O22   A    
C106  N24   S    
C193  C207  S    
C237  C266  S    
C85   C156  S    
C108  N26   S    
C120  H176  S    
C162  H64   S    
C143  H28   S    
C51   C77   A    
Cu11  O6    S    
C12   C41   A    
H21   N19   S    
C150  H52   S    
C90   C209  A    
C46   C102  A    
Cu3   O36   S    
C121  N46   S    
C76   N7    S    
C3    O17   A    
C89   C107  A    
C85   C241  A    
C129  H209  S    
C148  H45   S    
C113  C211  A    
C22   H46   S    
C98   N14   S    
C169  N28   S    
C125  H193  S    
C142  H22   S    
C16   H219  S    
C187  O64   D    
H185  N48   S    
C8    C37   A    
C204  O23   A    
C185  O62   D    
C233  C251  A    
C176  N36   S    
C222  C253  A    
C170  H82   S    
C157  C216  A    
H8    N16   S    
C199  H155  S    
C258  C275  S    
C192  C206  S    
C91   C108  A    
C200  H156  S    
Cu5   O10   S    
C68   C104  A    
C201  C220  A    
C17   C45   A    
C217  C234  A    
C88   C244  A    
C202  H158  S    
C68   N35   S    
Cu12  O29   S    
C4    O20   A    
C225  C243  A    
C125  H192  S    
C194  C208  S    
Cu2   O31   S    
C34   C52   A    
C186  O63   D    
C23   C32   A    
C224  C242  A    
C15   C28   A    
C118  H166  S    
C128  N5    S    
Cu10  O3    S    
C222  C240  A    
C132  H223  S    
C244  C266  A    
C14   H197  S    
C134  H232  S    
C25   C49   A    
C123  N48   S    
C276  O38   A    
C90   C106  A    
C39   C54   A    
C119  H171  S    
C176  H108  S    
C140  N17   S    
C111  N18   S    
C145  N22   S    
C62   C74   A    
C209  C227  A    
C174  H99   S    
C1    O67   A    
C123  H187  S    
C251  C268  A    
C137  H239  S    
C116  H135  S    
C90   N37   S    
Cu2   O35   S    
C19   C43   A    
C24   C99   A    
C148  N25   S    
C232  C256  A    
C167  H73   S    
C165  O60   D    
C35   C203  A    
C134  N11   S    
C53   C59   A    
C114  C157  A    
C274  O36   A    
C61   C75   A    
H172  N45   S    
H203  N5    S    
C79   C105  A    
Cu9   O2    S    
C182  H130  S    
H168  N44   S    
H199  N4    S    
C275  O37   A    
C11   C36   A    
Cu11  O4    S    
C112  O56   A    
C168  C270  A    
C159  H61   S    
C84   C155  S    
C148  H47   S    
Cu1   O1    S    
C96   C270  A    
C79   C208  A    
C188  C201  S    
C134  H231  S    
C248  O3    A    
C203  C221  A    
C44   C71   A    
C129  H211  S    
C130  H213  S    
C13   C98   A    
C133  H227  S    
C171  H85   S    
C139  N16   S    
C279  O13   A    
C61   N1    S    
C230  C258  A    
C184  H138  S    
C212  C230  A    
C25   H68   S    
C123  H189  S    
C215  O78   A    
C110  N19   S    
H43   N25   S    
C9    H112  S    
C9    C27   A    
C14   C42   A    
C252  C273  S    
C40   C55   A    
C112  O12   A    
C63   C77   A    
C207  C224  A    
C186  H142  S    
C45   C72   A    
C167  H71   S    
C80   C235  A    
C110  C135  A    
C84   C240  A    
Cu5   O12   S    
C187  H143  S    
C21   C50   A    
C92   C247  A    
C93   C249  A    
C136  H235  S    
C194  H150  S    
C279  O10   A    
C137  N14   S    
C126  H198  S    
C21   C32   A    
C83   C239  A    
C169  H76   S    
C226  O7    A    
C278  O9    A    
C167  N27   S    
Cu6   O67   S    
H109  N37   S    
C158  H60   S    
C228  C245  A    
C93   C164  S    
C271  O35   A    
C16   C29   A    
C130  H215  S    
C42   C69   A    
C1    O1    A    
C117  H162  S    
Cu2   O32   S    
H124  N12   S    
C249  C266  A    
C3    C30   S    
H70   N27   S    
C121  H180  S    
C144  H32   S    
C182  N41   S    
C208  C225  A    
C5    C28   S    
C88   C106  A    
C87   C243  A    
C6    C27   S    
C206  C223  A    
H105  N36   S    
C64   N34   S    
C64   C76   A    
C81   C236  A    
C10   C34   A    
C174  H97   S    
C41   C54   A    
C86   C158  S    
C75   N6    S    
C177  H111  S    
C162  O57   D    
C1    C261  S    
C229  C246  A    
C121  H179  S    
C16   C40   A    
C189  O66   D    
C43   C70   A    
C192  O69   D    
Cu2   O33   S    
Cu8   O80   S    
C143  N20   S    
C153  H55   S    
C138  H6    S    
C2    C179  A    
C148  H44   S    
C202  O79   D    
C175  H102  S    
H225  N10   S    
C123  H188  S    
C22   C33   A    
C280  O14   A    
C221  C254  A    
C168  C185  S    
C197  O74   D    
C131  H220  S    
C142  H25   S    
C219  C236  A    
C183  H133  S    
C115  H101  S    
C74   N5    S    
C116  H146  S    
Cu7   O56   S    
C109  C124  A    
C173  H93   S    
C101  C210  A    
C81   C152  S    
Cu5   O17   S    
C65   N44   S    
C122  N47   S    
C83   C100  A    
C196  O73   D    
C47   C58   A    
C128  H205  S    
H79   N1    S    
C135  C213  A    
C184  H140  S    
C225  C256  A    
C7    O24   A    
C82   C238  A    
C57   N33   S    
Cu9   Cu11  S    
C218  C253  A    
C73   N4    S    
C145  H38   S    
C181  H126  S    
C122  H183  S    
C227  C257  A    
C178  H117  S    
C86   C104  A    
C113  N39   S    
C43   C56   A    
C140  H15   S    
C141  H18   S    
C125  N2    S    
Cu8   O5    S    
C149  H50   S    
C132  H222  S    
C155  H58   S    
Cu3   O38   S    
C202  C216  S    
C5    O21   A    
C144  H33   S    
C23   H57   S    
C112  C262  S    
C22   C51   A    
C97   N15   S    
C20   C31   A    
