data_mof_unit_44399.cif
_audit_creation_date              2012-12-11T16:48:32-0500
_audit_creation_method            fapswitch 2.2
_symmetry_space_group_name_H-M    P1
_symmetry_Int_Tables_number       1
_space_group_crystal_system       triclinic
_cell_length_a                    17.379484
_cell_length_b                    24.405361
_cell_length_c                    15.090817
_cell_angle_alpha                 89.403481
_cell_angle_beta                  125.463245
_cell_angle_gamma                 90.189683
_cell_volume                      5213.0694422

loop_
_atom_site_label
_atom_site_type_symbol
_atom_type_description
_atom_site_fract_x
_atom_site_fract_y
_atom_site_fract_z
_atom_type_partial_charge
C1    C     C_R   0.358045 0.346652 0.912030 -0.071145
C2    C     C_R   0.534773 0.496525 0.710061 0.058747
C3    C     C_R   0.060295 0.848402 0.909671 -0.114822
C4    C     C_R   0.384790 0.314803 0.001493 0.046019
C5    C     C_R   0.618026 0.316815 0.003719 0.042743
C6    C     C_R   0.888181 0.814371 0.999940 0.039892
C7    C     C_R   0.121401 0.817030 0.001992 0.044582
C8    C     C_1   0.503489 0.224726 0.854939 0.248209
C9    C     C_1   0.501286 0.229656 0.180792 0.218933
C10   C     C_1   0.003119 0.728808 0.838445 0.226666
C11   C     C_1   0.003537 0.727377 0.175180 0.227557
C12   C     C_1   0.684144 0.566325 0.731368 0.132188
C13   C     C_R   0.963658 0.996333 0.288701 0.046300
C14   C     C_1   0.689267 0.572299 0.544936 0.225881
C15   C     C_1   0.813599 0.076379 0.455350 0.153313
C16   C     C_1   0.825424 0.074498 0.273544 0.123114
C17   C     C_1   0.464098 0.360614 0.391188 0.171964
C18   C     C_1   0.359895 0.454069 0.480941 0.186879
C19   C     C_1   0.128744 0.941880 0.511442 0.226224
C20   C     C_1   0.010485 0.855074 0.594570 0.150698
C21   C     C_R   0.940664 0.997450 0.638202 0.064702
C22   C     C_R   0.175020 0.502768 0.702890 -0.028411
C23   C     C_R   0.802822 0.496523 0.360113 -0.034013
C24   C     C_R   0.682317 0.002324 0.658550 -0.026365
C25   C     C_R   0.296656 0.995115 0.366611 -0.028395
C26   C     C_2   0.915577 0.478870 0.555072 0.496658
C27   C     C_2   0.015710 0.475126 0.646012 0.482089
C28   C     C_2   0.429524 0.014098 0.558029 0.517451
C29   C     C_R   0.645482 0.348088 0.091492 -0.088338
C30   C     C_2   0.531883 0.007674 0.633028 0.442929
C31   C     C_2   0.895333 0.493283 0.457508 -0.242930
C32   C     C_2   0.074591 0.509244 0.642804 -0.264032
C33   C     C_2   0.388715 0.986487 0.465642 -0.301457
C34   C     C_2   0.581960 0.007395 0.590419 -0.257870
C35   C     C_R   0.285809 0.701154 0.105048 0.051064
C36   C     C_R   0.727382 0.699160 0.899385 0.049550
C37   C     C_R   0.797584 0.213582 0.096237 0.038096
C38   C     C_R   0.232949 0.192348 0.898553 0.069191
C39   C     C_R   0.249395 0.670877 0.010906 -0.084409
C40   C     C_R   0.859793 0.846678 0.911128 -0.086307
C41   C     C_R   0.754272 0.673923 0.996705 -0.073105
C42   C     C_R   0.756718 0.179858 0.006248 -0.098538
C43   C     C_R   0.260334 0.166140 0.995371 -0.069973
C44   C     C_R   0.152288 0.676276 0.925717 0.429128
C45   C     C_R   0.850779 0.678313 0.085945 0.419183
C46   C     C_R   0.657500 0.179842 0.929692 0.444034
C47   C     C_R   0.354715 0.174429 0.086976 0.419050
C48   C     C_R   0.604759 0.221964 0.934239 -0.144019
C49   C     C_R   0.405542 0.220314 0.087527 -0.111450
C50   C     C_R   0.101923 0.721676 0.925862 -0.125106
C51   C     C_R   0.147422 0.848161 0.090521 -0.094641
C52   C     C_R   0.905847 0.720801 0.084381 -0.120424
C53   C     C_R   0.653314 0.262344 0.014871 -0.111246
C54   C     C_R   0.361210 0.256190 0.995850 -0.106914
C55   C     C_R   0.150500 0.760095 0.011305 -0.111602
C56   C     C_R   0.863491 0.756434 0.992819 -0.100438
C57   C     C_R   0.402593 0.622666 0.092011 -0.111426
C58   C     C_R   0.594404 0.630320 0.910492 -0.117841
C59   C     C_R   0.907623 0.130664 0.089979 -0.111888
C60   C     C_R   0.099991 0.122084 0.909592 -0.114797
C61   C     C_R   0.746715 0.253176 0.102932 0.082282
C62   C     C_R   0.316071 0.639569 0.002923 0.106076
C63   C     C_R   0.283799 0.235227 0.897567 0.027580
C64   C     C_R   0.236668 0.744240 0.106741 0.068127
C65   C     C_R   0.782752 0.737487 0.895499 0.046426
C66   C     C_3   0.829899 0.291565 0.158134 0.354461
C67   C     C_3   0.196439 0.261355 0.801138 0.396100
C68   C     C_3   0.325712 0.776262 0.181359 0.358164
C69   C     C_3   0.697634 0.765308 0.798653 0.392134
C70   C     C_3   0.379112 0.729257 0.176340 -0.542448
C71   C     C_3   0.637172 0.723978 0.806584 -0.557185
C72   C     C_3   0.884890 0.247710 0.147697 -0.538665
C73   C     C_R   0.682259 0.645401 0.000919 0.089011
C74   C     C_3   0.140532 0.215491 0.806168 -0.546857
C75   C     C_R   0.533373 0.447636 0.571004 0.061923
C76   C     C_R   0.543836 0.446097 0.488481 0.115020
C77   C     C_R   0.945047 0.945228 0.505161 0.092354
C78   C     C_R   0.954915 0.946171 0.421908 0.056851
C79   C     C_R   0.566643 0.491737 0.641571 -0.022613
C80   C     C_R   0.581807 0.491227 0.469042 0.021155
C81   C     C_R   0.914177 0.992248 0.528346 -0.016133
C82   C     C_R   0.928411 0.992014 0.354530 -0.013809
C83   C     C_R   0.627630 0.529675 0.641153 -0.040379
C84   C     C_R   0.820841 0.146284 0.999675 0.105173
C85   C     C_R   0.633482 0.530601 0.551771 -0.039158
C86   C     C_R   0.866456 0.033501 0.447152 -0.058257
C87   C     C_R   0.873048 0.033000 0.358113 -0.027963
C88   C     C_3   0.451165 0.416888 0.414750 -0.283155
C89   C     C_3   0.439623 0.418991 0.507160 -0.249783
C90   C     C_3   0.043441 0.911990 0.482782 -0.270448
C91   C     C_3   0.032400 0.910458 0.575591 -0.255680
C92   C     C_R   0.545303 0.452235 0.298943 -0.082910
C93   C     C_R   0.513230 0.451915 0.747060 -0.100168
C94   C     C_R   0.985152 0.951810 0.251941 -0.077489
C95   C     C_R   0.188160 0.137326 0.999895 0.089570
C96   C     C_R   0.953650 0.952883 0.701010 -0.125260
C97   C     C_R   0.232995 0.546667 0.728856 0.406305
C98   C     C_R   0.757027 0.543293 0.301417 0.419438
C99   C     C_R   0.738699 0.046470 0.708373 0.429108
C100  C     C_R   0.253632 0.042569 0.305599 0.432716
C101  C     C_R   0.545647 0.543538 0.301695 -0.125269
C102  C     C_R   0.505867 0.543475 0.734483 -0.098657
C103  C     C_R   0.994155 0.043165 0.265047 -0.080526
C104  C     C_R   0.954340 0.044122 0.697755 -0.109563
C105  C     C_R   0.229907 0.455331 0.736656 0.462547
C106  C     C_R   0.558491 0.496555 0.360978 0.062500
C107  C     C_R   0.754009 0.452265 0.299103 0.449507
C108  C     C_R   0.734153 0.955507 0.711541 0.452542
C109  C     C_R   0.249386 0.951876 0.301394 0.404581
C110  C     C_R   0.313355 0.628793 0.910934 -0.073478
C111  C     C_R   0.686182 0.629470 0.091927 -0.045515
C112  C     C_R   0.814301 0.130073 0.908200 -0.027162
C113  C     C_R   0.189345 0.125470 0.091147 -0.052094
C114  C     C_R   0.442269 0.347534 0.091988 -0.098213
C115  C     C_R   0.557738 0.347379 0.910781 -0.130531
C116  C     C_R   0.944734 0.846607 0.090988 -0.103575
Cl1   Cl    Cl    0.094922 0.628495 0.818593 -0.612354
Cl2   Cl    Cl    0.773826 0.607951 0.359762 -0.616853
Cl3   Cl    Cl    0.722525 0.109940 0.643483 -0.620891
Cl4   Cl    Cl    0.269751 0.108821 0.357814 -0.548805
Cl5   Cl    Cl    0.188464 0.391646 0.674443 -0.550423
Cl6   Cl    Cl    0.760896 0.387365 0.354142 -0.548721
Cl7   Cl    Cl    0.699480 0.889645 0.659163 -0.587902
Cl8   Cl    Cl    0.248067 0.887381 0.352857 -0.599016
Cl9   Cl    Cl    0.827495 0.463487 0.575233 -0.537973
Cl10  Cl    Cl    0.053886 0.426590 0.751479 -0.503204
Cl11  Cl    Cl    0.366961 0.053756 0.593595 -0.436472
Cl12  Cl    Cl    0.903787 0.631994 0.197478 -0.604274
Cl13  Cl    Cl    0.584056 0.995963 0.772786 -0.514339
Cl14  Cl    Cl    0.599705 0.130381 0.826358 -0.530568
Cl15  Cl    Cl    0.409760 0.128707 0.199537 -0.614663
Cl16  Cl    Cl    0.875476 0.302648 0.297184 -0.491735
Cl17  Cl    Cl    0.194525 0.256536 0.681657 -0.489284
Cl18  Cl    Cl    0.353170 0.782556 0.314697 -0.507150
Cl19  Cl    Cl    0.693839 0.755221 0.678919 -0.525552
Cl20  Cl    Cl    0.202919 0.605756 0.646416 -0.591572
H1    H     H_    0.331204 0.331061 0.832639 0.180811
H2    H     H_    0.179444 0.302422 0.816817 0.140495
H3    H     H_    0.329964 0.815076 0.145163 0.083479
H4    H     H_    0.684936 0.807989 0.812306 0.119304
H5    H     H_    0.411166 0.740138 0.132636 0.184014
H6    H     H_    0.594748 0.742416 0.832410 0.191577
H7    H     H_    0.902558 0.258982 0.089852 0.187377
H8    H     H_    0.095518 0.229789 0.831730 0.193818
H9    H     H_    0.427309 0.707438 0.255284 0.241285
H10   H     H_    0.597590 0.696519 0.735115 0.235448
H11   H     H_    0.944745 0.230573 0.226906 0.246597
H12   H     H_    0.679208 0.332968 0.173249 0.199816
H13   H     H_    0.104391 0.188555 0.733762 0.239156
H14   H     H_    0.398517 0.440961 0.340387 0.156966
H15   H     H_    0.441376 0.378610 0.543236 0.162845
H16   H     H_    0.034693 0.871940 0.443365 0.164839
H17   H     H_    0.089255 0.931074 0.651672 0.156328
H18   H     H_    0.428445 0.624653 0.176275 0.120390
H19   H     H_    0.564896 0.639655 0.827572 0.115943
H20   H     H_    0.938213 0.141508 0.172676 0.118878
H21   H     H_    0.075493 0.123340 0.825778 0.121504
H22   H     H_    0.563366 0.410053 0.325666 0.144651
H23   H     H_    0.833425 0.831712 0.831456 0.182062
H24   H     H_    0.522793 0.409181 0.737943 0.107695
H25   H     H_    0.973560 0.909072 0.259554 0.107019
H26   H     H_    0.933604 0.911082 0.674693 0.128858
H27   H     H_    0.560559 0.585193 0.330543 0.125604
H28   H     H_    0.500689 0.583879 0.702115 0.111318
H29   H     H_    0.999653 0.083391 0.296745 0.122164
H30   H     H_    0.939879 0.086043 0.668740 0.126870
H31   H     H_    0.259083 0.642172 0.830218 0.205874
H32   H     H_    0.741611 0.637720 0.175153 0.211178
H33   H     H_    0.758111 0.139785 0.825642 0.202240
H34   H     H_    0.180045 0.832671 0.171745 0.204420
H35   H     H_    0.245624 0.133397 0.174267 0.207762
H36   H     H_    0.484025 0.335004 0.176373 0.109816
H37   H     H_    0.515579 0.333094 0.827893 0.112687
H38   H     H_    0.988016 0.833083 0.174795 0.114629
H39   H     H_    0.018954 0.835371 0.826019 0.109322
H40   H     H_    0.949857 0.499166 0.444130 0.152283
H41   H     H_    0.046222 0.545563 0.590906 0.197176
H42   H     H_    0.429181 0.954825 0.458960 0.172758
H43   H     H_    0.549395 0.016935 0.505068 0.172098
H44   H     H_    0.819071 0.329469 0.110558 0.084624
N1    N     N_R   0.395410 0.396350 0.944340 -0.050257
N2    N     N_R   0.474920 0.471030 0.794350 -0.047213
N3    N     N_R   0.025080 0.971030 0.205650 -0.047977
N4    N     N_R   0.974920 0.971030 0.794350 -0.051276
N5    N     N_R   0.320260 0.527820 0.794570 -0.120811
N6    N     N_R   0.679740 0.527820 0.205430 -0.122867
N7    N     N_R   0.820260 0.027820 0.794570 -0.120017
N8    N     N_R   0.179740 0.027820 0.205430 -0.128078
N9    N     N_R   0.524590 0.527840 0.205200 -0.048688
N10   N     N_R   0.475410 0.527840 0.794800 -0.041363
N11   N     N_R   0.024590 0.027840 0.205200 -0.048544
N12   N     N_R   0.604590 0.396350 0.055660 -0.049074
N13   N     N_R   0.975410 0.027840 0.794800 -0.050597
N14   N     N_R   0.320750 0.471000 0.795020 -0.125754
N15   N     N_R   0.679250 0.471000 0.204980 -0.129498
N16   N     N_R   0.820750 0.971000 0.795020 -0.119337
N17   N     N_R   0.179250 0.971000 0.204980 -0.122939
N18   N     N_R   0.393620 0.602490 0.942710 -0.057692
N19   N     N_R   0.606380 0.602490 0.057290 -0.054939
N20   N     N_R   0.893620 0.102490 0.942710 -0.057516
N21   N     N_R   0.106380 0.102490 0.057290 -0.054591
N22   N     N_R   0.451720 0.396350 0.057510 -0.050055
N23   N     N_R   0.895410 0.896350 0.944340 -0.041508
N24   N     N_R   0.548280 0.396350 0.942490 -0.049500
N25   N     N_R   0.951720 0.896350 0.057510 -0.045853
N26   N     N_R   0.048280 0.896350 0.942490 -0.050035
N27   N     N_1   0.422420 0.226827 0.791490 0.006775
N28   N     N_1   0.578127 0.236863 0.255415 -0.021097
N29   N     N_1   0.923928 0.734322 0.768473 -0.006596
N30   N     N_1   0.081878 0.732478 0.247728 -0.008723
N31   N     N_1   0.730688 0.595075 0.804162 -0.049204
N32   N     N_1   0.734244 0.605880 0.540783 0.030272
N33   N     N_1   0.771030 0.110781 0.461042 0.016155
N34   N     N_R   0.104590 0.896350 0.055660 -0.046605
N35   N     N_1   0.786587 0.107564 0.205854 -0.054778
N36   N     N_1   0.474201 0.316397 0.372544 -0.039148
N37   N     N_1   0.297391 0.481608 0.460570 -0.026844
N38   N     N_1   0.195678 0.965286 0.533721 0.011680
N39   N     N_1   0.993351 0.811557 0.609615 -0.036474
N40   N     N_R   0.449930 0.602500 0.055880 -0.049977
N41   N     N_R   0.550070 0.602500 0.944120 -0.050052
N42   N     N_R   0.949930 0.102500 0.055880 -0.050734
N43   N     N_R   0.050070 0.102500 0.944120 -0.050351
N44   N     N_R   0.525080 0.471030 0.205650 -0.054693
Ni1   Ni    Ni4+2 0.435420 0.434270 0.870230 0.249624
Ni2   Ni    Ni4+2 0.564580 0.434270 0.129770 0.251092
Ni3   Ni    Ni4+2 0.935420 0.934270 0.870230 0.247206
Ni4   Ni    Ni4+2 0.064580 0.934270 0.129770 0.263538
Ni5   Ni    Ni4+2 0.563430 0.564580 0.128740 0.262416
Ni6   Ni    Ni4+2 0.436570 0.564580 0.871260 0.272663
Ni7   Ni    Ni4+2 0.063430 0.064580 0.128740 0.280760
Ni8   Ni    Ni4+2 0.936570 0.064580 0.871260 0.267009

loop_
_geom_bond_atom_site_label_1
_geom_bond_atom_site_label_2
_ccdc_geom_bond_type
C72   H7    S    
N7    N16   A    
C93   H24   S    
C17   C88   S    
N4    N13   A    
C40   H23   S    
C35   C39   A    
N1    N22   A    
C7    C55   S    
N5    N14   A    
C15   N33   T    
C116  N25   A    
C113  H35   S    
C29   H12   S    
C99   N7    A    
C34   H43   S    
N9    N44   A    
C3    C7    A    
C57   C62   A    
C47   C49   A    
N6    Ni5   S    
C77   C78   A    
C78   C90   S    
C114  H36   S    
N5    Ni6   S    
N23   N25   A    
C26   C27   S    
C84   C112  A    
C22   C32   S    
N40   Ni5   S    
C64   C68   S    
N14   Ni1   S    
C4    C114  A    
C67   Cl17  S    
C91   H17   S    
C92   C106  A    
C101  N9    A    
C11   N30   T    
N21   Ni7   S    
C27   Cl10  S    
C57   N40   A    
C110  N18   A    
C54   C63   A    
C97   N5    A    
C45   Cl12  S    
C44   C50   A    
C56   C65   A    
C24   C99   A    
C80   C106  S    
C107  N15   A    
N25   Ni4   S    
C92   H22   S    
C42   C46   A    
C37   C42   A    
C69   C71   S    
C67   H2    S    
C16   N35   T    
C2    C79   S    
C25   C100  A    
C111  N19   A    
C21   C104  A    
C53   C61   A    
C61   C66   S    
N11   Ni7   S    
C66   C72   S    
C35   C70   S    
N41   Ni6   S    
C16   C87   S    
C43   C95   S    
C104  N13   A    
C114  N22   A    
C74   H13   S    
C98   Cl2   S    
C35   C64   A    
C24   C108  A    
C113  N21   A    
C13   C103  A    
N8    Ni7   S    
N34   Ni4   S    
C49   C54   A    
C76   C88   S    
C66   Cl16  S    
C81   C86   A    
C28   Cl11  S    
C25   C109  A    
C4    C54   S    
N26   N34   A    
C69   H4    S    
N12   Ni2   S    
C33   H42   S    
N16   Ni3   S    
C26   C31   D    
C69   Cl19  S    
C22   C97   A    
C5    C115  A    
C18   C89   S    
C36   C41   A    
C105  N14   A    
C96   N4    A    
N23   Ni3   S    
C58   N41   A    
C73   C111  A    
C5    C29   A    
C31   H40   S    
C51   H34   S    
C48   C53   A    
C20   C91   S    
C46   C48   A    
C30   C34   D    
C105  Cl5   S    
N6    N15   A    
C92   N44   A    
C42   C84   S    
C60   H21   S    
C12   N31   T    
C90   H16   S    
C19   N38   T    
C1    N1    A    
C36   C65   A    
C99   Cl3   S    
C45   C52   A    
N1    Ni1   S    
N22   Ni2   S    
C41   C73   S    
C13   C82   S    
C9    N28   T    
C24   C34   S    
N17   Ni4   S    
C12   C83   S    
N44   Ni2   S    
N10   Ni6   S    
C26   Cl9   S    
C23   C31   S    
C8    N27   T    
N9    Ni5   S    
C75   C76   A    
C8    C48   S    
C63   C67   S    
C46   Cl14  S    
C80   C85   A    
C98   N6    A    
C59   N42   A    
C93   N2    A    
C78   C82   A    
C10   N29   T    
C112  H33   S    
C62   C110  A    
C40   N23   A    
C101  H27   S    
C23   C107  A    
C55   C64   A    
C71   H10   S    
N18   Ni6   S    
N12   N24   A    
C29   N12   A    
C9    C49   S    
N2    Ni1   S    
C67   C74   S    
C59   C84   A    
C94   H25   S    
C6    C116  A    
C70   H9    S    
C15   C86   S    
C100  Cl4   S    
N7    Ni8   S    
C51   N34   A    
C3    H39   S    
C83   C85   A    
C21   C81   S    
N42   Ni7   S    
C103  H29   S    
C71   H6    S    
N19   N41   A    
C20   N39   T    
C6    C40   A    
C32   H41   S    
C108  N16   A    
C94   N3    A    
N21   N43   A    
C108  Cl7   S    
C72   H11   S    
C60   N43   A    
C1    H1    S    
N43   Ni8   S    
C38   C63   A    
C38   C74   S    
C5    C53   S    
C101  C106  A    
C39   C62   S    
C74   H8    S    
C77   C91   S    
C70   H5    S    
C41   C45   A    
N15   Ni2   S    
C100  N8    A    
C27   C32   D    
C86   C87   A    
C3    N26   A    
C88   H14   S    
C2    C93   A    
N18   N40   A    
C76   C80   A    
C14   C85   S    
C6    C56   S    
C43   C47   A    
C110  H31   S    
N3    N11   A    
N3    Ni4   S    
C28   C33   D    
C37   C61   A    
C59   H20   S    
C36   C71   S    
C109  Cl8   S    
C39   C44   A    
C21   C96   A    
C14   N32   T    
C22   C105  A    
N20   Ni8   S    
C57   H18   S    
C103  N11   A    
C11   C52   S    
C50   C55   A    
C97   Cl20  S    
C116  H38   S    
C13   C94   A    
N4    Ni3   S    
C1    C4    A    
N20   N42   A    
C28   C30   S    
N19   Ni5   S    
C7    C51   A    
C38   C43   A    
C115  H37   S    
C109  N17   A    
C79   C83   A    
C90   C91   S    
C66   H44   S    
N8    N17   A    
C95   C113  A    
C65   C69   S    
C107  Cl6   S    
C68   Cl18  S    
C102  N10   A    
C96   H26   S    
C17   N36   T    
C58   H19   S    
C75   C89   S    
C104  H30   S    
C30   Cl13  S    
C60   C95   A    
C52   C56   A    
C89   H15   S    
C23   C98   A    
C44   Cl1   S    
C88   C89   S    
C115  N24   A    
C102  H28   S    
C77   C81   A    
C37   C72   S    
C47   Cl15  S    
N26   Ni3   S    
C19   C90   S    
C68   C70   S    
C2    C102  A    
C68   H3    S    
C111  H32   S    
N2    N10   A    
N13   Ni8   S    
N24   Ni1   S    
C18   N37   T    
C75   C79   A    
C112  N20   A    
C82   C87   A    
C58   C73   A    
C25   C33   S    
C10   C50   S    
