data_mof_unit_9928.cif
_audit_creation_date              2013-03-05T16:32:41-0500
_audit_creation_method            fapswitch 2.2
_symmetry_space_group_name_H-M    P1
_symmetry_Int_Tables_number       1
_space_group_crystal_system       triclinic
_cell_length_a                    9.525531
_cell_length_b                    10.882039
_cell_length_c                    17.325803
_cell_angle_alpha                 90.072032
_cell_angle_beta                  85.750932
_cell_angle_gamma                 90.175998
_cell_volume                      1790.9984703

loop_
_atom_site_label
_atom_site_type_symbol
_atom_site_description
_atom_site_fract_x
_atom_site_fract_y
_atom_site_fract_z
_atom_type_partial_charge
O1    O     O_R   0.381190 0.680360 0.500000 -0.592793
O2    O     O_R   0.618770 0.680320 0.499990 -0.537061
C1    C     C_R   0.500176 0.737493 0.502604 0.850605
O3    O     O_R   0.367430 0.500040 0.613600 -0.579751
O4    O     O_R   0.605020 0.500000 0.613590 -0.590744
C2    C     C_R   0.481348 0.501777 0.650015 0.827252
Cu1   Cu    Cu3+1 0.359330 0.500020 0.500000 0.981762
Cu2   Cu    Cu3+1 0.640670 0.499980 0.500000 0.977804
O5    O     O_R   0.381230 0.319680 0.500010 -0.553675
O6    O     O_R   0.618810 0.319640 0.500000 -0.601586
O7    O     O_R   0.394980 0.500000 0.386410 -0.596159
O8    O     O_R   0.632570 0.499960 0.386400 -0.586657
C3    C     C_R   0.500053 0.262695 0.504677 0.817492
C4    C     C_R   0.518478 0.503479 0.350015 0.786921
C5    C     C_R   0.470695 0.507627 0.734578 -0.090290
C6    C     C_R   0.593188 0.506938 0.774247 -0.165432
C7    C     C_R   0.584743 0.512529 0.854222 -0.176758
C8    C     C_R   0.453604 0.523786 0.896434 0.055136
C9    C     C_R   0.328905 0.526701 0.856826 0.365772
C10   C     C_R   0.339002 0.516799 0.776020 -0.221743
C11   C     C_R   0.417265 0.578498 0.150345 -0.133717
C12   C     C_R   0.409712 0.560641 0.229779 -0.200214
C13   C     C_R   0.654913 0.499195 0.221466 -0.190862
C14   C     C_R   0.662993 0.518656 0.141841 -0.137348
C15   C     C_R   0.543486 0.555954 0.105956 0.164143
C16   C     C_2   0.446731 0.522649 0.981530 -0.133861
C17   C     C_2   0.550627 0.567087 0.021744 -0.223997
C18   C     C_R   0.527872 0.519283 0.265915 -0.028420
H1    H     H_    0.696180 0.500674 0.743589 0.178512
H2    H     H_    0.311833 0.581099 0.262864 0.147436
H3    H     H_    0.747210 0.467195 0.247791 0.144637
H4    H     H_    0.645356 0.606372 0.992954 0.173127
H5    H     H_    0.324848 0.610599 0.123652 0.162829
H6    H     H_    0.243886 0.519503 0.745450 0.194724
H7    H     H_    0.354809 0.481247 0.012146 0.183643
H8    H     H_    0.681682 0.505041 0.882654 0.174231
H9    H     H_    0.761122 0.501209 0.107945 0.151668
C19   C     C_R   0.397143 0.937412 0.474332 -0.024009
C20   C     C_R   0.503258 0.870800 0.505774 -0.182555
C21   C     C_R   0.616567 0.934197 0.536624 0.331613
C22   C     C_R   0.617191 0.064110 0.539984 -0.030312
C23   C     C_R   0.503355 0.129388 0.509545 -0.102819
C24   C     C_R   0.396686 0.063696 0.476853 -0.037408
C25   C     C_3   0.239707 0.067221 0.493495 0.207860
C26   C     C_3   0.240903 0.927607 0.489404 -0.412562
H10   H     H_    0.184017 0.111543 0.446703 0.085862
H11   H     H_    0.208713 0.880532 0.544905 0.236102
H12   H     H_    0.190107 0.891056 0.438371 0.176641
C27   C     C_R   0.931585 0.413776 0.458647 0.253867
N1    N     N_R   0.852130 0.499070 0.499500 -0.208850
C28   C     C_R   0.919284 0.573908 0.548603 -0.012458
H13   H     H_    0.858328 0.633918 0.587573 0.214760
C29   C     C_R   0.068408 0.574978 0.548051 -0.048091
H14   H     H_    0.119588 0.637602 0.585639 0.154694
N2    N     N_R   0.148040 0.499110 0.499500 -0.197962
C30   C     C_R   0.079020 0.413445 0.458846 0.335756
C31   C     C_3   0.096490 0.391999 0.373750 -0.514910
C32   C     C_3   0.937467 0.393686 0.373500 -0.514599
H15   H     H_    0.146599 0.470590 0.341617 0.214709
H16   H     H_    0.143171 0.300660 0.359159 0.194395
H17   H     H_    0.899307 0.474606 0.342402 0.217720
H18   H     H_    0.891555 0.303708 0.358078 0.201366
N3    N     N_R   0.725013 0.866605 0.570650 0.103815
O9    O     O_R   0.701226 0.819262 0.639306 -0.379608
O10   O     O_R   0.849922 0.859301 0.535069 -0.407665
C33   C     C_3   0.731991 0.128409 0.582752 -0.316730
C34   C     C_3   0.672755 0.181299 0.660530 -0.343718
C35   C     C_3   0.788523 0.242386 0.703551 -0.727210
H19   H     H_    0.873732 0.175776 0.712904 0.289928
H20   H     H_    0.833414 0.322043 0.669981 0.259404
H21   H     H_    0.744115 0.274985 0.760943 0.235724
H22   H     H_    0.589485 0.249814 0.651868 0.219839
H23   H     H_    0.625034 0.105782 0.696936 0.252995
H24   H     H_    0.817768 0.065032 0.595581 0.262675
H25   H     H_    0.788490 0.198762 0.546299 0.222102
N4    N     N_R   0.196305 0.113769 0.571025 0.160110
O11   O     O_R   0.097966 0.196363 0.579514 -0.399304
O12   O     O_R   0.254271 0.073384 0.631833 -0.347769
N5    N     N_R   0.192432 0.542412 0.897099 0.111334
O13   O     O_R   0.175395 0.618871 0.954828 -0.366505
O14   O     O_R   0.081547 0.493934 0.869462 -0.364854

loop_
_geom_bond_atom_site_label_1
_geom_bond_atom_site_label_2
_geom_bond_distance
_ccdc_geom_bond_type
C32   H18   1.111484 S    
N2    C30   1.364036 A    
N3    O10   1.301464 A    
C22   C23   1.431417 A    
C9    C10   1.400237 A    
C8    C16   1.471023 S    
Cu1   N2    2.013303 S    
Cu1   Cu2   2.679914 S    
C29   H14   1.081714 S    
Cu1   O7    1.972171 S    
C16   C17   1.340562 D    
C21   N3    1.432359 S    
N4    O12   1.302619 A    
C8    C9    1.415611 A    
C19   C20   1.389607 A    
O7    C4    1.293362 A    
C31   H15   1.108387 S    
C11   H5    1.083285 S    
C5    C6    1.397420 A    
C33   H24   1.106083 S    
C30   C31   1.489599 S    
C34   H22   1.108657 S    
C25   N4    1.466000 S    
O5    C3    1.300066 A    
C19   C26   1.495338 S    
C2    C5    1.462425 S    
C35   H19   1.110795 S    
C13   C14   1.392442 A    
C34   H23   1.111907 S    
C7    H8    1.081632 S    
C10   H6    1.083324 S    
C32   H17   1.109067 S    
C26   H11   1.112525 S    
C33   C34   1.533931 S    
C1    C20   1.451913 S    
C12   C18   1.403423 A    
C11   C12   1.386709 A    
O3    Cu1   1.975425 S    
C3    C23   1.453774 S    
C25   H10   1.112468 S    
C14   H9    1.083567 S    
C29   N2    1.368256 A    
C5    C10   1.402240 A    
C28   H13   1.078245 S    
C14   C15   1.398397 A    
O3    C2    1.295079 A    
C20   C21   1.416542 A    
N5    O14   1.301582 A    
C6    C7    1.383272 A    
C31   H16   1.111305 S    
N1    C28   1.368168 A    
C6    H1    1.082754 S    
C27   C32   1.488054 S    
C34   C35   1.526297 S    
C28   C29   1.419821 A    
C13   H3    1.078868 S    
C24   C25   1.502330 S    
Cu2   O8    1.975428 S    
C7    C8    1.405580 A    
C13   C18   1.402995 A    
N4    O11   1.300518 A    
C9    N5    1.439689 S    
Cu2   O6    1.972847 S    
C21   C22   1.414849 A    
O8    C4    1.296844 A    
N5    O13   1.301410 A    
C23   C24   1.394308 A    
Cu2   N1    2.013700 S    
C25   C26   1.520878 S    
C26   H12   1.111498 S    
Cu1   O5    1.974163 S    
C11   C15   1.400556 A    
C12   H2    1.081283 S    
C17   H4    1.085024 S    
O1    Cu1   1.972847 S    
O2    Cu2   1.974162 S    
O6    C3    1.285485 A    
O4    Cu2   1.972171 S    
C22   C33   1.532499 S    
C15   C17   1.460740 S    
C27   C30   1.404671 A    
C4    C18   1.463548 S    
O2    C1    1.289168 A    
C19   C24   1.374883 A    
C31   C32   1.515273 S    
O4    C2    1.294747 A    
C35   H21   1.109608 S    
C33   H25   1.105880 S    
N3    O9    1.300997 A    
C16   H7    1.086463 S    
C35   H20   1.111164 S    
C27   N1    1.363303 A    
O1    C1    1.294740 A    
