data_mof_unit_27887.cif
_audit_creation_date              2012-12-11T17:18:37-0500
_audit_creation_method            fapswitch 2.2
_symmetry_space_group_name_H-M    P1
_symmetry_Int_Tables_number       1
_space_group_crystal_system       triclinic
_cell_length_a                    27.420539
_cell_length_b                    22.43408
_cell_length_c                    20.895999
_cell_angle_alpha                 90.04845
_cell_angle_beta                  51.774057
_cell_angle_gamma                 90.190044
_cell_volume                      10097.9482306

loop_
_atom_site_label
_atom_site_type_symbol
_atom_type_description
_atom_site_fract_x
_atom_site_fract_y
_atom_site_fract_z
_atom_type_partial_charge
C1    C     C_R   0.897280 0.564496 0.736392 -0.216661
C2    C     C_1   0.895262 0.278747 0.832430 0.182882
C3    C     C_R   0.132564 0.247515 0.091097 -0.314655
C4    C     C_R   0.788299 0.179189 0.044670 -0.317709
C5    C     C_R   0.373133 0.737736 0.897473 -0.274042
C6    C     C_R   0.208917 0.180793 0.949499 -0.322942
C7    C     C_R   0.632566 0.747525 0.091084 -0.314935
C8    C     C_R   0.323121 0.726802 0.041455 0.332115
C9    C     C_R   0.846048 0.184322 0.898435 0.311333
C10   C     C_R   0.693753 0.739382 0.944515 0.327968
C11   C     C_R   0.140261 0.186439 0.096942 0.311996
C12   C     C_R   0.823081 0.226852 0.041488 0.332143
C13   C     C_1   0.760901 0.653491 0.877005 0.189495
C14   C     C_R   0.346024 0.684310 0.898427 0.311343
C15   C     C_R   0.193719 0.239365 0.944531 0.327942
C16   C     C_R   0.640215 0.686435 0.096937 0.312166
C17   C     C_3   0.888621 0.252008 0.663100 0.172438
C18   C     C_3   0.894273 0.204215 0.607116 -0.717927
C19   C     C_3   0.063209 0.729981 0.384893 0.188196
C20   C     C_3   0.077065 0.792963 0.396764 -0.744574
C21   C     C_3   0.114213 0.252521 0.330279 0.162483
C22   C     C_3   0.108913 0.202097 0.382942 -0.709362
C23   C     C_3   0.921413 0.733582 0.638725 0.202098
C24   C     C_1   0.111247 0.285298 0.158687 0.175501
C25   C     C_3   0.907483 0.793472 0.619170 -0.767761
C26   C     C_3   0.388624 0.752008 0.663087 0.172456
C27   C     C_3   0.394276 0.704224 0.607095 -0.717935
C28   C     C_3   0.563188 0.229978 0.384925 0.188186
C29   C     C_3   0.577041 0.292963 0.396787 -0.744574
C30   C     C_3   0.614210 0.752517 0.330274 0.162493
C31   C     C_3   0.608919 0.702099 0.382938 -0.709379
C32   C     C_3   0.421385 0.233594 0.638759 0.202030
C33   C     C_3   0.407451 0.293476 0.619190 -0.767678
C34   C     C_3   0.895850 0.112391 0.801844 0.316399
C35   C     C_1   0.735669 0.156998 0.121383 0.192686
C36   C     C_3   0.916339 0.093285 0.718695 -0.900000
C37   C     C_3   0.349951 0.718223 0.124005 0.285394
C38   C     C_3   0.335796 0.739840 0.202924 -0.793315
C39   C     C_3   0.054153 0.142917 0.208198 0.303252
C40   C     C_3   0.025302 0.117308 0.292111 -0.848727
C41   C     C_3   0.683419 0.756147 0.846589 0.257219
C42   C     C_3   0.716490 0.779045 0.760274 -0.747743
C43   C     C_3   0.395785 0.612370 0.801843 0.316392
C44   C     C_3   0.416258 0.593271 0.718699 -0.900048
C45   C     C_3   0.849834 0.218315 0.124126 0.285294
C46   C     C_1   0.395260 0.778731 0.832421 0.182848
C47   C     C_3   0.835626 0.239954 0.203067 -0.793134
C48   C     C_3   0.553989 0.643115 0.208282 0.303176
C49   C     C_3   0.525150 0.617366 0.292123 -0.848432
C50   C     C_3   0.183365 0.256066 0.846612 0.257227
C51   C     C_3   0.216413 0.278962 0.760302 -0.747789
C52   C     C_3   0.715812 0.136533 0.980016 0.319444
C53   C     C_3   0.673946 0.087007 0.989293 -0.892988
C54   C     C_3   0.356849 0.858122 0.991594 0.328902
C55   C     C_3   0.396339 0.913784 0.968657 -0.891470
C56   C     C_3   0.241094 0.094260 0.039927 0.338746
C57   C     C_1   0.260911 0.153501 0.877004 0.189580
C58   C     C_3   0.254359 0.030082 0.047709 -0.898703
C59   C     C_3   0.701437 0.866107 0.989875 0.328406
C60   C     C_3   0.686757 0.932257 0.000849 -0.898312
C61   C     C_3   0.215770 0.636549 0.980052 0.319418
C62   C     C_3   0.173882 0.587035 0.989358 -0.892977
C63   C     C_3   0.856752 0.358179 0.991599 0.328989
C64   C     C_3   0.896216 0.413868 0.968614 -0.891583
C65   C     C_3   0.740961 0.594148 0.039972 0.338686
C66   C     C_3   0.753963 0.529956 0.048108 -0.898305
C67   C     C_3   0.201349 0.366114 0.989881 0.328453
C68   C     C_1   0.611256 0.785302 0.158678 0.175214
C69   C     C_3   0.186631 0.432257 0.000865 -0.898363
C70   C     C_1   0.905947 0.314797 0.782977 -0.052405
C71   C     C_1   0.189658 0.638574 0.183916 0.016721
C72   C     C_1   0.099608 0.318621 0.211127 -0.048817
C73   C     C_R   0.075031 0.418834 0.271117 -0.186298
C74   C     C_1   0.807324 0.634131 0.816029 0.005550
C75   C     C_1   0.405944 0.814789 0.782974 -0.052396
C76   C     C_1   0.689646 0.138588 0.183918 0.016721
C77   C     C_1   0.599618 0.818622 0.211120 -0.048775
C78   C     C_1   0.307333 0.134142 0.816028 0.005542
C79   C     C_1   0.130324 0.682316 0.580404 0.028611
C80   C     C_1   0.787042 0.369585 0.546992 0.045583
C81   C     C_1   0.870437 0.682429 0.419202 0.029401
C82   C     C_1   0.211370 0.368486 0.456639 0.045371
C83   C     C_1   0.630325 0.182316 0.580404 0.028611
C84   C     C_R   0.101921 0.566036 0.263510 -0.218136
C85   C     C_1   0.287040 0.869587 0.546996 0.045575
C86   C     C_1   0.370436 0.182428 0.419201 0.029402
C87   C     C_1   0.711371 0.868486 0.456637 0.045368
C88   C     C_2   0.172297 0.763845 0.625066 0.308349
C89   C     C_2   0.684828 0.318161 0.590310 0.305086
C90   C     C_2   0.827654 0.764678 0.377129 0.307444
C91   C     C_2   0.312766 0.317558 0.415791 0.307561
C92   C     C_2   0.672296 0.263846 0.625066 0.308345
C93   C     C_2   0.184826 0.818162 0.590317 0.305080
C94   C     C_2   0.327652 0.264677 0.377130 0.307446
C95   C     C_R   0.926934 0.417439 0.727596 -0.194463
C96   C     C_2   0.812767 0.817559 0.415790 0.307560
C97   C     C_1   0.738437 0.349230 0.569425 0.099984
C98   C     C_1   0.146872 0.719194 0.604614 0.100237
C99   C     C_1   0.259516 0.348203 0.435516 0.098500
C100  C     C_1   0.853581 0.719585 0.395927 0.101968
C101  C     C_1   0.238435 0.849231 0.569430 0.099982
C102  C     C_1   0.646872 0.219194 0.604614 0.100235
C103  C     C_1   0.759517 0.848204 0.435515 0.098497
C104  C     C_1   0.353580 0.219583 0.395927 0.101968
C105  C     C_R   0.879593 0.435463 0.462264 -0.113853
C106  C     C_R   0.397285 0.064501 0.736393 -0.216594
C107  C     C_R   0.096405 0.581467 0.576153 -0.128894
C108  C     C_R   0.119866 0.435109 0.538920 -0.115350
C109  C     C_R   0.904066 0.581536 0.423320 -0.130265
C110  C     C_R   0.379592 0.935463 0.462265 -0.113864
C111  C     C_R   0.596405 0.081467 0.576152 -0.128893
C112  C     C_R   0.619867 0.935109 0.538920 -0.115352
C113  C     C_R   0.404067 0.081536 0.423320 -0.130267
C114  C     C_R   0.909180 0.650348 0.494353 -0.060802
C115  C     C_R   0.116257 0.366542 0.465008 -0.066240
C116  C     C_R   0.091447 0.650292 0.505139 -0.072077
C117  C     C_R   0.575034 0.918835 0.271115 -0.186300
C118  C     C_R   0.883076 0.367119 0.536285 -0.067923
C119  C     C_R   0.409181 0.150348 0.494352 -0.060769
C120  C     C_R   0.616257 0.866543 0.465007 -0.066233
C121  C     C_R   0.591448 0.150292 0.505138 -0.072107
C122  C     C_R   0.383075 0.867120 0.536287 -0.067932
C123  C     C_R   0.923341 0.347258 0.655010 0.519832
C124  C     C_R   0.104447 0.638598 0.334325 0.534895
C125  C     C_R   0.078152 0.347913 0.343304 0.521515
C126  C     C_R   0.893946 0.636615 0.666069 0.535667
C127  C     C_R   0.423341 0.847257 0.655008 0.519826
C128  C     C_R   0.601916 0.066041 0.263509 -0.218129
C129  C     C_R   0.604440 0.138603 0.334326 0.534887
C130  C     C_R   0.578153 0.847913 0.343303 0.521510
C131  C     C_R   0.393951 0.136619 0.666068 0.535651
C132  C     C_R   0.863617 0.613132 0.743303 -0.071169
C133  C     C_R   0.090074 0.360110 0.269340 -0.088134
C134  C     C_R   0.134549 0.615902 0.256928 -0.063149
C135  C     C_R   0.913145 0.358183 0.727931 -0.081641
C136  C     C_R   0.363625 0.113140 0.743303 -0.071217
C137  C     C_R   0.590080 0.860111 0.269337 -0.088127
C138  C     C_R   0.634540 0.115911 0.256928 -0.063136
C139  C     C_R   0.426935 0.917437 0.727596 -0.194483
C140  C     C_R   0.413145 0.858180 0.727930 -0.081620
C141  C     C_R   0.846898 0.389772 0.516811 0.042157
C142  C     C_R   0.112912 0.638814 0.548591 0.061048
C143  C     C_R   0.152160 0.389054 0.485214 0.040883
C144  C     C_R   0.887940 0.638897 0.450621 0.058362
C145  C     C_R   0.346897 0.889773 0.516813 0.042158
C146  C     C_R   0.612912 0.138813 0.548590 0.061054
C147  C     C_R   0.652161 0.889054 0.485213 0.040880
C148  C     C_R   0.387941 0.138897 0.450620 0.058344
C149  C     C_R   0.799840 0.157454 0.973497 0.338087
C150  C     C_1   0.235683 0.656978 0.121376 0.192719
C151  C     C_R   0.363753 0.758069 0.967937 0.348487
C152  C     C_R   0.181463 0.153623 0.025359 0.369947
C153  C     C_R   0.658010 0.773923 0.015414 0.366171
C154  C     C_R   0.299821 0.657443 0.973493 0.338032
C155  C     C_R   0.863717 0.258118 0.967971 0.348568
C156  C     C_R   0.681415 0.653615 0.025358 0.370175
C157  C     C_R   0.157971 0.273905 0.015432 0.366073
C158  C     C_R   0.288310 0.679161 0.044655 -0.317638
C159  C     C_R   0.873132 0.237762 0.897492 -0.274129
C160  C     C_R   0.708910 0.680794 0.949492 -0.323043
H1    H     H_    0.886717 0.535431 0.784758 0.143528
H2    H     H_    0.096089 0.561173 0.623360 0.120012
H3    H     H_    0.138807 0.280630 0.888136 0.121915
H4    H     H_    0.173442 0.207683 0.847509 0.092555
H5    H     H_    0.259944 0.253574 0.717209 0.281668
H6    H     H_    0.186025 0.273166 0.742482 0.211942
H7    H     H_    0.227771 0.327018 0.756667 0.252002
H8    H     H_    0.734734 0.161135 0.922648 0.132198
H9    H     H_    0.686914 0.167401 0.032719 0.079577
H10   H     H_    0.654048 0.061659 0.046267 0.256194
H11   H     H_    0.635419 0.106338 0.992136 0.225628
H12   H     H_    0.701003 0.056469 0.936259 0.262319
H13   H     H_    0.134378 0.463118 0.566514 0.123848
H14   H     H_    0.321028 0.856796 0.058990 0.143630
H15   H     H_    0.333418 0.861518 0.963163 0.064556
H16   H     H_    0.432381 0.916251 0.901453 0.254210
H17   H     H_    0.366794 0.954015 0.989662 0.210081
H18   H     H_    0.419285 0.912770 0.997609 0.268551
H19   H     H_    0.225743 0.118329 0.096224 0.127858
H20   H     H_    0.284990 0.114781 0.986528 0.065624
H21   H     H_    0.273503 0.005392 0.990541 0.250230
H22   H     H_    0.288604 0.029338 0.059566 0.207579
H23   H     H_    0.210996 0.007885 0.099231 0.271017
H24   H     H_    0.904387 0.561236 0.376076 0.120902
H25   H     H_    0.741858 0.858142 0.925076 0.137560
H26   H     H_    0.714331 0.853889 0.029393 0.069022
H27   H     H_    0.647293 0.941768 0.065510 0.251285
H28   H     H_    0.727927 0.958179 0.983496 0.231772
H29   H     H_    0.674251 0.946200 0.961693 0.266615
H30   H     H_    0.234685 0.661150 0.922685 0.132215
H31   H     H_    0.186891 0.667423 0.032754 0.079574
H32   H     H_    0.153992 0.561688 0.046330 0.256186
H33   H     H_    0.135349 0.606379 0.992223 0.225636
H34   H     H_    0.200918 0.556494 0.936326 0.262321
H35   H     H_    0.364902 0.963624 0.435151 0.124216
H36   H     H_    0.820929 0.356879 0.058995 0.143626
H37   H     H_    0.833321 0.361517 0.963163 0.064495
H38   H     H_    0.932276 0.416294 0.901411 0.254225
H39   H     H_    0.866660 0.454085 0.989549 0.210034
H40   H     H_    0.919141 0.412926 0.997597 0.268561
H41   H     H_    0.725710 0.618353 0.096137 0.127649
H42   H     H_    0.784935 0.614474 0.986467 0.065655
H43   H     H_    0.773015 0.505119 0.991074 0.250187
H44   H     H_    0.788192 0.529154 0.059992 0.207511
H45   H     H_    0.710507 0.507953 0.099739 0.271070
H46   H     H_    0.596089 0.061172 0.623360 0.120009
H47   H     H_    0.241765 0.358159 0.925077 0.137564
H48   H     H_    0.214264 0.353920 0.029382 0.068982
H49   H     H_    0.147166 0.441757 0.065530 0.251295
H50   H     H_    0.227789 0.458204 0.983509 0.231758
H51   H     H_    0.174112 0.446181 0.961718 0.266627
H52   H     H_    0.145906 0.927783 0.499675 0.376872
H53   H     H_    0.687283 0.165325 0.750746 0.372418
H54   H     H_    0.843059 0.923098 0.520479 0.375385
H55   H     H_    0.318929 0.170217 0.242336 0.372273
H56   H     H_    0.645923 0.427775 0.499644 0.376876
H57   H     H_    0.634378 0.963118 0.566513 0.123846
H58   H     H_    0.187298 0.665316 0.750728 0.372420
H59   H     H_    0.343063 0.423097 0.520476 0.375387
H60   H     H_    0.818937 0.670220 0.242328 0.372277
H61   H     H_    0.404387 0.061235 0.376076 0.120903
H62   H     H_    0.915194 0.694230 0.509535 0.157213
H63   H     H_    0.128186 0.330407 0.423799 0.148696
H64   H     H_    0.085708 0.694204 0.490056 0.158103
H65   H     H_    0.069004 0.439805 0.229826 0.134604
H66   H     H_    0.870661 0.331524 0.578330 0.145035
H67   H     H_    0.415195 0.194230 0.509532 0.157215
H68   H     H_    0.628187 0.830408 0.423797 0.148699
H69   H     H_    0.585710 0.194204 0.490055 0.158109
H70   H     H_    0.370658 0.831527 0.578334 0.145027
H71   H     H_    0.842278 0.273607 0.695581 0.116354
H72   H     H_    0.891360 0.229744 0.707980 0.179147
H73   H     H_    0.939550 0.181059 0.574722 0.235089
H74   H     H_    0.856198 0.171094 0.643409 0.226657
H75   H     H_    0.891340 0.224598 0.561224 0.266511
H76   H     H_    0.112360 0.537643 0.214667 0.143411
H77   H     H_    0.022829 0.712640 0.445062 0.077005
H78   H     H_    0.050861 0.732353 0.343133 0.119730
H79   H     H_    0.117186 0.811691 0.337448 0.259996
H80   H     H_    0.035932 0.821703 0.422093 0.216576
H81   H     H_    0.088030 0.792796 0.439769 0.273641
H82   H     H_    0.160413 0.274397 0.299218 0.116727
H83   H     H_    0.111449 0.232352 0.284157 0.159980
H84   H     H_    0.064203 0.178035 0.412725 0.232467
H85   H     H_    0.147700 0.170239 0.344612 0.222288
H86   H     H_    0.110920 0.220135 0.430760 0.267094
H87   H     H_    0.933775 0.437982 0.768392 0.132540
H88   H     H_    0.970463 0.721853 0.588042 0.082632
H89   H     H_    0.915827 0.738592 0.696043 0.123290
H90   H     H_    0.859273 0.807256 0.669663 0.264767
H91   H     H_    0.940115 0.827747 0.611341 0.218304
H92   H     H_    0.913065 0.790600 0.561921 0.267409
H93   H     H_    0.342281 0.773607 0.695575 0.116357
H94   H     H_    0.391365 0.729737 0.707962 0.179157
H95   H     H_    0.439553 0.681067 0.574694 0.235084
H96   H     H_    0.356201 0.671102 0.643381 0.226671
H97   H     H_    0.391342 0.724614 0.561206 0.266510
H98   H     H_    0.386722 0.035437 0.784760 0.143513
H99   H     H_    0.522822 0.212631 0.445100 0.077007
H100  H     H_    0.550818 0.232345 0.343187 0.119739
H101  H     H_    0.617148 0.311697 0.337465 0.259997
H102  H     H_    0.535900 0.321696 0.422139 0.216578
H103  H     H_    0.588027 0.292801 0.439770 0.273649
H104  H     H_    0.660413 0.774391 0.299196 0.116725
H105  H     H_    0.611431 0.732343 0.284166 0.159872
H106  H     H_    0.564205 0.678039 0.412740 0.232444
H107  H     H_    0.647701 0.670238 0.344605 0.222288
H108  H     H_    0.610940 0.720143 0.430742 0.267108
H109  H     H_    0.569010 0.939805 0.229822 0.134614
H110  H     H_    0.470445 0.221880 0.588098 0.082672
H111  H     H_    0.415768 0.238609 0.696098 0.123285
H112  H     H_    0.359227 0.307243 0.669657 0.264784
H113  H     H_    0.440056 0.327766 0.611403 0.218279
H114  H     H_    0.413071 0.290601 0.561915 0.267382
H115  H     H_    0.869717 0.074734 0.845045 0.138334
H116  H     H_    0.938356 0.121682 0.796228 0.089198
H117  H     H_    0.946498 0.128186 0.672850 0.256267
H118  H     H_    0.943075 0.051155 0.700071 0.228804
H119  H     H_    0.875197 0.085998 0.720984 0.263567
H120  H     H_    0.612355 0.037650 0.214666 0.143404
H121  H     H_    0.399721 0.727806 0.073089 0.110184
H122  H     H_    0.341800 0.669138 0.129020 0.085263
H123  H     H_    0.286541 0.730258 0.255023 0.276010
H124  H     H_    0.366221 0.716648 0.213058 0.195473
H125  H     H_    0.344204 0.788613 0.199581 0.258216
H126  H     H_    0.053536 0.107736 0.171012 0.117589
H127  H     H_    0.025226 0.181312 0.215910 0.089898
H128  H     H_    0.023551 0.152046 0.331373 0.252877
H129  H     H_    0.977316 0.101732 0.320893 0.222768
H130  H     H_    0.053206 0.079055 0.286834 0.262927
H131  H     H_    0.433774 0.937979 0.768393 0.132544
H132  H     H_    0.638883 0.780747 0.888107 0.121928
H133  H     H_    0.673451 0.707775 0.847493 0.092571
H134  H     H_    0.759997 0.753621 0.717186 0.281687
H135  H     H_    0.686097 0.773299 0.742455 0.211973
H136  H     H_    0.727896 0.827088 0.756631 0.251969
H137  H     H_    0.369639 0.574719 0.845047 0.138358
H138  H     H_    0.438299 0.621638 0.796217 0.089208
H139  H     H_    0.446436 0.628161 0.672847 0.256264
H140  H     H_    0.442970 0.551126 0.700080 0.228805
H141  H     H_    0.375109 0.586014 0.720994 0.263576
H142  H     H_    0.864902 0.463624 0.435150 0.124216
H143  H     H_    0.899611 0.227894 0.073242 0.110174
H144  H     H_    0.841686 0.169231 0.129152 0.085271
H145  H     H_    0.786363 0.230378 0.255134 0.276039
H146  H     H_    0.866020 0.216773 0.213261 0.195502
H147  H     H_    0.844032 0.288725 0.199715 0.258214
H148  H     H_    0.553199 0.608076 0.171090 0.117329
H149  H     H_    0.525164 0.681651 0.216124 0.089999
H150  H     H_    0.523599 0.651956 0.331385 0.252826
H151  H     H_    0.477088 0.601999 0.320989 0.222702
H152  H     H_    0.552937 0.578947 0.286708 0.262940
N1    N     N_R   0.945330 0.558420 0.657110 -0.064555
N2    N     N_R   0.067050 0.559540 0.548760 -0.047983
N3    N     N_R   0.067050 0.440460 0.548760 -0.050387
N4    N     N_R   0.932950 0.559540 0.451240 -0.048348
N5    N     N_R   0.432950 0.940460 0.451240 -0.050144
N6    N     N_R   0.567050 0.059540 0.548760 -0.047983
N7    N     N_R   0.567050 0.940460 0.548760 -0.050387
N8    N     N_R   0.432950 0.059540 0.451240 -0.048349
N9    N     N_R   0.935620 0.600470 0.495720 -0.062393
N10   N     N_R   0.064380 0.399530 0.504280 -0.043555
N11   N     N_R   0.064380 0.600470 0.504280 -0.063173
N12   N     N_R   0.054670 0.441580 0.342890 -0.067422
N13   N     N_R   0.935620 0.399530 0.495720 -0.043740
N14   N     N_R   0.435620 0.100470 0.495720 -0.062390
N15   N     N_R   0.564380 0.899530 0.504280 -0.043552
N16   N     N_R   0.564380 0.100470 0.504280 -0.063171
N17   N     N_R   0.435620 0.899530 0.495720 -0.043738
N18   N     N_R   0.942650 0.398400 0.612630 -0.085365
N19   N     N_R   0.057350 0.601600 0.387370 -0.115141
N20   N     N_R   0.057350 0.398400 0.387370 -0.085928
N21   N     N_R   0.942650 0.601600 0.612630 -0.110235
N22   N     N_R   0.442650 0.898400 0.612630 -0.085363
N23   N     N_R   0.054670 0.558420 0.342890 -0.065024
N24   N     N_R   0.557350 0.101600 0.387370 -0.115142
N25   N     N_R   0.557350 0.898400 0.387370 -0.085927
N26   N     N_R   0.442650 0.101600 0.612630 -0.110218
N27   N     N_R   0.945330 0.441580 0.657110 -0.065793
N28   N     N_R   0.445330 0.058420 0.657110 -0.064561
N29   N     N_R   0.554670 0.941580 0.342890 -0.067424
N30   N     N_R   0.554670 0.058420 0.342890 -0.065025
N31   N     N_R   0.445330 0.941580 0.657110 -0.065794
N32   N     N_R   0.932950 0.440460 0.451240 -0.050144
Ni1   Ni    Ni4+2 0.004930 0.500000 0.602010 0.203308
Ni2   Ni    Ni4+2 0.995070 0.500000 0.397990 0.203546
Ni3   Ni    Ni4+2 0.504930 1.000000 0.602010 0.203306
Ni4   Ni    Ni4+2 0.495070 1.000000 0.397990 0.203544
Ni5   Ni    Ni4+2 0.998800 0.599610 0.500000 0.197206
Ni6   Ni    Ni4+2 0.001200 0.400390 0.500000 0.305993
Ni7   Ni    Ni4+2 0.498800 0.099610 0.500000 0.197214
Ni8   Ni    Ni4+2 0.501200 0.900390 0.500000 0.305993
O1    O     O_3   0.938358 0.292672 0.616114 -0.628637
O2    O     O_3   0.311030 0.748179 0.112031 -0.601736
O3    O     O_3   0.115606 0.160949 0.171585 -0.622893
O4    O     O_3   0.721670 0.765749 0.869377 -0.608985
O5    O     O_3   0.358002 0.663494 0.827653 -0.632588
O6    O     O_3   0.810950 0.248256 0.112078 -0.601729
O7    O     O_3   0.615518 0.660921 0.171582 -0.622745
O8    O     O_3   0.221608 0.265728 0.869398 -0.608992
O9    O     O_3   0.764122 0.111489 0.977722 -0.613912
O10   O     O_3   0.395646 0.807659 0.964000 -0.600840
O11   O     O_3   0.194875 0.095008 0.029505 -0.594525
O12   O     O_3   0.115841 0.693757 0.351964 -0.632742
O13   O     O_3   0.648941 0.833935 0.010874 -0.597781
O14   O     O_3   0.264085 0.611490 0.977734 -0.613930
O15   O     O_3   0.895570 0.307736 0.964055 -0.600813
O16   O     O_3   0.694759 0.594977 0.029520 -0.594412
O17   O     O_3   0.148865 0.333908 0.010899 -0.597763
O18   O     O_2   0.181547 0.811296 0.465310 -0.310614
O19   O     O_2   0.083099 0.831256 0.600125 -0.320165
O20   O     O_3   0.164405 0.917188 0.526512 -0.513485
O21   O     O_2   0.771290 0.224467 0.608649 -0.331143
O22   O     O_2   0.697993 0.287116 0.727500 -0.303035
O23   O     O_3   0.064515 0.292475 0.380128 -0.627648
O24   O     O_3   0.665883 0.177553 0.728302 -0.518028
O25   O     O_2   0.812431 0.805276 0.543349 -0.321202
O26   O     O_2   0.911606 0.831709 0.412414 -0.318284
O27   O     O_3   0.826804 0.913746 0.490460 -0.515570
O28   O     O_2   0.231568 0.225722 0.385746 -0.328964
O29   O     O_2   0.306365 0.291378 0.271171 -0.302452
O30   O     O_3   0.338743 0.181602 0.267278 -0.517653
O31   O     O_2   0.681560 0.311287 0.465295 -0.310640
O32   O     O_2   0.583108 0.331254 0.600103 -0.320163
O33   O     O_3   0.664418 0.417182 0.526487 -0.513479
O34   O     O_3   0.880135 0.690003 0.648147 -0.646600
O35   O     O_2   0.271298 0.724462 0.608632 -0.331150
O36   O     O_2   0.198007 0.787108 0.727490 -0.303044
O37   O     O_3   0.165894 0.677546 0.728290 -0.518027
O38   O     O_2   0.312430 0.305275 0.543350 -0.321194
O39   O     O_2   0.411605 0.331706 0.412414 -0.318280
O40   O     O_3   0.326806 0.413745 0.490458 -0.515559
O41   O     O_2   0.731573 0.725721 0.385740 -0.328960
O42   O     O_2   0.806368 0.791381 0.271170 -0.302456
O43   O     O_3   0.838750 0.681606 0.267271 -0.517653
O44   O     O_3   0.438362 0.792673 0.616109 -0.628638
O45   O     O_3   0.615830 0.193764 0.351967 -0.632757
O46   O     O_3   0.564516 0.792475 0.380128 -0.627643
O47   O     O_3   0.380134 0.190001 0.648141 -0.646609
O48   O     O_3   0.858045 0.163497 0.827653 -0.632585
S1    S     S_3+6 0.151757 0.843537 0.544543 -0.058524
S2    S     S_3+6 0.703890 0.239037 0.672949 -0.058862
S3    S     S_3+6 0.842561 0.841106 0.466575 -0.061998
S4    S     S_3+6 0.299122 0.241650 0.324675 -0.057550
S5    S     S_3+6 0.651766 0.343532 0.544525 -0.058526
S6    S     S_3+6 0.203898 0.739031 0.672939 -0.058867
S7    S     S_3+6 0.342561 0.341104 0.466575 -0.061989
S8    S     S_3+6 0.799126 0.741651 0.324671 -0.057548

loop_
_geom_bond_atom_site_label_1
_geom_bond_atom_site_label_2
_ccdc_geom_bond_type
C65   O16   S    
C83   C102  T    
C64   H38   S    
C16   O7    S    
C39   O3    S    
C19   C20   S    
C139  H131  S    
C112  N7    A    
C10   O4    S    
C9    C149  A    
C154  C158  A    
C75   C140  S    
C73   N12   A    
C79   C142  S    
C33   H114  S    
C44   H141  S    
C59   H26   S    
C82   C99   T    
C45   H144  S    
C23   H88   S    
C130  N25   A    
C7    C68   S    
N16   Ni7   S    
N29   Ni4   S    
C2    C159  S    
C69   H51   S    
N8    N14   A    
C4    C12   A    
C110  C145  A    
C13   C160  S    
C30   H105  S    
N5    Ni4   S    
C92   C102  S    
N10   Ni6   S    
C43   H137  S    
C94   C104  S    
C59   C60   S    
C60   H28   S    
C21   C22   S    
C31   H106  S    
C130  O46   S    
C122  N17   A    
C45   C47   S    
C20   H81   S    
C27   H97   S    
C50   H4    S    
N13   Ni6   S    
C19   H78   S    
C93   C101  S    
O30   S4    S    
O42   S8    D    
C119  C148  A    
C155  C159  A    
C40   H128  S    
C63   H37   S    
C139  N31   A    
C58   H23   S    
C43   C44   S    
C36   H119  S    
C37   C38   S    
C107  H2    S    
C156  C160  A    
C28   H99   S    
C108  H13   S    
N6    N16   A    
C40   H129  S    
C111  H46   S    
C113  H61   S    
C53   H10   S    
C116  C142  A    
C109  H24   S    
C42   H136  S    
N4    Ni2   S    
C64   H40   S    
C55   H18   S    
C129  O45   S    
C62   H34   S    
C10   C160  A    
C5    C46   S    
C68   C77   T    
C57   C78   T    
C14   O5    S    
C117  H109  S    
C139  C140  A    
C18   H74   S    
C93   S1    S    
N15   Ni8   S    
C34   H115  S    
C108  N3    A    
C5    C151  A    
C54   H14   S    
C89   S5    S    
C106  N28   A    
C152  O11   S    
C91   C94   D    
C25   H91   S    
C72   C133  S    
N21   Ni5   S    
C109  C144  A    
C125  O23   S    
C3    C11   A    
C54   O10   S    
O32   S5    D    
C110  H35   S    
C61   H31   S    
C113  N8    A    
C63   H36   S    
C32   H111  S    
C47   H147  S    
C41   H133  S    
C43   O5    S    
N31   Ni3   S    
C80   C97   T    
C110  N5    A    
C51   H7    S    
N18   N27   A    
C86   C104  T    
C118  H66   S    
C58   H21   S    
C113  C148  A    
C85   C145  S    
O20   S1    S    
C71   C150  T    
H58   O37   S    
C128  C138  A    
N23   Ni2   S    
N24   N30   A    
C53   H12   S    
C95   H87   S    
C88   S6    S    
H55   O30   S    
C42   H134  S    
C44   H140  S    
C126  C132  A    
C27   H96   S    
C30   O46   S    
C21   H83   S    
C66   H44   S    
C106  C136  A    
C67   O17   S    
C156  O16   S    
C3    C24   S    
C95   C135  A    
C46   C75   T    
C17   H72   S    
C17   C18   S    
C35   C76   T    
C121  H69   S    
C31   H107  S    
O22   S2    D    
C47   H145  S    
C131  C136  A    
C111  C146  A    
C39   C40   S    
C22   H86   S    
C66   H45   S    
C123  N18   A    
C20   H80   S    
C12   O6    S    
C123  C135  A    
C89   C92   D    
C153  O13   S    
C29   H102  S    
C27   H95   S    
H52   O20   S    
C105  N32   A    
C13   C74   T    
C36   H118  S    
N28   Ni3   S    
N7    N15   A    
N26   N28   A    
C109  N4    A    
C51   H5    S    
C127  C140  A    
C49   H150  S    
C37   H121  S    
C52   C53   S    
C24   C72   T    
C56   H20   S    
C54   C55   S    
C32   O47   S    
C128  N30   A    
O35   S6    D    
C26   H93   S    
C86   C148  S    
C121  N16   A    
C90   C96   D    
C15   O8    S    
C119  N14   A    
C112  C147  A    
C124  C134  A    
C19   O12   S    
N14   Ni7   S    
N30   Ni4   S    
C33   H113  S    
O38   S7    D    
C56   C58   S    
C59   H25   S    
C34   C36   S    
C45   H143  S    
C61   C62   S    
C55   H16   S    
C63   C64   S    
C120  N15   A    
N7    Ni3   S    
C3    C157  A    
C126  O34   S    
C121  C146  A    
C69   H50   S    
C91   C99   S    
C116  N11   A    
C128  H120  S    
C88   C98   S    
C67   H48   S    
C56   O11   S    
O24   S2    S    
O36   S6    D    
C41   C42   S    
C32   H110  S    
C118  C141  A    
C8    C158  A    
C71   C134  S    
C22   H84   S    
C67   H47   S    
C84   N23   A    
C84   C134  A    
C26   C27   S    
C87   C147  S    
H56   O33   S    
C115  H63   S    
C28   C29   S    
C84   H76   S    
C77   C137  S    
C74   C132  S    
C19   H77   S    
N3    N10   A    
C30   C31   S    
O43   S8    S    
C131  O47   S    
N20   Ni6   S    
C118  N13   A    
C81   C144  S    
C149  O9    S    
C65   H42   S    
N22   Ni8   S    
C28   H100  S    
C16   C156  A    
N12   Ni2   S    
C40   H130  S    
C114  N9    A    
C49   H152  S    
C120  H68   S    
C38   H124  S    
C6    C152  A    
N9    Ni5   S    
C4    C35   S    
C1    H1    S    
C91   S7    S    
C55   H17   S    
C6    C57   S    
C10   C153  A    
C59   O13   S    
N27   Ni1   S    
C41   O4    S    
C45   O6    S    
C18   H75   S    
C34   H116  S    
O31   S5    D    
O21   S2    D    
C114  C144  A    
C54   H15   S    
C116  H64   S    
O33   S5    S    
C123  O1    S    
C83   C146  S    
N5    N17   A    
C25   H90   S    
C95   N27   A    
N6    Ni3   S    
C50   C51   S    
C114  H62   S    
N24   Ni7   S    
C5    C14   A    
N13   N32   A    
C48   C49   S    
C43   H138  S    
N4    N9    A    
C60   H27   S    
C33   H112  S    
C61   H30   S    
C124  O12   S    
N19   Ni5   S    
C11   O3    S    
C41   H132  S    
C8    O2    S    
N26   Ni7   S    
C150  C158  S    
C50   H3    S    
H60   O43   S    
O18   S1    D    
O29   S4    D    
C52   H9    S    
H53   O24   S    
C81   C100  T    
C76   C138  S    
C58   H22   S    
C39   H127  S    
C32   C33   S    
C131  N26   A    
C23   H89   S    
C117  N29   A    
C61   O14   S    
C105  H142  S    
C94   S4    S    
N2    Ni1   S    
C53   H11   S    
C92   S2    S    
N2    N11   A    
C42   H135  S    
C120  C147  A    
C90   S8    S    
C80   C141  S    
C64   H39   S    
C62   H33   S    
C2    C70   T    
C130  C137  A    
N19   N23   A    
C108  C143  A    
N25   N29   A    
C23   O34   S    
C21   H82   S    
N22   N31   A    
C1    N1    A    
N18   Ni6   S    
C79   C98   T    
C1    C132  A    
C17   H71   S    
C18   H73   S    
C119  H67   S    
C4    C149  A    
O28   S4    D    
N1    Ni1   S    
C52   O9    S    
C15   C157  A    
C105  C141  A    
C25   H92   S    
C127  O44   S    
C9    C159  A    
C124  N19   A    
N3    Ni1   S    
C122  C145  A    
H54   O27   S    
C96   S3    S    
C129  N24   A    
C6    C15   A    
C127  N22   A    
C129  C138  A    
C60   H29   S    
C29   H101  S    
C112  H57   S    
O41   S8    D    
C21   O23   S    
C90   C100  S    
C115  N10   A    
C39   H126  S    
C63   O15   S    
C122  H70   S    
C115  C143  A    
C126  N21   A    
C155  O15   S    
N1    N21   A    
C48   H148  S    
C8    C151  A    
C26   H94   S    
N25   Ni8   S    
C62   H32   S    
C28   O45   S    
C17   O1    S    
C89   C97   S    
C67   C69   S    
C50   O8    S    
C154  O14   S    
C7    C153  A    
O25   S3    D    
C44   H139  S    
C125  N20   A    
O26   S3    D    
C107  C142  A    
C34   O48   S    
C66   H43   S    
C38   H123  S    
C73   C133  A    
C26   O44   S    
C87   C103  T    
C69   H49   S    
N8    Ni4   S    
C12   C155  A    
O40   S7    S    
C85   C101  T    
C111  N6    A    
C106  H98   S    
C125  C133  A    
C88   C93   D    
C7    C16   A    
C31   H108  S    
C151  O10   S    
C117  C137  A    
O37   S6    S    
O27   S3    S    
C82   C143  S    
C22   H85   S    
N12   N20   A    
C20   H79   S    
O19   S1    D    
C49   H151  S    
C52   H8    S    
C73   H65   S    
C107  N2    A    
C70   C135  S    
O39   S7    D    
C37   O2    S    
C29   H103  S    
C9    O48   S    
C47   H146  S    
C30   H104  S    
C23   C25   S    
C48   H149  S    
C36   H117  S    
C11   C152  A    
C65   H41   S    
C65   C66   S    
N32   Ni2   S    
N11   Ni5   S    
C157  O17   S    
C51   H6    S    
N17   Ni8   S    
C96   C103  S    
C48   O7    S    
C78   C136  S    
C37   H122  S    
C14   C154  A    
H59   O40   S    
C38   H125  S    
C56   H19   S    
