data_mof_unit_23569.cif
_audit_creation_date              2012-12-10T17:52:34-0500
_audit_creation_method            fapswitch 2.2
_symmetry_space_group_name_H-M    P1
_symmetry_Int_Tables_number       1
_space_group_crystal_system       triclinic
_cell_length_a                    14.687945
_cell_length_b                    14.697534
_cell_length_c                    23.503626
_cell_angle_alpha                 76.972814
_cell_angle_beta                  102.820953
_cell_angle_gamma                 114.603129
_cell_volume                      4447.29729233

loop_
_atom_site_label
_atom_site_type_symbol
_atom_type_description
_atom_site_fract_x
_atom_site_fract_y
_atom_site_fract_z
_atom_type_partial_charge
C1    C     C_R   0.880444 0.312339 0.509937 0.809942
C2    C     C_R   0.119588 0.687701 0.490185 0.810408
C3    C     C_R   0.075682 0.480676 0.774557 0.408599
C4    C     C_R   0.928439 0.526050 0.225071 0.410315
C5    C     C_R   0.075306 0.481710 0.714870 -0.286473
C6    C     C_R   0.929395 0.525997 0.284704 -0.284598
C7    C     C_R   0.998944 0.499432 0.671673 -0.096508
C8    C     C_R   0.001064 0.500547 0.328332 -0.093514
C9    C     C_R   0.922402 0.516385 0.688854 -0.186471
C10   C     C_R   0.072771 0.475581 0.311601 -0.199206
C11   C     C_R   0.922420 0.515851 0.748194 -0.146225
C12   C     C_R   0.072479 0.475654 0.252290 -0.151726
C13   C     C_R   0.998615 0.498335 0.791146 0.246522
C14   C     C_R   0.000810 0.500649 0.208921 0.249602
C15   C     C_R   0.813062 0.205038 0.513693 -0.058622
C16   C     C_R   0.187088 0.795145 0.484083 -0.057058
C17   C     C_R   0.783979 0.028735 0.521074 -0.146663
C18   C     C_R   0.215731 0.972837 0.464955 -0.140475
C19   C     C_R   0.850652 0.129271 0.521062 -0.176555
C20   C     C_R   0.149222 0.871767 0.469519 -0.174444
C21   C     C_R   0.708725 0.179230 0.507261 -0.206524
C22   C     C_R   0.291623 0.820570 0.493334 -0.213168
C23   C     C_R   0.999572 0.499886 0.609032 0.833719
C24   C     C_R   0.000480 0.500195 0.390964 0.831888
C25   C     C_R   0.639583 0.079161 0.504291 0.091140
C26   C     C_R   0.360361 0.921781 0.487304 0.094182
C27   C     C_R   0.679093 0.003224 0.512529 0.150159
C28   C     C_R   0.320661 0.998343 0.474020 0.156998
C29   C     C_R   0.532826 0.052632 0.493476 0.058483
C30   C     C_R   0.467030 0.948759 0.495074 0.060111
C31   C     C_R   0.510011 0.875594 0.503270 -0.131083
C32   C     C_R   0.489692 0.126557 0.479644 -0.151627
C33   C     C_R   0.613816 0.902647 0.511719 -0.131002
C34   C     C_R   0.385802 0.099612 0.469911 -0.143491
C35   C     C_R   0.720151 0.674823 0.405584 -0.214510
C36   C     C_R   0.277731 0.321724 0.591256 -0.210278
C37   C     C_R   0.799406 0.641711 0.419524 0.058571
C38   C     C_R   0.199927 0.356687 0.579259 0.059005
C39   C     C_R   0.713071 0.507955 0.489900 0.034543
C40   C     C_R   0.286449 0.492071 0.509673 0.041769
C41   C     C_R   0.627656 0.535601 0.476443 -0.039926
C42   C     C_R   0.370242 0.462196 0.520891 -0.044888
C43   C     C_R   0.634016 0.623840 0.434567 0.031012
C44   C     C_R   0.362901 0.372247 0.561418 0.014584
C45   C     C_R   0.056914 0.587213 0.115019 0.609742
C46   C     C_R   0.942329 0.411878 0.885012 0.611137
C47   C     C_R   0.538039 0.479958 0.503929 0.007224
C48   C     C_R   0.459000 0.516972 0.492411 0.029419
C49   C     C_R   0.471256 0.607869 0.453015 -0.319234
C50   C     C_R   0.524298 0.387132 0.541464 -0.297799
C51   C     C_R   0.555286 0.659808 0.423365 0.373636
C52   C     C_R   0.439445 0.333855 0.570237 0.425228
C53   C     C_R   0.948802 0.411678 0.125124 0.608348
C54   C     C_R   0.050790 0.587309 0.874967 0.608379
C55   C     C_R   0.946341 0.409768 0.065409 -0.021235
C56   C     C_R   0.053205 0.589230 0.934674 -0.023700
C57   C     C_R   0.000622 0.499464 0.030173 -0.008355
C58   C     C_R   0.998790 0.499575 0.969887 -0.008016
C59   C     C_R   0.056820 0.589021 0.055096 -0.023777
C60   C     C_R   0.942461 0.410059 0.944942 -0.021113
C61   C     C_R   0.890541 0.320917 0.040108 -0.120768
C62   C     C_R   0.108962 0.678094 0.959968 -0.120758
C63   C     C_R   0.888512 0.321095 0.980458 -0.120388
C64   C     C_R   0.110812 0.677971 0.019588 -0.118937
Cu1   Cu    Cu3+1 0.081740 0.475680 0.515360 0.953762
Cu2   Cu    Cu3+1 0.918260 0.524320 0.484640 0.955576
H1    H     H_    0.848103 0.251056 0.066253 0.201829
H2    H     H_    0.151467 0.747935 0.933834 0.201037
H3    H     H_    0.814366 0.970948 0.526959 0.145882
H4    H     H_    0.185140 0.031205 0.454405 0.145607
H5    H     H_    0.465917 0.796365 0.501808 0.144767
H6    H     H_    0.533692 0.206741 0.474517 0.143705
H7    H     H_    0.282312 0.554861 0.476920 0.122482
H8    H     H_    0.717873 0.447038 0.524107 0.128290
H9    H     H_    0.133886 0.315960 0.601407 0.134702
H10   H     H_    0.865753 0.682304 0.397632 0.141223
H11   H     H_    0.728341 0.740885 0.372541 0.221642
H12   H     H_    0.269184 0.254552 0.623443 0.217652
H13   H     H_    0.415902 0.640955 0.444348 0.159024
H14   H     H_    0.578275 0.352644 0.548261 0.185633
H15   H     H_    0.844761 0.251308 0.962337 0.201310
H16   H     H_    0.154500 0.747778 0.037699 0.201498
H17   H     H_    0.134897 0.468973 0.702042 0.196384
H18   H     H_    0.874230 0.546023 0.297136 0.193710
H19   H     H_    0.862525 0.530044 0.656518 0.173371
H20   H     H_    0.128979 0.455853 0.344275 0.170263
H21   H     H_    0.863156 0.529289 0.760967 0.167114
H22   H     H_    0.128086 0.456182 0.239855 0.164413
H23   H     H_    0.643192 0.844085 0.517432 0.153544
H24   H     H_    0.356259 0.158808 0.459435 0.151656
H25   H     H_    0.317496 0.759491 0.506502 0.148619
H26   H     H_    0.683555 0.239046 0.505114 0.152645
H27   H     H_    0.068525 0.853681 0.462263 0.159780
H28   H     H_    0.931242 0.147704 0.526307 0.160692
N1    N     N_R   0.002270 0.499833 0.148303 -0.461291
N2    N     N_R   0.997150 0.499210 0.851756 -0.460795
N3    N     N_R   0.795430 0.560810 0.461550 -0.183025
N4    N     N_R   0.204570 0.439190 0.538450 -0.180999
O1    O     O_R   0.977900 0.338110 0.520250 -0.590272
O2    O     O_R   0.022100 0.661890 0.479750 -0.589212
O3    O     O_R   0.839850 0.379180 0.494310 -0.589355
O4    O     O_R   0.160150 0.620820 0.505690 -0.590649
O5    O     O_R   0.069020 0.479430 0.595090 -0.580195
O6    O     O_R   0.930980 0.520570 0.404910 -0.580670
O7    O     O_R   0.930970 0.520500 0.569150 -0.584387
O8    O     O_R   0.069030 0.479500 0.430850 -0.586560
O9    O     O_2   0.110596 0.672013 0.139847 -0.492631
O10   O     O_2   0.888818 0.327029 0.860211 -0.497792
O11   O     O_2   0.897528 0.326574 0.159698 -0.498609
O12   O     O_2   0.101902 0.672468 0.840371 -0.493828
S1    S     S_3+6 0.559371 0.771480 0.373206 0.005920
O13   O     O_2   0.652793 0.859440 0.391892 -0.269728
O14   O     O_2   0.563415 0.758133 0.312367 -0.256723
O15   O     O_3   0.457469 0.797760 0.371196 -0.513584
H29   H     H_    0.401987 0.750775 0.346448 0.356201
S2    S     S_3+6 0.430696 0.216582 0.615268 -0.007636
O16   O     O_2   0.430586 0.223583 0.678067 -0.245017
O17   O     O_2   0.333733 0.134339 0.594052 -0.317225
O18   O     O_3   0.528851 0.187501 0.612472 -0.548169
H30   H     H_    0.508592 0.114901 0.629299 0.389556
S3    S     S_3+6 0.173417 0.458308 0.827450 0.061369
O19   O     O_2   0.239287 0.553349 0.853416 -0.197951
O20   O     O_2   0.128993 0.375595 0.876178 -0.263058
O21   O     O_3   0.245260 0.424874 0.796254 -0.486518
H31   H     H_    0.202001 0.355452 0.787677 0.351559
S4    S     S_3+6 0.837071 0.558822 0.171555 0.061752
O22   O     O_2   0.889618 0.655824 0.133125 -0.202903
O23   O     O_2   0.780118 0.477097 0.133487 -0.258206
O24   O     O_3   0.754711 0.575217 0.203851 -0.486249
H32   H     H_    0.711387 0.506126 0.220425 0.353517

loop_
_geom_bond_atom_site_label_1
_geom_bond_atom_site_label_2
_ccdc_geom_bond_type
C18   H4    S    
C20   H27   S    
C17   H3    S    
S4    O22   D    
C53   N1    A    
Cu1   O8    S    
S1    O13   D    
C38   N4    A    
C1    O1    A    
C37   N3    A    
O15   H29   S    
C39   C41   A    
C40   H7    S    
C15   C19   A    
C59   C64   A    
C63   H15   S    
C60   C63   A    
Cu2   N3    S    
C35   C37   A    
Cu1   N4    S    
C29   C32   A    
C40   N4    A    
C30   C31   A    
C5    H17   S    
C39   N3    A    
C2    O4    A    
C58   C60   A    
C23   O7    A    
S2    O16   D    
C54   O12   S    
C39   H8    S    
Cu2   O2    S    
C61   C63   A    
S3    O21   S    
C62   C64   A    
C9    H19   S    
C23   O5    A    
C11   H21   S    
C49   C51   A    
C46   O10   S    
C50   C52   A    
C22   H25   S    
C31   C33   A    
C1    C15   S    
C51   S1    S    
C56   C58   A    
C2    C16   S    
C54   N2    A    
C3    C13   A    
C44   C52   A    
C40   C42   A    
C28   C34   A    
C41   C43   A    
Cu2   O3    S    
C42   C44   A    
Cu1   O4    S    
C47   C50   A    
C38   H9    S    
C53   C55   A    
C25   C29   A    
C54   C56   A    
C6    H18   S    
C12   H22   S    
C13   N2    S    
C17   C27   A    
Cu2   O6    S    
C18   C28   A    
Cu1   O1    S    
C4    C6    A    
C5    C7    A    
C17   C19   A    
C6    C8    A    
S4    O24   S    
C35   H11   S    
C27   C33   A    
C49   H13   S    
C24   O6    A    
C32   C34   A    
C34   H24   S    
C29   C30   A    
C33   H23   S    
C61   H1    S    
C47   C48   A    
C16   C20   A    
C41   C47   A    
S1    O14   D    
C42   C48   A    
S4    O23   D    
C9    C11   A    
C64   H16   S    
S3    O19   D    
C19   H28   S    
C10   C12   A    
C8    C10   A    
C48   C49   A    
C37   H10   S    
C12   C14   A    
C26   C30   A    
C55   C57   A    
C56   C62   A    
C36   C44   A    
C24   O8    A    
Cu1   O5    S    
Cu2   O7    S    
C45   N1    A    
C1    O3    A    
C14   N1    S    
C35   C43   A    
O24   H32   S    
C53   O11   S    
C52   S2    S    
C7    C9    A    
C21   C25   A    
C10   H20   S    
C16   C22   A    
C46   C60   A    
C3    C5    A    
C50   H14   S    
O18   H30   S    
C62   H2    S    
C25   C27   A    
C26   C28   A    
S2    O18   S    
C4    S4    S    
C36   C38   A    
C36   H12   S    
C11   C13   A    
C43   C51   A    
C57   C58   A    
C7    C23   S    
C55   C61   A    
C31   H5    S    
C8    C24   S    
S2    O17   D    
S1    O15   S    
C18   C20   A    
C4    C14   A    
S3    O20   D    
C57   C59   A    
C2    O2    A    
C3    S3    S    
C15   C21   A    
C46   N2    A    
C45   C59   A    
Cu1   Cu2   S    
C22   C26   A    
C45   O9    S    
O21   H31   S    
C32   H6    S    
C21   H26   S    
