data_mof_unit_11924.cif
_audit_creation_date              2012-12-10T17:05:15-0500
_audit_creation_method            fapswitch 2.2
_symmetry_space_group_name_H-M    P1
_symmetry_Int_Tables_number       1
_space_group_crystal_system       triclinic
_cell_length_a                    10.07199
_cell_length_b                    10.698772
_cell_length_c                    15.533391
_cell_angle_alpha                 90.097528
_cell_angle_beta                  66.705845
_cell_angle_gamma                 89.570097
_cell_volume                      1537.34217006

loop_
_atom_site_label
_atom_site_type_symbol
_atom_type_description
_atom_site_fract_x
_atom_site_fract_y
_atom_site_fract_z
_atom_type_partial_charge
C1    C     C_R   0.497370 0.737311 0.504137 0.944918
C2    C     C_R   0.736335 0.506752 0.026964 0.180369
C3    C     C_R   0.595261 0.465476 0.083077 0.096725
C4    C     C_R   0.408250 0.495878 0.676416 0.862795
C5    C     C_R   0.835429 0.531994 0.067868 -0.216187
C6    C     C_R   0.792205 0.524905 0.164967 -0.198210
C7    C     C_R   0.554365 0.461132 0.179859 -0.271143
C8    C     C_2   0.608478 0.066234 0.498144 -0.211268
C9    C     C_2   0.524299 0.133510 0.466278 -0.032787
C10   C     C_2   0.614193 0.932346 0.494012 -0.167944
C11   C     C_2   0.491813 0.869415 0.514998 -0.375814
C12   C     C_R   0.422739 0.461026 0.910301 0.093852
C13   C     C_2   0.088705 0.406086 0.473805 -0.107764
C14   C     C_2   0.930898 0.399804 0.491551 -0.168334
C15   C     C_R   0.504851 0.262999 0.492859 0.880617
C16   C     C_R   0.591318 0.499130 0.323696 0.851387
C17   C     C_R   0.350258 0.475746 0.778390 -0.097634
C18   C     C_R   0.649448 0.493489 0.221273 -0.064986
C19   C     C_R   0.189420 0.380124 0.923473 -0.251215
C20   C     C_R   0.219946 0.411236 0.830010 0.090680
C21   C     C_R   0.443390 0.506839 0.821922 -0.289047
C22   C     C_3   0.460655 0.085084 0.397982 -0.412780
C23   C     C_R   0.290332 0.401888 0.962878 0.147131
C24   C     C_3   0.509687 0.163459 0.308140 -0.353019
C25   C     C_3   0.460354 0.106380 0.235725 -0.895180
C26   C     C_3   0.059706 0.585033 0.573544 -0.180899
C27   C     C_3   0.060174 0.719070 0.536794 -0.362893
C28   C     C_3   0.922051 0.790651 0.595817 -0.958143
C29   C     C_3   0.116978 0.364580 0.787934 -0.419906
C30   C     C_3   0.174498 0.243545 0.732054 -0.292456
C31   C     C_3   0.077931 0.201008 0.682982 -0.867448
C32   C     C_R   0.530437 0.472083 0.947441 0.081213
C33   C     C_R   0.495286 0.438837 0.042113 0.066046
C34   C     C_R   0.361645 0.379624 0.092701 -0.240502
C35   C     C_R   0.261678 0.361072 0.053321 -0.227740
C36   C     C_R   0.673346 0.510909 0.892408 -0.230098
C37   C     C_R   0.774841 0.525969 0.931535 -0.265924
H1    H     H_    0.161468 0.313940 0.093918 0.147987
H2    H     H_    0.867835 0.549051 0.196018 0.158791
H3    H     H_    0.882577 0.556901 0.887411 0.143981
H4    H     H_    0.090116 0.331668 0.964127 0.142775
H5    H     H_    0.535229 0.564486 0.783806 0.160615
H6    H     H_    0.333157 0.341552 0.161855 0.148607
H7    H     H_    0.711526 0.526825 0.817999 0.148191
H8    H     H_    0.505877 0.010607 0.216260 0.268386
H9    H     H_    0.340462 0.102450 0.264091 0.257685
H10   H     H_    0.498881 0.164747 0.171603 0.257499
H11   H     H_    0.462982 0.258871 0.324809 0.232745
H12   H     H_    0.944384 0.561537 0.025181 0.148163
H13   H     H_    0.629560 0.170354 0.277088 0.225902
H14   H     H_    0.494995 0.987639 0.375408 0.233483
H15   H     H_    0.340699 0.087557 0.433104 0.195456
H16   H     H_    0.825768 0.744519 0.592535 0.277463
H17   H     H_    0.909912 0.795448 0.670018 0.266525
H18   H     H_    0.927535 0.887340 0.568780 0.256118
H19   H     H_    0.152038 0.772061 0.540105 0.238681
H20   H     H_    0.073788 0.718585 0.462275 0.211008
H21   H     H_    0.948904 0.550457 0.614446 0.161303
H22   H     H_    0.106008 0.590119 0.627100 0.183329
H23   H     H_    0.665876 0.109456 0.536664 0.155970
H24   H     H_    0.967347 0.181318 0.735319 0.255880
H25   H     H_    0.071711 0.274397 0.634350 0.270959
H26   H     H_    0.123578 0.114464 0.642027 0.239550
H27   H     H_    0.285689 0.256939 0.678919 0.226180
H28   H     H_    0.178996 0.168632 0.780379 0.209833
H29   H     H_    0.009941 0.343998 0.844445 0.196190
H30   H     H_    0.094843 0.437923 0.745079 0.207995
H31   H     H_    0.718118 0.886391 0.477162 0.182155
H32   H     H_    0.387374 0.916356 0.536827 0.151798
H33   H     H_    0.156073 0.326414 0.439261 0.141964
H34   H     H_    0.882787 0.308611 0.495260 0.164092
H35   H     H_    0.907479 0.579789 0.474474 0.201642
H36   H     H_    0.444673 0.440231 0.225273 0.161664
N1    N     N_2   0.148330 0.498670 0.499030 -0.080468
N2    N     N_2   0.852680 0.498640 0.499000 -0.197416
O1    O     O_R   0.386950 0.680940 0.500010 -0.627032
O2    O     O_R   0.613110 0.680900 0.499990 -0.613046
O3    O     O_R   0.322330 0.500030 0.632270 -0.628919
O4    O     O_R   0.548480 0.499990 0.632240 -0.598952
O5    O     O_R   0.386890 0.319100 0.500010 -0.618127
O6    O     O_R   0.613050 0.319060 0.499990 -0.622051
O7    O     O_R   0.451520 0.500010 0.367760 -0.612751
O8    O     O_R   0.677670 0.499970 0.367730 -0.605485
Zn1   Zn    Zn3+2 0.349000 0.500030 0.500020 0.913053
Zn2   Zn    Zn3+2 0.651000 0.499970 0.499980 0.924220

loop_
_geom_bond_atom_site_label_1
_geom_bond_atom_site_label_2
_ccdc_geom_bond_type
C30   H27   S    
C1    O2    A    
C14   H34   S    
C31   H24   S    
C19   C20   A    
C1    C11   S    
O5    Zn1   S    
O1    Zn1   S    
C7    H36   S    
C12   C23   A    
C26   C27   S    
C32   C36   A    
C36   C37   A    
C37   H3    S    
C3    C7    A    
C30   C31   S    
C9    C22   S    
C13   H33   S    
C3    C33   A    
C17   C20   A    
C34   C35   A    
C29   H30   S    
N2    Zn2   S    
C8    C9    D    
C26   H22   S    
C25   H10   S    
O2    Zn2   S    
C13   C14   S    
C12   C32   A    
C31   H25   S    
C5    H12   S    
H35   N2    S    
C28   H18   S    
C20   C29   S    
C24   H13   S    
C6    C18   A    
C24   H11   S    
C31   H26   S    
C35   H1    S    
C24   C25   S    
C4    O4    A    
C15   O6    A    
C27   H20   S    
C28   H17   S    
C27   H19   S    
C12   C21   A    
C16   O8    A    
C17   C21   A    
C21   H5    S    
C19   C23   A    
C4    O3    A    
C29   C30   S    
C15   O5    A    
C7    C18   A    
C16   O7    A    
C33   C34   A    
C26   H21   S    
C4    C17   S    
C8    C10   S    
O8    Zn2   S    
C23   C35   A    
C22   C24   S    
C36   H7    S    
C2    C5    A    
C25   H8    S    
O4    Zn2   S    
C22   H15   S    
C1    O1    A    
C34   H6    S    
N1    Zn1   S    
C28   H16   S    
C11   H32   S    
C10   H31   S    
O7    Zn1   S    
C32   C33   A    
C2    C3    A    
C9    C15   S    
C8    H23   S    
C2    C37   A    
C5    C6    A    
C26   N1    S    
C30   H28   S    
C10   C11   D    
C29   H29   S    
O3    Zn1   S    
C13   N1    D    
C16   C18   S    
C27   C28   S    
C6    H2    S    
C25   H9    S    
O6    Zn2   S    
C19   H4    S    
C14   N2    D    
C22   H14   S    
