data_mof_unit_63274.cif
_audit_creation_date              2012-12-10T18:57:38-0500
_audit_creation_method            fapswitch 2.2
_symmetry_space_group_name_H-M    P1
_symmetry_Int_Tables_number       1
_space_group_crystal_system       triclinic
_cell_length_a                    37.236861
_cell_length_b                    30.25985
_cell_length_c                    21.487241
_cell_angle_alpha                 89.879467
_cell_angle_beta                  54.335472
_cell_angle_gamma                 90.00485
_cell_volume                      19670.3796645

loop_
_atom_site_label
_atom_site_type_symbol
_atom_type_description
_atom_site_fract_x
_atom_site_fract_y
_atom_site_fract_z
_atom_type_partial_charge
C1    C     C_R   0.913661 0.499990 0.584666 0.962402
C2    C     C_R   0.086330 0.500040 0.413821 0.940558
C3    C     C_R   0.413661 0.999990 0.584666 0.962402
C4    C     C_R   0.586330 0.000040 0.413821 0.940557
C5    C     C_3   0.013503 0.454718 0.198984 -0.417493
C6    C     C_3   0.987186 0.455045 0.801001 -0.395245
C7    C     C_3   0.513503 0.954718 0.198985 -0.417492
C8    C     C_3   0.487196 0.955043 0.800991 -0.395246
C9    C     C_R   0.796308 0.461169 0.709203 -0.257120
C10   C     C_R   0.203473 0.462450 0.281766 -0.250315
C11   C     C_R   0.296308 0.961169 0.709203 -0.257115
C12   C     C_R   0.703473 0.962450 0.281766 -0.250315
C13   C     C_R   0.842063 0.460700 0.663103 -0.193662
C14   C     C_R   0.157719 0.461978 0.327551 -0.127901
C15   C     C_R   0.342063 0.960700 0.663103 -0.193646
C16   C     C_R   0.657719 0.961978 0.327551 -0.127901
C17   C     C_R   0.865594 0.500192 0.631271 -0.061488
C18   C     C_R   0.134320 0.500373 0.366121 -0.066138
C19   C     C_R   0.365594 0.000192 0.631272 -0.061469
C20   C     C_R   0.634320 0.000373 0.366121 -0.066137
C21   C     C_R   0.842982 0.540101 0.644914 -0.275988
C22   C     C_R   0.156959 0.539289 0.358720 -0.330192
C23   C     C_R   0.342982 0.040101 0.644917 -0.275993
C24   C     C_R   0.656959 0.039289 0.358720 -0.330192
C25   C     C_R   0.796789 0.540770 0.690762 0.484214
C26   C     C_R   0.203145 0.539970 0.312985 0.483795
C27   C     C_R   0.296789 0.040770 0.690765 0.484217
C28   C     C_R   0.703145 0.039970 0.312985 0.483796
C29   C     C_R   0.773780 0.500945 0.722868 0.048494
C30   C     C_R   0.226106 0.501139 0.274803 0.045833
C31   C     C_R   0.273780 0.000945 0.722869 0.048496
C32   C     C_R   0.726106 0.001139 0.274803 0.045833
C33   C     C_R   0.702864 0.512725 0.741052 -0.083666
C34   C     C_R   0.296756 0.509862 0.259036 -0.079064
C35   C     C_R   0.202864 0.012725 0.741053 -0.083668
C36   C     C_R   0.796756 0.009862 0.259036 -0.079064
C37   C     C_R   0.657058 0.512377 0.787569 -0.186580
C38   C     C_R   0.342572 0.509431 0.213133 -0.186182
C39   C     C_R   0.157058 0.012377 0.787569 -0.186580
C40   C     C_R   0.842572 0.009431 0.213133 -0.186182
C41   C     C_R   0.634202 0.500154 0.864830 -0.039705
C42   C     C_R   0.365752 0.499951 0.134834 -0.040694
C43   C     C_R   0.134202 0.000154 0.864830 -0.039705
C44   C     C_R   0.865752 0.999951 0.134834 -0.040695
C45   C     C_R   0.001695 0.500019 0.376928 0.912578
C46   C     C_R   0.998521 0.499859 0.622946 0.930384
C47   C     C_R   0.501695 0.000019 0.376928 0.912579
C48   C     C_R   0.498523 0.999859 0.622945 0.930377
C49   C     C_R   0.657494 0.488001 0.895069 -0.169730
C50   C     C_R   0.342741 0.490561 0.102995 -0.166686
C51   C     C_R   0.157494 0.988000 0.895069 -0.169731
C52   C     C_R   0.842741 0.990561 0.102995 -0.166686
C53   C     C_R   0.703326 0.487923 0.848240 -0.152786
C54   C     C_R   0.296936 0.490686 0.149089 -0.156194
C55   C     C_R   0.203326 0.987923 0.848240 -0.152782
C56   C     C_R   0.796936 0.990686 0.149089 -0.156194
C57   C     C_R   0.725903 0.500528 0.771469 0.150436
C58   C     C_R   0.274015 0.500613 0.226908 0.149928
C59   C     C_R   0.225903 0.000528 0.771470 0.150434
C60   C     C_R   0.774015 0.000613 0.226908 0.149928
C61   C     C_R   0.000032 0.586289 0.000009 0.919819
C62   C     C_R   0.500032 0.086289 0.000009 0.919817
C63   C     C_R   0.999829 0.500992 0.121565 0.857824
C64   C     C_R   0.000217 0.501733 0.878448 0.851000
C65   C     C_R   0.499829 0.000992 0.121565 0.857824
C66   C     C_R   0.500217 0.001734 0.878448 0.850998
C67   C     C_R   0.999965 0.413666 0.000172 0.917614
C68   C     C_R   0.499965 0.913666 0.000172 0.917617
C69   C     C_R   0.500016 0.413705 0.000039 0.884514
C70   C     C_R   0.000016 0.913705 0.000039 0.884514
C71   C     C_R   0.586217 0.500022 0.913546 0.861960
C72   C     C_R   0.413767 0.499952 0.086430 0.863240
C73   C     C_R   0.086217 0.000021 0.913546 0.861960
C74   C     C_R   0.913767 0.999952 0.086430 0.863240
C75   C     C_R   0.499957 0.586053 0.000005 0.848170
C76   C     C_R   0.999957 0.086053 0.000005 0.848170
C77   C     C_R   0.040751 0.703297 0.958557 0.442214
C78   C     C_R   0.959596 0.703257 0.041593 0.388201
C79   C     C_R   0.540751 0.203297 0.958557 0.442214
C80   C     C_R   0.459595 0.203257 0.041593 0.388202
C81   C     C_3   0.954887 0.511517 0.333408 -0.519341
C82   C     C_3   0.043528 0.516609 0.668429 -0.518503
C83   C     C_3   0.454887 0.011517 0.333408 -0.519341
C84   C     C_3   0.543525 0.016620 0.668433 -0.518494
C85   C     C_R   0.040231 0.657396 0.958886 -0.246625
C86   C     C_R   0.960021 0.657356 0.041303 -0.276643
C87   C     C_R   0.540231 0.157396 0.958885 -0.246626
C88   C     C_R   0.460021 0.157356 0.041303 -0.276645
C89   C     C_R   0.000099 0.634379 0.000041 -0.186640
C90   C     C_R   0.500099 0.134379 0.000041 -0.186640
C91   C     C_R   0.000200 0.726252 0.000066 -0.225794
C92   C     C_R   0.500200 0.226252 0.000066 -0.225794
C93   C     C_R   0.501646 0.296813 0.942063 -0.018090
C94   C     C_R   0.498794 0.296699 0.057970 -0.017100
C95   C     C_R   0.001646 0.796813 0.942063 -0.018090
C96   C     C_R   0.998794 0.796699 0.057970 -0.017099
C97   C     C_R   0.501552 0.342589 0.942029 -0.167520
C98   C     C_R   0.498740 0.342485 0.058044 -0.170518
C99   C     C_R   0.001552 0.842589 0.942029 -0.167519
C100  C     C_R   0.998740 0.842485 0.058045 -0.170518
C101  C     C_R   0.500097 0.365663 0.000056 -0.056239
C102  C     C_R   0.000097 0.865663 0.000056 -0.056239
C103  C     C_R   0.500250 0.274080 0.000010 0.207167
C104  C     C_R   0.000249 0.774080 0.000010 0.207166
C105  C     C_R   0.036442 0.297326 0.991675 0.399711
C106  C     C_R   0.962345 0.296395 0.019862 0.458184
C107  C     C_R   0.536442 0.797326 0.991675 0.399713
C108  C     C_R   0.462345 0.796396 0.019862 0.458184
C109  C     C_R   0.036531 0.343104 0.987996 -0.186055
C110  C     C_R   0.962760 0.342530 0.018240 -0.319947
C111  C     C_R   0.536531 0.843104 0.987996 -0.186055
C112  C     C_R   0.462760 0.842530 0.018240 -0.319945
C113  C     C_R   0.999839 0.365718 0.001731 -0.179652
C114  C     C_R   0.499839 0.865718 0.001731 -0.179654
C115  C     C_3   0.953853 0.513025 0.262981 -0.363582
C116  C     C_3   0.046334 0.513792 0.736890 -0.369514
C117  C     C_3   0.453853 0.013025 0.262981 -0.363580
C118  C     C_3   0.546331 0.013803 0.736893 -0.369521
C119  C     C_R   0.999294 0.273797 0.006395 -0.043580
C120  C     C_R   0.499294 0.773797 0.006395 -0.043581
C121  C     C_R   0.467797 0.702206 0.070297 -0.071440
C122  C     C_R   0.530494 0.703818 0.936659 -0.144618
C123  C     C_R   0.967797 0.202206 0.070297 -0.071440
C124  C     C_R   0.030494 0.203818 0.936659 -0.144618
C125  C     C_R   0.466575 0.656449 0.068893 0.404144
C126  C     C_R   0.531793 0.658003 0.934337 0.414708
C127  C     C_R   0.966575 0.156449 0.068893 0.404144
C128  C     C_R   0.031793 0.158003 0.934337 0.414708
C129  C     C_R   0.499319 0.633909 0.000821 -0.278739
C130  C     C_R   0.999319 0.133909 0.000821 -0.278739
C131  C     C_R   0.499285 0.725733 0.004530 -0.063172
C132  C     C_R   0.999285 0.225733 0.004530 -0.063172
C133  C     C_3   0.034049 0.537200 0.250225 0.315377
C134  C     C_3   0.960879 0.531617 0.754555 0.320452
C135  C     C_3   0.534049 0.037200 0.250225 0.315377
C136  C     C_3   0.460873 0.031609 0.754560 0.320439
C137  C     C_3   0.014489 0.454068 0.269294 -0.339953
C138  C     C_3   0.990409 0.452670 0.726564 -0.325874
C139  C     C_3   0.514490 0.954067 0.269294 -0.339954
C140  C     C_3   0.490420 0.952668 0.726553 -0.325869
C141  C     C_3   0.002236 0.500450 0.308204 0.023928
C142  C     C_3   0.997674 0.499895 0.692133 0.024593
C143  C     C_3   0.502236 0.000450 0.308204 0.023927
C144  C     C_3   0.497675 0.999895 0.692133 0.024593
C145  C     C_3   0.000091 0.501127 0.189415 0.080281
C146  C     C_3   0.000180 0.501885 0.810426 0.096900
C147  C     C_3   0.500091 0.001127 0.189415 0.080281
C148  C     C_3   0.500180 0.001886 0.810426 0.096902
C149  C     C_3   0.034710 0.535070 0.177915 -0.436408
C150  C     C_3   0.966588 0.536639 0.819879 -0.440783
C151  C     C_3   0.534710 0.035070 0.177915 -0.436408
C152  C     C_3   0.466580 0.036633 0.819886 -0.440774
H1    H     H_    0.943887 0.543959 0.363309 0.184883
H2    H     H_    0.048769 0.551475 0.648151 0.191775
H3    H     H_    0.443887 0.043959 0.363309 0.184883
H4    H     H_    0.548759 0.051486 0.648161 0.191781
H5    H     H_    0.046705 0.445605 0.147182 0.198137
H6    H     H_    0.952929 0.446952 0.850658 0.224504
H7    H     H_    0.546705 0.945605 0.147182 0.198136
H8    H     H_    0.452941 0.946943 0.850646 0.224498
H9    H     H_    0.067980 0.525252 0.127315 0.243288
H10   H     H_    0.934393 0.534082 0.876955 0.241634
H11   H     H_    0.567980 0.025252 0.127315 0.243289
H12   H     H_    0.434386 0.034069 0.876961 0.241638
H13   H     H_    0.778349 0.430509 0.734050 0.169917
H14   H     H_    0.221345 0.432565 0.252137 0.169744
H15   H     H_    0.278349 0.930509 0.734049 0.169915
H16   H     H_    0.721345 0.932565 0.252137 0.169744
H17   H     H_    0.858958 0.429586 0.653308 0.176934
H18   H     H_    0.140704 0.431738 0.332301 0.174203
H19   H     H_    0.358957 0.929586 0.653307 0.176926
H20   H     H_    0.640704 0.931739 0.332301 0.174203
H21   H     H_    0.861129 0.570665 0.620166 0.158614
H22   H     H_    0.138805 0.569002 0.388588 0.162299
H23   H     H_    0.361129 0.070665 0.620170 0.158611
H24   H     H_    0.638805 0.069002 0.388588 0.162299
H25   H     H_    0.720387 0.522282 0.681433 0.149885
H26   H     H_    0.278997 0.517213 0.319500 0.151636
H27   H     H_    0.220387 0.022282 0.681434 0.149884
H28   H     H_    0.778997 0.017213 0.319500 0.151636
H29   H     H_    0.639586 0.522022 0.763354 0.168606
H30   H     H_    0.359777 0.516843 0.238693 0.169434
H31   H     H_    0.139586 0.022023 0.763354 0.168605
H32   H     H_    0.859777 0.016843 0.238693 0.169434
H33   H     H_    0.640346 0.478243 0.954501 0.167377
H34   H     H_    0.360068 0.482937 0.042736 0.168861
H35   H     H_    0.140346 0.978242 0.954501 0.167378
H36   H     H_    0.860068 0.982937 0.042736 0.168862
H37   H     H_    0.931053 0.486153 0.374574 0.191467
H38   H     H_    0.070536 0.496506 0.620313 0.185789
H39   H     H_    0.431053 0.986153 0.374574 0.191466
H40   H     H_    0.570538 0.996522 0.620312 0.185783
H41   H     H_    0.721223 0.478475 0.871778 0.156137
H42   H     H_    0.279329 0.483495 0.124157 0.157959
H43   H     H_    0.221223 0.978474 0.871779 0.156141
H44   H     H_    0.779329 0.983495 0.124156 0.157959
H45   H     H_    0.071186 0.639532 0.927000 0.226922
H46   H     H_    0.929034 0.639454 0.073396 0.208622
H47   H     H_    0.571186 0.139532 0.927000 0.226922
H48   H     H_    0.429034 0.139454 0.073397 0.208622
H49   H     H_    0.502726 0.279042 0.897273 0.146478
H50   H     H_    0.497729 0.278838 0.102779 0.150654
H51   H     H_    0.002727 0.779042 0.897273 0.146479
H52   H     H_    0.997729 0.778838 0.102780 0.150654
H53   H     H_    0.502645 0.359807 0.896717 0.164877
H54   H     H_    0.497586 0.359630 0.103367 0.165972
H55   H     H_    0.002645 0.859807 0.896717 0.164877
H56   H     H_    0.997585 0.859630 0.103368 0.165972
H57   H     H_    0.065011 0.361083 0.976454 0.193572
H58   H     H_    0.934536 0.360276 0.028354 0.172261
H59   H     H_    0.565011 0.861083 0.976454 0.193573
H60   H     H_    0.434536 0.860276 0.028354 0.172263
H61   H     H_    0.443441 0.719616 0.122532 0.186692
H62   H     H_    0.554806 0.722511 0.885885 0.193474
H63   H     H_    0.943441 0.219616 0.122532 0.186692
H64   H     H_    0.054806 0.222511 0.885885 0.193474
H65   H     H_    0.928418 0.489309 0.271717 0.201139
H66   H     H_    0.070945 0.488149 0.725382 0.202067
H67   H     H_    0.428418 0.989309 0.271717 0.201138
H68   H     H_    0.570948 0.988166 0.725379 0.202072
H69   H     H_    0.944038 0.546666 0.257095 0.182471
H70   H     H_    0.058028 0.545982 0.743979 0.182509
H71   H     H_    0.444038 0.046666 0.257095 0.182471
H72   H     H_    0.558018 0.045996 0.743990 0.182502
H73   H     H_    0.019719 0.569872 0.277261 0.118404
H74   H     H_    0.965522 0.564887 0.728631 0.100529
H75   H     H_    0.519719 0.069872 0.277261 0.118404
H76   H     H_    0.465509 0.064880 0.728643 0.100527
H77   H     H_    0.027556 0.568390 0.165498 0.149046
H78   H     H_    0.979179 0.570415 0.817665 0.133408
H79   H     H_    0.527556 0.068390 0.165498 0.149046
H80   H     H_    0.479164 0.070412 0.817680 0.133407
H81   H     H_    0.047419 0.443063 0.252361 0.226668
H82   H     H_    0.960011 0.437101 0.738230 0.230696
H83   H     H_    0.547419 0.943064 0.252361 0.226668
H84   H     H_    0.460025 0.937092 0.738216 0.230700
H85   H     H_    0.990341 0.428854 0.310295 0.184010
H86   H     H_    0.018614 0.430973 0.685045 0.176740
H87   H     H_    0.490341 0.928854 0.310296 0.184009
H88   H     H_    0.518631 0.930978 0.685030 0.176732
H89   H     H_    0.989565 0.429561 0.205943 0.171454
H90   H     H_    0.009446 0.429782 0.799436 0.159300
H91   H     H_    0.489565 0.929561 0.205943 0.171454
H92   H     H_    0.509462 0.929785 0.799421 0.159305
O1    O     O_R   0.934520 0.536930 0.565470 -0.616417
O2    O     O_R   0.065480 0.536930 0.434530 -0.594028
O3    O     O_R   0.434520 0.036930 0.565470 -0.616429
O4    O     O_R   0.565480 0.036930 0.434530 -0.594027
O5    O     O_R   0.565440 0.499980 0.882290 -0.624379
O6    O     O_R   0.434560 0.499980 0.117710 -0.623457
O7    O     O_R   0.065440 0.999980 0.882290 -0.624379
O8    O     O_R   0.934560 0.999980 0.117710 -0.623457
O9    O     O_R   0.565450 0.499990 0.986830 -0.618827
O10   O     O_R   0.434550 0.499990 0.013170 -0.619144
O11   O     O_R   0.065450 0.999990 0.986830 -0.618826
O12   O     O_R   0.934550 0.999990 0.013170 -0.619144
O13   O     O_R   0.500010 0.565460 0.947720 -0.598406
O14   O     O_R   0.499990 0.565460 0.052280 -0.599377
O15   O     O_R   0.000010 0.065460 0.947720 -0.598406
O16   O     O_R   0.999990 0.065460 0.052280 -0.599377
O17   O     O_R   0.934480 0.463010 0.565510 -0.621901
O18   O     O_R   0.065520 0.463010 0.434490 -0.635436
O19   O     O_R   0.434480 0.963010 0.565510 -0.621892
O20   O     O_R   0.565520 0.963010 0.434490 -0.635437
O21   O     O_R   0.999990 0.536930 0.407410 -0.602724
O22   O     O_R   0.000010 0.536930 0.592590 -0.637689
O23   O     O_R   0.499990 0.036930 0.407410 -0.602723
O24   O     O_R   0.500010 0.036930 0.592590 -0.637698
O25   O     O_R   0.999940 0.463010 0.407450 -0.637758
O26   O     O_R   0.000060 0.463010 0.592550 -0.617833
O27   O     O_R   0.499940 0.963010 0.407450 -0.637758
O28   O     O_R   0.500060 0.963010 0.592550 -0.617818
O29   O     O_R   0.963000 0.565420 0.036990 -0.622473
O30   O     O_R   0.037000 0.565420 0.963010 -0.619884
O31   O     O_R   0.463000 0.065420 0.036990 -0.622475
O32   O     O_R   0.537000 0.065420 0.963010 -0.619884
O33   O     O_R   0.963020 0.499940 0.129580 -0.629018
O34   O     O_R   0.036980 0.499940 0.870420 -0.628313
O35   O     O_R   0.463020 0.999940 0.129580 -0.629018
O36   O     O_R   0.536980 0.999940 0.870420 -0.628311
O37   O     O_R   0.036940 0.500000 0.055660 -0.621414
O38   O     O_R   0.963060 0.500000 0.944340 -0.618287
O39   O     O_R   0.536940 1.000000 0.055660 -0.621414
O40   O     O_R   0.463060 1.000000 0.944340 -0.618288
O41   O     O_R   0.963020 0.434470 0.036970 -0.616875
O42   O     O_R   0.036980 0.434470 0.963030 -0.623013
O43   O     O_R   0.463020 0.934470 0.036970 -0.616873
O44   O     O_R   0.536980 0.934470 0.963030 -0.623012
O45   O     O_R   0.499930 0.434510 0.947790 -0.622479
O46   O     O_R   0.500070 0.434510 0.052210 -0.622445
O47   O     O_R   0.999930 0.934510 0.947790 -0.622479
O48   O     O_R   0.000070 0.934510 0.052210 -0.622445
Zn1   Zn    Zn3+2 0.000000 0.549330 0.500000 1.025160
Zn2   Zn    Zn3+2 0.500000 0.049330 0.500000 1.025149
Zn3   Zn    Zn3+2 0.000000 0.450610 0.500000 0.982648
Zn4   Zn    Zn3+2 0.500000 0.950610 0.500000 0.982654
Zn5   Zn    Zn3+2 0.950610 0.499940 0.049380 0.986209
Zn6   Zn    Zn3+2 0.049390 0.499940 0.950620 0.989055
Zn7   Zn    Zn3+2 0.450610 0.999940 0.049380 0.986208
Zn8   Zn    Zn3+2 0.549390 0.999940 0.950620 0.989055
Zn9   Zn    Zn3+2 0.499970 0.499980 0.930220 0.998735
Zn10  Zn    Zn3+2 0.500030 0.499980 0.069780 0.998356
Zn11  Zn    Zn3+2 0.999970 0.999980 0.930220 0.998735
Zn12  Zn    Zn3+2 0.000030 0.999980 0.069780 0.998356
S1    S     S_3+6 0.089317 0.538017 0.227042 0.007818
O49   O     O_2   0.104800 0.492542 0.228973 -0.334637
O50   O     O_2   0.121211 0.557746 0.148779 -0.278311
O51   O     O_3   0.088996 0.570070 0.291116 -0.539941
H93   H     H_    0.120423 0.572604 0.271806 0.384235
S2    S     S_3+6 0.904942 0.514441 0.792247 -0.000233
O52   O     O_2   0.885595 0.487154 0.863696 -0.318085
O53   O     O_2   0.876955 0.554905 0.811278 -0.263095
O54   O     O_3   0.903788 0.484211 0.728105 -0.597776
H94   H     H_    0.874645 0.469262 0.758035 0.383422
S3    S     S_3+6 0.589317 0.038017 0.227042 0.007817
O55   O     O_2   0.604800 0.992542 0.228974 -0.334637
O56   O     O_2   0.621211 0.057745 0.148779 -0.278312
O57   O     O_3   0.588996 0.070070 0.291116 -0.539942
H95   H     H_    0.620422 0.072604 0.271806 0.384236
S4    S     S_3+6 0.404940 0.014420 0.792248 -0.000237
O58   O     O_2   0.385599 0.987129 0.863692 -0.318088
O59   O     O_2   0.376943 0.054878 0.811287 -0.263098
O60   O     O_3   0.403793 0.984190 0.728099 -0.597765
H96   H     H_    0.374654 0.969231 0.758027 0.383417
O61   O     O_3   0.773543 0.579640 0.706197 -0.755650
H97   H     H_    0.794758 0.604369 0.679350 0.340577
O62   O     O_3   0.226419 0.577969 0.303670 -0.759071
H98   H     H_    0.205224 0.602064 0.334235 0.339232
O63   O     O_3   0.273543 0.079640 0.706200 -0.755650
H99   H     H_    0.294758 0.104369 0.679355 0.340575
O64   O     O_3   0.726419 0.077969 0.303670 -0.759071
H100  H     H_    0.705224 0.102064 0.334235 0.339231
S5    S     S_3+6 0.092459 0.730991 0.905891 0.021542
O65   O     O_2   0.096504 0.757844 0.843161 -0.302945
O66   O     O_2   0.095248 0.761246 0.958318 -0.293252
O67   O     O_3   0.134257 0.694460 0.866851 -0.549131
H101  H     H_    0.161473 0.712698 0.838645 0.394429
S6    S     S_3+6 0.907932 0.730907 0.094755 0.039254
O68   O     O_2   0.903529 0.756015 0.159124 -0.252425
O69   O     O_2   0.905375 0.763022 0.044002 -0.302108
O70   O     O_3   0.865807 0.694750 0.131971 -0.513923
H102  H     H_    0.865828 0.684995 0.087966 0.358568
S7    S     S_3+6 0.592459 0.230991 0.905891 0.021541
O71   O     O_2   0.596503 0.257844 0.843161 -0.302945
O72   O     O_2   0.595248 0.261246 0.958317 -0.293252
O73   O     O_3   0.634257 0.194460 0.866850 -0.549132
H103  H     H_    0.661473 0.212698 0.838644 0.394428
S8    S     S_3+6 0.407932 0.230907 0.094756 0.039252
O74   O     O_2   0.403529 0.256015 0.159125 -0.252425
O75   O     O_2   0.405375 0.263022 0.044003 -0.302110
O76   O     O_3   0.365807 0.194750 0.131972 -0.513925
H104  H     H_    0.365828 0.184995 0.087968 0.358566
O77   O     O_3   0.072927 0.277284 0.981267 -0.744017
H105  H     H_    0.065756 0.246345 0.999516 0.344697
O78   O     O_3   0.926828 0.272686 0.032769 -0.745268
H106  H     H_    0.903918 0.293547 0.040895 0.340249
O79   O     O_3   0.572927 0.777284 0.981266 -0.744017
H107  H     H_    0.565756 0.746345 0.999516 0.344697
O80   O     O_3   0.426828 0.772686 0.032769 -0.745267
H108  H     H_    0.403918 0.793547 0.040895 0.340250
O81   O     O_3   0.432700 0.635447 0.134692 -0.734712
H109  H     H_    0.428099 0.605563 0.121926 0.339901
O82   O     O_3   0.565703 0.638584 0.866862 -0.732650
H110  H     H_    0.570071 0.607838 0.876795 0.338200
O83   O     O_3   0.932700 0.135447 0.134692 -0.734712
H111  H     H_    0.928099 0.105563 0.121926 0.339901
O84   O     O_3   0.065703 0.138584 0.866862 -0.732651
H112  H     H_    0.070071 0.107838 0.876795 0.338200

loop_
_geom_bond_atom_site_label_1
_geom_bond_atom_site_label_2
_ccdc_geom_bond_type
O79   H107  S    
O4    Zn2   S    
C55   C59   A    
C108  C120  A    
C14   H18   S    
C79   C87   A    
C100  H56   S    
S5    O65   D    
C76   O16   A    
C133  H73   S    
C6    C146  S    
C95   C99   A    
C7    H7    S    
C8    H92   S    
C47   C143  S    
C140  H88   S    
C53   H41   S    
C48   C144  S    
O48   Zn12  S    
C31   C59   S    
C9    C13   A    
C106  O78   S    
C146  C150  S    
C11   C15   A    
O5    Zn9   S    
C12   C16   A    
O19   Zn4   S    
C122  H62   S    
C3    C19   S    
C65   C147  S    
C93   H49   S    
C66   C148  S    
C45   O21   A    
C136  H76   S    
C11   H15   S    
C109  H57   S    
C41   C49   A    
C136  C152  S    
O31   Zn7   S    
C25   C29   A    
S2    O53   D    
C27   C31   A    
O60   H96   S    
S4    O60   S    
C28   C32   A    
C84   H40   S    
C126  C129  A    
C17   C21   A    
C99   H55   S    
C121  H61   S    
C80   C92   A    
O23   Zn2   S    
C19   C23   A    
C105  O77   S    
C10   C30   A    
O78   H106  S    
C75   O14   A    
C16   C20   A    
C37   H29   S    
C42   C72   S    
O44   Zn8   S    
C62   O32   A    
C44   C74   S    
C81   H37   S    
C134  S2    S    
C135  S3    S    
C21   H21   S    
C96   C104  A    
C139  H83   S    
O36   Zn8   S    
C116  H66   S    
C24   H24   S    
C107  C120  A    
C3    O19   A    
O16   Zn12  S    
S5    O67   S    
C47   O23   A    
C77   C91   A    
C64   C146  S    
O67   H101  S    
O37   Zn6   S    
C5    C137  S    
C69   C101  S    
O40   Zn7   S    
C150  H78   S    
C8    C140  S    
C83   C117  S    
C80   C88   A    
C1    O1    A    
O83   H111  S    
C83   C143  S    
C84   H4    S    
C2    O18   A    
C49   C53   A    
C118  C148  S    
S8    O74   D    
C117  H67   S    
C51   C55   A    
O24   Zn2   S    
O25   Zn3   S    
C73   O7    A    
C4    C20   S    
C125  C129  A    
C125  O81   S    
O80   H108  S    
C34   C58   A    
C98   H54   S    
C71   O5    A    
C43   C73   S    
C122  C126  A    
C54   H42   S    
C123  C132  A    
O76   H104  S    
C93   C103  A    
C112  C114  A    
O34   Zn6   S    
O14   Zn10  S    
C135  H75   S    
O22   Zn1   S    
C83   H3    S    
C84   C144  S    
C95   H51   S    
O35   Zn7   S    
C124  C132  A    
C76   C130  S    
C151  H79   S    
C64   O34   A    
S1    O50   D    
O7    Zn11  S    
C61   O30   A    
O8    Zn12  S    
C77   S5    S    
C10   H14   S    
C41   C71   S    
C44   C52   A    
C135  C143  S    
C77   C85   A    
C46   O26   A    
C137  H85   S    
C6    H6    S    
C96   H52   S    
C7    C147  S    
C35   H27   S    
C5    C145  S    
C33   H25   S    
C10   C14   A    
O6    Zn10  S    
S8    O76   S    
S4    O59   D    
C147  C151  S    
C121  C125  A    
C64   O38   A    
C68   O43   A    
C123  C127  A    
C4    O20   A    
O21   Zn1   S    
C42   C50   A    
C26   C30   A    
S6    O69   D    
O17   Zn3   S    
C118  H68   S    
O33   Zn5   S    
C50   H34   S    
C93   C97   A    
C122  C131  A    
C105  C109  A    
S3    O57   S    
C18   C22   A    
C107  C111  A    
C24   C28   A    
C72   O10   A    
C108  O80   S    
S6    O70   S    
C1    C17   S    
C38   H30   S    
C13   C17   A    
C149  H77   S    
S7    O72   D    
C128  O84   S    
C116  C146  S    
C26   O62   S    
C136  S4    S    
C96   C100  A    
C37   C41   A    
O29   Zn5   S    
C47   O27   A    
C40   C44   A    
C49   H33   S    
C48   O28   A    
C84   C118  S    
C6    H90   S    
C52   H36   S    
C63   C145  S    
O38   Zn5   S    
C152  H80   S    
C123  H63   S    
C106  C119  A    
C120  C131  S    
O45   Zn9   S    
C78   S6    S    
C36   H28   S    
C87   H47   S    
C82   C142  S    
O47   Zn11  S    
O77   H105  S    
C46   C142  S    
C110  H58   S    
C95   C104  A    
C15   C19   A    
O3    Zn2   S    
C50   C54   A    
O43   Zn7   S    
C83   H39   S    
C67   O42   A    
C54   C58   A    
C23   H23   S    
C94   C98   A    
C69   O46   A    
C35   C59   A    
C71   O9    A    
C21   C25   A    
C56   H44   S    
C75   O13   A    
O82   H110  S    
C94   H50   S    
C124  C128  A    
C107  O79   S    
S3    O55   D    
C45   C141  S    
C8    C148  S    
C3    O3    A    
O9    Zn10  S    
O32   Zn8   S    
S5    O66   D    
C150  H10   S    
C76   O15   A    
C148  C152  S    
C138  C142  S    
C53   C57   A    
C63   O33   A    
C27   O63   S    
C28   O64   S    
C118  H72   S    
C33   C37   A    
C56   C60   A    
C35   C39   A    
O64   H100  S    
C134  C142  S    
C97   C101  A    
C46   O22   A    
C79   S7    S    
C15   H19   S    
C25   O61   S    
O28   Zn4   S    
C85   H45   S    
C29   C57   S    
C94   C103  A    
C5    H5    S    
C34   H26   S    
C149  H9    S    
C32   C60   S    
C8    H8    S    
C112  H60   S    
C137  C141  S    
S2    O52   D    
C85   C89   A    
O41   Zn5   S    
C115  H69   S    
C140  C144  S    
C86   C89   A    
C128  C130  A    
C74   O8    A    
C70   C102  S    
C98   C101  A    
C115  C145  S    
O2    Zn1   S    
C133  C141  S    
C117  C147  S    
C70   O47   A    
C88   H48   S    
C9    H13   S    
C2    O2    A    
C82   C116  S    
O62   H98   S    
C136  C144  S    
C43   C51   A    
O54   H94   S    
C135  C151  S    
C111  C114  A    
C62   O31   A    
O61   H97   S    
C111  H59   S    
C51   H35   S    
C108  C112  A    
C99   C102  A    
S1    O49   D    
C22   C26   A    
C87   C90   A    
C140  H84   S    
C61   O29   A    
C105  C119  A    
O20   Zn4   S    
C72   O6    A    
C145  C149  S    
C70   O48   A    
C40   H32   S    
S2    O54   S    
C80   S8    S    
C55   H43   S    
S7    O71   D    
C126  O82   S    
C2    C18   S    
O63   H99   S    
C14   C18   A    
O84   H112  S    
C91   C104  S    
C81   H1    S    
O70   H102  S    
C45   O25   A    
C134  H74   S    
C38   C42   A    
O30   Zn6   S    
C48   O24   A    
C134  C150  S    
C30   C58   S    
O15   Zn11  S    
O11   Zn12  S    
C4    O4    A    
O12   Zn11  S    
C92   C103  S    
O26   Zn3   S    
C68   O44   A    
O39   Zn8   S    
C20   C24   A    
O1    Zn1   S    
C65   O35   A    
C66   O36   A    
O46   Zn10  S    
C23   C27   A    
C109  C113  A    
C78   C86   A    
C81   C141  S    
C11   C31   A    
C73   O11   A    
C12   C32   A    
C116  H70   S    
C139  C143  S    
C121  C131  A    
S8    O75   D    
C22   H22   S    
C61   C89   S    
C127  O83   S    
S3    O56   D    
C139  H87   S    
C36   C40   A    
C133  C149  S    
C39   C43   A    
C6    C138  S    
O57   H95   S    
C16   H20   S    
S1    O51   S    
C81   C115  S    
C100  C102  A    
C119  C132  S    
C65   O39   A    
C39   H31   S    
C66   O40   A    
C110  C113  A    
C133  S1    S    
C79   C92   A    
C152  H12   S    
O10   Zn9   S    
C1    O17   A    
C86   H46   S    
C151  H11   S    
C117  H71   S    
C137  H81   S    
O51   H93   S    
C63   O37   A    
C124  H64   S    
C33   C57   A    
C34   C38   A    
O42   Zn6   S    
C88   C90   A    
C36   C60   A    
C12   H16   S    
C9    C29   A    
C78   C91   A    
O81   H109  S    
S4    O58   D    
C67   C113  S    
C127  C130  A    
C67   O41   A    
C7    C139  S    
O13   Zn9   S    
O73   H103  S    
C97   H53   S    
C62   C90   S    
C13   H17   S    
C69   O45   A    
C138  H86   S    
C74   O12   A    
O27   Zn4   S    
C138  H82   S    
C82   H2    S    
C75   C129  S    
C106  C110  A    
S6    O68   D    
S7    O73   S    
C7    H91   S    
O18   Zn3   S    
C115  H65   S    
C5    H89   S    
C82   H38   S    
C52   C56   A    
C68   C114  S    
