data_mof_unit_9217.cif
_audit_creation_date              2012-12-11T16:34:16-0500
_audit_creation_method            fapswitch 2.2
_symmetry_space_group_name_H-M    P1
_symmetry_Int_Tables_number       1
_space_group_crystal_system       triclinic
_cell_length_a                    25.733292
_cell_length_b                    7.235851
_cell_length_c                    23.341256
_cell_angle_alpha                 89.999909
_cell_angle_beta                  104.118496
_cell_angle_gamma                 89.999981
_cell_volume                      4214.91066721

loop_
_atom_site_label
_atom_site_type_symbol
_atom_type_description
_atom_site_fract_x
_atom_site_fract_y
_atom_site_fract_z
_atom_type_partial_charge
O1    O     O_R   0.438720 0.630760 0.439780 -0.511672
O2    O     O_R   0.061280 0.869240 0.060220 -0.502171
O3    O     O_R   0.561280 0.130760 0.560220 -0.511659
O4    O     O_R   0.938720 0.369240 0.939780 -0.502169
O5    O     O_R   0.546410 0.956760 0.446260 -0.523136
O6    O     O_R   0.953590 0.543240 0.053740 -0.526197
O7    O     O_R   0.453590 0.456760 0.553740 -0.523144
O8    O     O_R   0.046410 0.043240 0.946260 -0.526196
C1    C     C_R   0.561361 0.792666 0.432524 0.710597
C2    C     C_R   0.938842 0.707483 0.067630 0.745564
C3    C     C_R   0.438640 0.292666 0.567476 0.710577
C4    C     C_R   0.061158 0.207483 0.932370 0.745566
O9    O     O_R   0.438220 0.960230 0.432810 -0.537127
O10   O     O_R   0.061780 0.539770 0.067190 -0.529930
O11   O     O_R   0.561780 0.460230 0.567190 -0.537129
O12   O     O_R   0.938220 0.039770 0.932810 -0.529928
O13   O     O_R   0.452310 0.134250 0.546660 -0.543118
O14   O     O_R   0.047690 0.365750 0.953340 -0.542730
O15   O     O_R   0.547690 0.634250 0.453340 -0.543125
O16   O     O_R   0.952310 0.865750 0.046660 -0.542730
C5    C     C_R   0.418535 0.791721 0.417523 0.759213
C6    C     C_R   0.082271 0.708380 0.081962 0.737696
C7    C     C_R   0.581465 0.291721 0.582477 0.759208
C8    C     C_R   0.917729 0.208381 0.918038 0.737693
O17   O     O_3   0.504750 0.798450 0.537370 -0.381899
O18   O     O_3   0.995250 0.701550 0.962630 -0.375638
O19   O     O_3   0.495250 0.298450 0.462630 -0.381908
O20   O     O_3   0.004750 0.201550 0.037370 -0.375643
V1    V     V_3+5 0.499120 0.071860 0.493070 1.532712
V2    V     V_3+5 0.000880 0.428140 0.006930 1.566753
V3    V     V_3+5 0.500880 0.571860 0.506930 1.532688
V4    V     V_3+5 0.999120 0.928140 0.993070 1.566755
C9    C     C_R   0.724779 0.187623 0.668091 -0.197134
C10   C     C_R   0.783724 0.373913 0.820002 -0.202720
C11   C     C_R   0.275219 0.687646 0.331910 -0.197121
C12   C     C_R   0.216279 0.873903 0.179995 -0.202716
H1    H     H_    0.761029 0.128583 0.660246 0.164141
H2    H     H_    0.756422 0.488759 0.817701 0.165734
H3    H     H_    0.238968 0.628623 0.339757 0.164142
H4    H     H_    0.243582 0.988742 0.182293 0.165736
C13   C     C_R   0.678929 0.199619 0.620800 0.464234
C14   C     C_R   0.828280 0.361961 0.868582 0.454357
C15   C     C_R   0.321069 0.699644 0.379201 0.464247
C16   C     C_R   0.171722 0.861951 0.131415 0.454359
C17   C     C_R   0.631502 0.281093 0.629948 -0.154589
C18   C     C_R   0.866906 0.219547 0.870562 -0.164881
C19   C     C_R   0.368498 0.781094 0.370051 -0.154590
C20   C     C_R   0.133093 0.719546 0.129438 -0.164877
C21   C     C_R   0.631473 0.348567 0.686196 -0.236697
C22   C     C_R   0.856598 0.085410 0.825574 -0.186115
C23   C     C_R   0.368530 0.848545 0.313801 -0.236702
C24   C     C_R   0.143400 0.585418 0.174429 -0.186126
H5    H     H_    0.595622 0.409526 0.694416 0.126929
H6    H     H_    0.884429 0.972816 0.826309 0.157480
H7    H     H_    0.404383 0.909485 0.305580 0.126922
H8    H     H_    0.115567 0.472831 0.173696 0.157469
C25   C     C_R   0.676924 0.332742 0.733079 -0.107483
C26   C     C_R   0.810567 0.094346 0.778920 -0.113335
C27   C     C_R   0.323078 0.832720 0.266918 -0.107478
C28   C     C_R   0.189431 0.594354 0.221083 -0.113334
H9    H     H_    0.674134 0.380452 0.776144 0.138516
H10   H     H_    0.803871 0.985436 0.746178 0.130795
H11   H     H_    0.325870 0.880413 0.223852 0.138516
H12   H     H_    0.196125 0.485452 0.253828 0.130798
C29   C     C_R   0.724531 0.253152 0.724808 0.038663
C30   C     C_R   0.773711 0.240344 0.774954 0.040530
C31   C     C_R   0.275469 0.753152 0.275191 0.038657
C32   C     C_R   0.226289 0.740343 0.225046 0.040528
C33   C     C_R   0.128810 0.373158 0.890548 -0.158342
C34   C     C_R   0.371415 0.125739 0.609784 -0.190326
C35   C     C_R   0.871191 0.873160 0.109454 -0.158348
C36   C     C_R   0.628586 0.625741 0.390217 -0.190333
H13   H     H_    0.125583 0.490090 0.918446 0.148858
H14   H     H_    0.375776 0.007266 0.583048 0.177222
H15   H     H_    0.874419 0.990093 0.081556 0.148854
H16   H     H_    0.624226 0.507268 0.416954 0.177204
C37   C     C_R   0.165602 0.384279 0.855331 -0.131882
C38   C     C_R   0.334270 0.114429 0.644590 -0.118883
C39   C     C_R   0.834400 0.884282 0.144671 -0.131883
C40   C     C_R   0.665731 0.614430 0.355411 -0.118880
H17   H     H_    0.189003 0.509351 0.856852 0.149457
H18   H     H_    0.311764 0.987671 0.643928 0.159879
H19   H     H_    0.810999 0.009356 0.143151 0.149456
H20   H     H_    0.688238 0.487672 0.356074 0.159877
C41   C     C_R   0.172595 0.235648 0.819342 -0.005831
C42   C     C_R   0.325932 0.264775 0.679229 -0.009676
C43   C     C_R   0.827406 0.735648 0.180659 -0.005831
C44   C     C_R   0.674069 0.764776 0.320772 -0.009674
C45   C     C_R   0.141103 0.077266 0.818485 -0.148379
C46   C     C_R   0.356277 0.425338 0.678985 -0.137074
C47   C     C_R   0.858897 0.577264 0.181514 -0.148379
C48   C     C_R   0.643724 0.925340 0.321017 -0.137074
H21   H     H_    0.145639 0.963260 0.790022 0.142942
H22   H     H_    0.350659 0.540893 0.706359 0.138268
H23   H     H_    0.854360 0.463256 0.209977 0.142942
H24   H     H_    0.649342 0.040895 0.293642 0.138267
C49   C     C_R   0.103437 0.062914 0.853091 0.070360
C50   C     C_R   0.394219 0.440035 0.644752 0.116009
C51   C     C_R   0.896562 0.562911 0.146908 0.070366
C52   C     C_R   0.605782 0.940036 0.355249 0.116020
C53   C     C_R   0.097595 0.213330 0.891069 -0.088019
C54   C     C_R   0.401631 0.287430 0.608267 -0.082236
C55   C     C_R   0.902405 0.713330 0.108932 -0.088023
C56   C     C_R   0.598369 0.787431 0.391733 -0.082200
N1    N     N_R   0.220115 0.096325 0.749407 -0.277058
N2    N     N_R   0.278310 0.403766 0.749054 -0.278153
N3    N     N_R   0.779883 0.596322 0.250592 -0.277057
N4    N     N_R   0.721693 0.903771 0.250950 -0.278152
N5    N     N_R   0.255960 0.102385 0.716721 -0.273003
N6    N     N_R   0.242487 0.397690 0.781746 -0.276785
N7    N     N_R   0.744039 0.602382 0.283278 -0.273004
N8    N     N_R   0.757517 0.897695 0.218259 -0.276785
C57   C     C_R   0.285917 0.256381 0.715817 0.533416
C58   C     C_R   0.212522 0.243749 0.782647 0.531093
C59   C     C_R   0.714085 0.756383 0.284184 0.533415
C60   C     C_R   0.787479 0.743750 0.217354 0.531092
S1    S     S_3+6 0.682710 0.110742 0.551203 -0.006683
O21   O     O_2   0.651011 0.228874 0.502002 -0.367321
O22   O     O_2   0.740118 0.104511 0.547149 -0.326538
O23   O     O_3   0.657512 0.895250 0.544582 -0.506964
H25   H     H_    0.672161 0.836146 0.513601 0.360394
S2    S     S_3+6 0.830538 0.517344 0.927933 -0.006801
O24   O     O_2   0.870297 0.668339 0.926568 -0.331598
O25   O     O_2   0.776313 0.602865 0.922810 -0.339190
O26   O     O_3   0.848738 0.401493 0.992230 -0.523883
H26   H     H_    0.832435 0.470520 0.020066 0.353221
S3    S     S_3+6 0.317284 0.610798 0.448801 -0.006679
O27   O     O_2   0.348993 0.728920 0.498000 -0.367338
O28   O     O_2   0.259877 0.604622 0.452857 -0.326521
O29   O     O_3   0.342467 0.395285 0.455426 -0.506958
H27   H     H_    0.327837 0.336240 0.486431 0.360400
S4    S     S_3+6 0.169465 0.017325 0.072061 -0.006798
O30   O     O_2   0.129708 0.168329 0.073426 -0.331597
O31   O     O_2   0.223690 0.102835 0.077182 -0.339187
O32   O     O_3   0.151261 0.901467 0.007766 -0.523885
H28   H     H_    0.167563 0.970489 0.979928 0.353220
C61   C     C_3   0.070417 0.886090 0.846087 -0.351192
C62   C     C_3   0.012000 0.920948 0.812808 -0.302806
C63   C     C_3   0.980089 0.740915 0.802760 -0.726591
H29   H     H_    0.998507 0.641879 0.777139 0.224876
H30   H     H_    0.978793 0.677148 0.845625 0.239538
H31   H     H_    0.938439 0.769400 0.777404 0.212848
H32   H     H_    0.992324 0.018112 0.837674 0.175934
H33   H     H_    0.011084 0.984227 0.769163 0.202145
H34   H     H_    0.087203 0.782303 0.820344 0.165965
H35   H     H_    0.073368 0.817511 0.889189 0.203098
C64   C     C_3   0.426057 0.619324 0.650948 -0.330898
C65   C     C_3   0.484395 0.589464 0.685132 -0.331536
C66   C     C_3   0.515334 0.771475 0.694701 -0.717936
H36   H     H_    0.515009 0.837636 0.651741 0.238147
H37   H     H_    0.497218 0.867656 0.721465 0.222388
H38   H     H_    0.557559 0.744868 0.718584 0.218357
H39   H     H_    0.485288 0.527368 0.728937 0.199301
H40   H     H_    0.504718 0.492901 0.660868 0.180514
H41   H     H_    0.423273 0.684983 0.607455 0.222681
H42   H     H_    0.408311 0.723609 0.675629 0.161345
C67   C     C_3   0.929581 0.386085 0.153911 -0.351189
C68   C     C_3   0.987998 0.420936 0.187190 -0.302808
C69   C     C_3   0.019908 0.240899 0.197238 -0.726590
H43   H     H_    0.001489 0.141865 0.222859 0.224876
H44   H     H_    0.021203 0.177132 0.154373 0.239536
H45   H     H_    0.061558 0.269381 0.222594 0.212850
H46   H     H_    0.007675 0.518099 0.162325 0.175936
H47   H     H_    0.988915 0.484214 0.230836 0.202144
H48   H     H_    0.912794 0.282297 0.179653 0.165964
H49   H     H_    0.926629 0.317509 0.110808 0.203097
C70   C     C_3   0.573943 0.119324 0.349053 -0.330901
C71   C     C_3   0.515606 0.089463 0.314868 -0.331543
C72   C     C_3   0.484666 0.271473 0.305299 -0.717934
H50   H     H_    0.484991 0.337635 0.348258 0.238145
H51   H     H_    0.502781 0.367655 0.278535 0.222387
H52   H     H_    0.442441 0.244865 0.281416 0.218359
H53   H     H_    0.514713 0.027367 0.271063 0.199301
H54   H     H_    0.495283 0.992900 0.339132 0.180512
H55   H     H_    0.576727 0.184984 0.392545 0.222680
H56   H     H_    0.591690 0.223609 0.324371 0.161346

loop_
_geom_bond_atom_site_label_1
_geom_bond_atom_site_label_2
_ccdc_geom_bond_type
C26   H10   S    
C6    C20   S    
O1    C5    A    
C67   C68   S    
C7    C17   S    
C43   C47   A    
O19   V1    S    
O13   V1    S    
C72   H50   S    
C33   C37   A    
C64   C65   S    
C10   C14   A    
C48   H24   S    
C36   H16   S    
O15   V3    S    
C10   C30   A    
C39   C43   A    
C71   H54   S    
C9    C29   A    
O32   H28   S    
O7    C3    A    
C14   S2    S    
O5    C1    A    
C22   H6    S    
C52   C70   S    
N4    C59   A    
C61   H34   S    
C2    C55   S    
C62   H32   S    
C66   H37   S    
O16   V4    S    
O4    C8    A    
C63   H31   S    
C34   C38   A    
C50   C64   S    
C52   C56   A    
C21   C25   A    
O2    V4    S    
C14   C18   A    
O3    V1    S    
N1    N5    A    
C24   C28   A    
C27   C31   A    
O3    C7    A    
C26   C30   A    
C44   C48   A    
C2    O16   A    
S4    O30   D    
C39   H19   S    
O2    C6    A    
C69   H44   S    
C33   H13   S    
O14   V2    S    
C11   C31   A    
C11   C15   A    
N6    C58   A    
C68   H47   S    
C38   C42   A    
O11   C7    A    
C37   C41   A    
O12   C8    A    
C72   H51   S    
C65   H40   S    
O10   V2    S    
C49   C61   S    
C1    O15   A    
C46   H22   S    
O5    V1    S    
O1    V3    S    
C71   H53   S    
O7    V3    S    
N2    C57   A    
C31   C32   S    
O8    V4    S    
N1    C58   A    
C12   H4    S    
C65   C66   S    
C51   C55   A    
C42   C46   A    
C66   H38   S    
C67   H48   S    
C70   C71   S    
C41   C45   A    
O18   V4    S    
C19   C23   A    
C36   C56   A    
C50   C54   A    
C9    H1    S    
C35   C39   A    
N4    N8    A    
C45   C49   A    
C22   C26   A    
C13   S1    S    
C11   H3    S    
S3    O28   D    
C34   H14   S    
C38   H18   S    
C69   H43   S    
C37   H17   S    
O8    C4    A    
C1    C56   S    
C34   C54   A    
C17   C21   A    
C69   H45   S    
O9    C5    A    
O11   V3    S    
C64   H42   S    
C43   C60   S    
C68   H46   S    
S4    O31   D    
C71   C72   S    
O6    V2    S    
C33   C53   A    
C51   C67   S    
C68   C69   S    
C72   H52   S    
S1    O23   S    
C16   S4    S    
C65   H39   S    
C15   S3    S    
S3    O27   D    
N8    C60   A    
C64   H41   S    
O23   H25   S    
C48   C52   A    
C70   H55   S    
N2    N6    A    
O9    V1    S    
C35   C55   A    
C3    O13   A    
C10   H2    S    
N3    N7    A    
O17   V3    S    
C25   C29   A    
C67   H49   S    
O6    C2    A    
C41   C58   S    
C63   H29   S    
C12   C32   A    
C25   H9    S    
N5    C57   A    
O12   V4    S    
C61   C62   S    
C18   C22   A    
C27   H11   S    
C28   H12   S    
C9    C13   A    
C61   H35   S    
O10   C6    A    
S2    O26   S    
S1    O22   D    
O29   H27   S    
S3    O29   S    
C8    C18   S    
C4    C53   S    
C40   C44   A    
C62   H33   S    
S1    O21   D    
C40   H20   S    
C35   H15   S    
C63   H30   S    
O26   H26   S    
C15   C19   A    
C44   C59   S    
S4    O32   S    
C21   H5    S    
O20   V2    S    
C3    C54   S    
C23   H7    S    
C45   H21   S    
O4    V2    S    
N3    C60   A    
C12   C16   A    
C62   C63   S    
C47   H23   S    
C16   C20   A    
C20   C24   A    
C23   C27   A    
C28   C32   A    
C36   C40   A    
C29   C30   S    
C4    O14   A    
C13   C17   A    
N7    C59   A    
C47   C51   A    
S2    O24   D    
C66   H36   S    
S2    O25   D    
C46   C50   A    
C49   C53   A    
C24   H8    S    
C42   C57   S    
C70   H56   S    
C5    C19   S    
