data_mof_unit_23381.cif
_audit_creation_date              2012-12-11T15:59:47-0500
_audit_creation_method            fapswitch 2.2
_symmetry_space_group_name_H-M    P1
_symmetry_Int_Tables_number       1
_space_group_crystal_system       triclinic
_cell_length_a                    10.835
_cell_length_b                    10.797951
_cell_length_c                    17.033288
_cell_angle_alpha                 100.158102
_cell_angle_beta                  100.096077
_cell_angle_gamma                 60.059879
_cell_volume                      1690.88518107

loop_
_atom_site_label
_atom_site_type_symbol
_atom_type_description
_atom_site_fract_x
_atom_site_fract_y
_atom_site_fract_z
_atom_type_partial_charge
C1    C     C_R   0.355291 0.768804 0.397996 0.572592
C2    C     C_R   0.851219 0.334574 0.330537 0.048193
C3    C     C_R   0.354817 0.813791 0.156910 0.019233
C4    C     C_R   0.369074 0.345778 0.357655 0.570124
C5    C     C_R   0.444377 0.848586 0.217251 -0.025972
C6    C     C_R   0.423661 0.861029 0.298242 -0.016409
C7    C     C_R   0.279211 0.742003 0.256686 -0.118712
C8    C     C_R   0.284084 0.746829 0.177181 0.197713
C9    C     C_R   0.559920 0.861297 0.200153 -0.112526
C10   C     C_R   0.649144 0.887728 0.262466 -0.101469
C11   C     C_R   0.616780 0.917936 0.341902 0.091695
C12   C     C_R   0.834130 0.220866 0.195674 -0.021026
C13   C     C_R   0.496700 0.915249 0.358167 -0.071800
C14   C     C_R   0.341277 0.805740 0.317745 -0.000302
C15   C     C_R   0.307103 0.265032 0.798495 0.002639
C16   C     C_R   0.779669 0.375272 0.404311 0.601770
C17   C     C_R   0.450002 0.190672 0.773335 0.061592
C18   C     C_R   0.478436 0.260699 0.723711 -0.011875
C19   C     C_R   0.224371 0.413797 0.689951 -0.120955
C20   C     C_R   0.195923 0.374082 0.755003 -0.156542
C21   C     C_R   0.570047 0.057992 0.797972 0.285444
C22   C     C_R   0.709894 0.020781 0.787902 -0.034373
C23   C     C_R   0.866059 0.212014 0.279425 -0.046765
C24   C     C_R   0.734865 0.108685 0.751367 -0.112455
C25   C     C_R   0.619346 0.229327 0.721131 -0.088579
C26   C     C_R   0.366522 0.356497 0.674117 0.000563
C27   C     C_1   0.855281 0.327050 0.704294 -0.047726
C28   C     C_R   0.357798 0.769425 0.627202 0.554725
C29   C     C_1   0.901250 0.292194 0.771402 -0.069232
C30   C     C_1   0.338078 0.809607 0.709269 0.010115
C31   C     C_1   0.311431 0.837216 0.777299 0.012244
C32   C     C_R   0.890529 0.311144 0.087563 0.589215
C33   C     C_R   0.319223 0.300474 0.119992 0.622412
C34   C     C_R   0.857011 0.443258 0.298935 0.201928
C35   C     C_R   0.298418 0.886853 0.083790 0.568427
C36   C     C_R   0.945757 0.272152 0.854891 0.519992
C37   C     C_R   0.280714 0.249804 0.876881 0.534188
C38   C     C_R   0.278529 0.884729 0.857371 0.551018
C39   C     C_R   0.401645 0.374520 0.599641 0.529147
C40   C     C_R   0.781646 0.376908 0.627889 0.544361
C41   C     C_1   0.342760 0.335913 0.274252 -0.025973
C42   C     C_1   0.331331 0.326822 0.203379 -0.008942
C43   C     C_R   0.833246 0.335197 0.164338 -0.017468
C44   C     C_2   0.716538 0.933455 0.409362 0.619232
C45   C     C_R   0.838421 0.448004 0.217354 -0.130859
C46   C     C_R   0.817874 0.107948 0.147121 0.260807
C47   C     C_R   0.872913 0.976322 0.177275 -0.114476
C48   C     C_R   0.934100 0.959307 0.256418 -0.115817
C49   C     C_R   0.925599 0.077598 0.308774 0.253315
Cl1   Cl    Cl    0.906844 0.565163 0.358929 -0.560585
Cl2   Cl    Cl    0.560168 0.912799 0.820072 -0.591818
Cl3   Cl    Cl    0.714836 0.131670 0.052880 -0.532267
Cl4   Cl    Cl    0.014318 0.049580 0.406442 -0.593353
Cl5   Cl    Cl    0.201742 0.665302 0.104578 -0.582669
Cr1   Cr    Cr6+3 0.608100 0.610860 0.522250 1.094423
Cr2   Cr    Cr6+3 0.288890 0.599990 0.488420 1.096881
Cr3   Cr    Cr6+3 0.603040 0.289190 0.489390 1.105769
Cr4   Cr    Cr6+3 0.053960 0.052250 0.967380 1.099939
Cr5   Cr    Cr6+3 0.059890 0.373160 0.992710 1.099419
Cr6   Cr    Cr6+3 0.373370 0.061690 0.991710 1.113363
H1    H     H_    0.744873 0.880915 0.248573 0.141329
H2    H     H_    0.982877 0.854758 0.277755 0.195619
H3    H     H_    0.229174 0.684107 0.270440 0.167293
H4    H     H_    0.591037 0.836700 0.140016 0.154558
H5    H     H_    0.920582 0.877398 0.452234 0.373784
H6    H     H_    0.469536 0.941999 0.419310 0.166176
H7    H     H_    0.136137 0.490218 0.653148 0.163417
H8    H     H_    0.087434 0.428362 0.771439 0.144864
H9    H     H_    0.799769 0.920616 0.806086 0.161468
H10   H     H_    0.843138 0.078540 0.742802 0.138134
H11   H     H_    0.636069 0.301006 0.695220 0.132200
H12   H     H_    0.843986 0.533750 0.196019 0.177404
H13   H     H_    0.868042 0.886810 0.139383 0.171011
O1    O     O_R   0.749810 0.499790 0.438040 -0.455769
O2    O     O_R   0.411730 0.181020 0.091530 -0.472807
O3    O     O_R   0.365010 0.944360 0.063320 -0.525559
O4    O     O_R   0.477660 0.726260 0.439290 -0.507491
O5    O     O_R   0.159380 0.906670 0.876210 -0.520616
O6    O     O_R   0.930820 0.177420 0.886730 -0.478532
O7    O     O_R   0.910360 0.395420 0.895720 -0.480888
O8    O     O_R   0.186010 0.361730 0.919870 -0.479843
O9    O     O_R   0.400000 0.173010 0.914630 -0.426450
O10   O     O_R   0.354140 0.936940 0.899340 -0.453610
O11   O     O_3   0.162410 0.162370 0.983930 -0.337981
O12   O     O_R   0.298970 0.468800 0.557390 -0.491270
O13   O     O_R   0.260150 0.743000 0.412270 -0.468650
O14   O     O_R   0.297740 0.466550 0.394720 -0.464758
O15   O     O_R   0.488080 0.253500 0.386430 -0.504834
O16   O     O_R   0.722670 0.303800 0.421940 -0.468131
O17   O     O_R   0.751130 0.502220 0.613520 -0.485677
O18   O     O_R   0.478890 0.728510 0.601960 -0.472649
O19   O     O_R   0.261470 0.745430 0.587750 -0.514875
O20   O     O_2   0.674618 0.990067 0.475148 -0.492720
O21   O     O_R   0.861050 0.874360 0.399646 -0.652230
O22   O     O_R   0.489400 0.255930 0.561910 -0.452676
O23   O     O_R   0.723890 0.306050 0.584610 -0.506992
O24   O     O_3   0.500010 0.500010 0.500020 -0.314415
O25   O     O_R   0.171100 0.914680 0.053100 -0.440177
O26   O     O_R   0.941680 0.184840 0.050710 -0.443340
O27   O     O_R   0.922080 0.403420 0.072610 -0.522453
O28   O     O_R   0.196880 0.369150 0.083850 -0.453396

loop_
_geom_bond_atom_site_label_1
_geom_bond_atom_site_label_2
_ccdc_geom_bond_type
C38   O10   A    
C27   C29   T    
C9    H4    S    
C1    O4    A    
C41   C42   T    
C19   C20   A    
Cr4   O25   S    
C24   H10   S    
C7    C8    A    
C4    O14   A    
C29   C36   S    
Cr3   O16   S    
C16   O1    A    
C33   C42   S    
Cr1   O17   S    
C30   C31   T    
Cr1   O4    S    
Cr6   O10   S    
C26   C39   S    
C23   C49   A    
C4    C41   S    
C46   Cl3   S    
C11   C13   A    
C19   C26   A    
C15   C37   S    
Cr1   O18   S    
C44   O20   D    
Cr1   O1    S    
C48   H2    S    
C33   O2    A    
C7    C14   A    
Cr3   O23   S    
C18   C26   A    
C19   H7    S    
C25   H11   S    
C35   O25   A    
C2    C16   S    
C9    C10   A    
C22   H9    S    
C2    C34   A    
Cr3   O24   S    
C16   O16   A    
C21   C22   A    
C45   H12   S    
Cr5   O27   S    
C37   O8    A    
C18   C25   A    
Cr6   O9    S    
Cr2   O24   S    
C40   O23   A    
C13   H6    S    
C15   C20   A    
C35   O3    A    
C34   Cl1   S    
Cr5   O28   S    
Cr5   O11   S    
C47   H13   S    
C12   C46   A    
C3    C8    A    
C36   O7    A    
C8    Cl5   S    
Cr2   O14   S    
C38   O5    A    
Cr6   O3    S    
C17   C21   A    
C32   O27   A    
C5    C9    A    
Cr4   O11   S    
C6    C14   A    
Cr2   O13   S    
C47   C48   A    
C12   C23   A    
C3    C35   S    
C27   C40   S    
C7    H3    S    
Cr1   O24   S    
C17   C18   A    
C11   C44   S    
C28   O19   A    
C34   C45   A    
C24   C25   A    
C43   C45   A    
C39   O22   A    
Cr4   O6    S    
C48   C49   A    
C33   O28   A    
C37   O9    A    
C10   H1    S    
C39   O12   A    
C21   Cl2   S    
C1    O13   A    
C15   C17   A    
C46   C47   A    
H5    O21   S    
C20   H8    S    
Cr4   O26   S    
Cr5   O8    S    
C3    C5    A    
C36   O6    A    
Cr5   O7    S    
C32   O26   A    
C31   C38   S    
C4    O15   A    
C12   C43   A    
Cr6   O2    S    
Cr3   O15   S    
C28   C30   S    
C6    C13   A    
Cr6   O11   S    
Cr2   O12   S    
C5    C6    A    
C49   Cl4   S    
C32   C43   S    
C28   O18   A    
C22   C24   A    
C44   O21   S    
C10   C11   A    
Cr4   O5    S    
Cr2   O19   S    
Cr3   O22   S    
C2    C23   A    
C1    C14   S    
C40   O17   A    
