data_mof_unit_59698.cif
_audit_creation_date              2012-12-10T18:31:53-0500
_audit_creation_method            fapswitch 2.2
_symmetry_space_group_name_H-M    P1
_symmetry_Int_Tables_number       1
_space_group_crystal_system       triclinic
_cell_length_a                    10.639453
_cell_length_b                    14.98653
_cell_length_c                    15.450357
_cell_angle_alpha                 82.226459
_cell_angle_beta                  89.687967
_cell_angle_gamma                 104.364195
_cell_volume                      2362.63781802

loop_
_atom_site_label
_atom_site_type_symbol
_atom_type_description
_atom_site_fract_x
_atom_site_fract_y
_atom_site_fract_z
_atom_type_partial_charge
C1    C     C_R   0.482421 0.441827 0.662184 0.891171
C2    C     C_3   0.121392 0.498957 0.498990 0.137076
C3    C     C_3   0.101723 0.576466 0.426633 -0.503053
C4    C     C_3   0.077654 0.517132 0.589744 -0.400390
C5    C     C_R   0.491569 0.407905 0.754401 -0.174894
C6    C     C_R   0.550119 0.594463 0.245439 -0.040817
C7    C     C_R   0.555295 0.300293 0.866303 -0.207235
C8    C     C_R   0.521822 0.322644 0.780468 -0.282350
C9    C     C_R   0.490106 0.468908 0.815298 0.451086
C10   C     C_R   0.546763 0.454682 0.896182 -0.032167
C11   C     C_R   0.568968 0.366089 0.924318 0.108675
C12   C     C_R   0.741942 0.500152 0.500526 0.897325
C13   C     C_R   0.575987 0.524373 0.951367 0.075427
C14   C     C_R   0.592360 0.497870 0.040815 0.057709
C15   C     C_R   0.611143 0.408307 0.068516 -0.234863
C16   C     C_R   0.603957 0.344578 0.009976 -0.204161
C17   C     C_R   0.593971 0.619893 0.919609 -0.154735
C18   C     C_R   0.605699 0.685274 0.976761 -0.269225
C19   C     C_R   0.595457 0.656373 0.066650 0.175071
C20   C     C_R   0.587991 0.562000 0.099236 0.083611
C21   C     C_R   0.588821 0.719784 0.124416 -0.197632
C22   C     C_R   0.565993 0.688882 0.213653 -0.188705
C23   C     C_R   0.521837 0.558328 0.337872 0.891596
C24   C     C_R   0.564362 0.532582 0.188658 -0.271348
C25   C     C_R   0.699793 0.843334 0.633495 -0.280028
C26   C     C_R   0.663990 0.753540 0.613059 0.018853
C27   C     C_R   0.514907 0.794101 0.510885 -0.025366
C28   C     C_R   0.546288 0.886752 0.528674 -0.073852
C29   C     C_R   0.641825 0.910956 0.591272 0.052880
C30   C     C_R   0.486373 0.955131 0.486788 0.080104
C31   C     C_R   0.521710 0.047049 0.509301 0.006130
C32   C     C_R   0.617457 0.068201 0.571539 -0.349073
C33   C     C_R   0.679156 0.002218 0.610449 0.534566
C34   C     C_R   0.257944 0.499288 0.499901 0.847058
C35   C     C_R   0.391673 0.934445 0.423553 -0.216502
C36   C     C_R   0.332711 0.001112 0.384005 -0.219095
C37   C     C_R   0.365247 0.090686 0.405813 0.180607
C38   C     C_R   0.459914 0.114978 0.468656 0.031479
C39   C     C_R   0.303492 0.156477 0.365163 -0.328190
C40   C     C_R   0.335668 0.245759 0.387124 0.007736
C41   C     C_R   0.487950 0.207010 0.487867 -0.070583
C42   C     C_3   0.895273 0.403307 0.482293 -0.394613
C43   C     C_3   0.038148 0.403583 0.479834 -0.411696
C44   C     C_3   0.956712 0.579584 0.429322 0.429284
C45   C     C_3   0.933048 0.516590 0.590527 -0.530050
C46   C     C_3   0.878642 0.500043 0.499577 0.081699
H1    H     H_    0.850960 0.383405 0.420559 0.187530
H2    H     H_    0.135493 0.585586 0.604919 0.190781
H3    H     H_    0.162865 0.645282 0.438630 0.152257
H4    H     H_    0.621835 0.277308 0.032539 0.142972
H5    H     H_    0.549556 0.460085 0.214619 0.161206
H6    H     H_    0.557646 0.738146 0.257251 0.153539
H7    H     H_    0.616567 0.757741 0.950572 0.157107
H8    H     H_    0.575265 0.233206 0.886347 0.154621
H9    H     H_    0.522164 0.274354 0.734307 0.181911
H10   H     H_    0.843901 0.348275 0.535497 0.173124
H11   H     H_    0.637250 0.387493 0.134245 0.141772
H12   H     H_    0.602913 0.645549 0.850463 0.197862
H13   H     H_    0.596832 0.792397 0.100276 0.137620
H14   H     H_    0.557346 0.232788 0.534554 0.125316
H15   H     H_    0.260559 0.982181 0.335953 0.143918
H16   H     H_    0.772677 0.859464 0.681564 0.186825
H17   H     H_    0.708755 0.700953 0.644638 0.127950
H18   H     H_    0.445141 0.768727 0.464272 0.117954
H19   H     H_    0.053704 0.346485 0.529459 0.182423
H20   H     H_    0.647820 0.135722 0.592161 0.153818
H21   H     H_    0.360114 0.867166 0.402546 0.130670
H22   H     H_    0.230996 0.138959 0.317061 0.144232
H23   H     H_    0.066312 0.389383 0.414521 0.168590
H24   H     H_    0.138015 0.564769 0.362856 0.156157
H25   H     H_    0.921509 0.584036 0.607607 0.178336
H26   H     H_    0.878764 0.460889 0.642067 0.187717
H27   H     H_    0.094020 0.462670 0.641880 0.164476
N1    N     N_R   0.573860 0.731700 0.552730 -0.095703
N2    N     N_R   0.426060 0.268290 0.447230 -0.100928
O1    O     O_R   0.462770 0.383110 0.605620 -0.629037
O2    O     O_R   0.510160 0.531900 0.639510 -0.563991
O3    O     O_R   0.661510 0.425600 0.483070 -0.629385
O4    O     O_R   0.708900 0.574390 0.516960 -0.633726
O5    O     O_R   0.489840 0.468100 0.360490 -0.623241
O6    O     O_R   0.537230 0.616890 0.394380 -0.614565
O7    O     O_R   0.291100 0.425610 0.483040 -0.632131
O8    O     O_R   0.338490 0.574400 0.516930 -0.625530
Zn1   Zn    Zn3+2 0.468350 0.400660 0.477370 0.927171
Zn2   Zn    Zn3+2 0.531650 0.599340 0.522630 0.960359
H28   H     H_    0.956911 0.645746 0.454745 0.104134
O9    O     O_3   0.431978 0.541885 0.795399 -0.609706
C47   C     C_3   0.297861 0.508585 0.816188 -0.302967
H29   H     H_    0.279253 0.481985 0.887134 0.163102
H30   H     H_    0.251629 0.453769 0.776176 0.141430
H31   H     H_    0.251352 0.567119 0.800999 0.191877
O10   O     O_3   0.770587 0.025898 0.672329 -0.611438
C48   C     C_3   0.888772 0.076668 0.628783 -0.348089
H32   H     H_    0.880633 0.145127 0.594522 0.159304
H33   H     H_    0.922623 0.036338 0.582000 0.164059
H34   H     H_    0.963958 0.090549 0.678083 0.200029
H35   H     H_    0.288667 0.297489 0.356512 0.129938
O11   O     O_3   0.892214 0.586577 0.348607 -0.611314
C49   C     C_3   0.932627 0.542091 0.282590 -0.297328
H36   H     H_    0.957371 0.476084 0.307334 0.145749
H37   H     H_    0.016115 0.590461 0.243679 0.172453
H38   H     H_    0.851866 0.525324 0.237619 0.190276

loop_
_geom_bond_atom_site_label_1
_geom_bond_atom_site_label_2
_ccdc_geom_bond_type
O9    C47   S    
C48   H32   S    
C45   H25   S    
C1    O2    A    
C39   H22   S    
C19   C20   A    
O5    Zn1   S    
O1    Zn1   S    
C3    H3    S    
C7    C8    A    
C45   C46   S    
C7    C11   A    
C30   C35   A    
C1    C5    S    
C32   H20   S    
C28   C29   A    
C19   C21   A    
C16   H4    S    
C21   H13   S    
C30   C31   A    
N2    Zn1   S    
C15   C16   A    
C6    C22   A    
C12   O4    A    
C29   C33   A    
C18   C19   A    
C42   C46   S    
C20   C24   A    
C18   H7    S    
C42   H10   S    
C44   O11   S    
C31   C32   A    
C12   O3    A    
C23   O5    A    
C27   N1    A    
C9    C10   A    
C17   H12   S    
C25   H16   S    
C2    C34   S    
C24   H5    S    
O2    Zn2   S    
C43   H23   S    
C21   C22   A    
C45   H26   S    
C15   H11   S    
C44   H28   S    
C8    H9    S    
C44   C46   S    
C4    C45   S    
C25   C29   A    
C3    C44   S    
C14   C20   A    
C3    H24   S    
C38   C41   A    
C12   C46   S    
C27   H18   S    
C33   O10   S    
C39   C40   A    
C25   C26   A    
C35   C36   A    
C2    C4    S    
C26   H17   S    
C5    C9    A    
C37   C38   A    
C41   N2    A    
C11   C16   A    
C49   H36   S    
C47   H31   S    
C35   H21   S    
C2    C43   S    
C43   H19   S    
C6    C24   A    
C17   C18   A    
C4    H27   S    
C49   H37   S    
C47   H30   S    
C48   H34   S    
O7    Zn1   S    
C42   C43   S    
C36   H15   S    
O4    Zn2   S    
C22   H6    S    
C4    H2    S    
C36   C37   A    
C23   O6    A    
O8    Zn2   S    
C1    O1    A    
C41   H14   S    
C10   C13   A    
C5    C8    A    
C40   N2    A    
C31   C38   A    
C13   C17   A    
C32   C33   A    
C28   C30   A    
C2    C3    S    
C40   H35   S    
C9    O9    S    
C48   H33   S    
C6    C23   S    
O10   C48   S    
C26   N1    A    
C42   H1    S    
N1    Zn2   S    
C10   C11   A    
O3    Zn1   S    
C49   H38   S    
C47   H29   S    
C37   C39   A    
O11   C49   S    
C34   O8    A    
C27   C28   A    
C14   C15   A    
C34   O7    A    
C7    H8    S    
C13   C14   A    
O6    Zn2   S    
