data_mof_unit_13220.cif
_audit_creation_date              2012-12-10T19:45:39-0500
_audit_creation_method            fapswitch 2.2
_symmetry_space_group_name_H-M    P1
_symmetry_Int_Tables_number       1
_space_group_crystal_system       triclinic
_cell_length_a                    10.861764
_cell_length_b                    14.719911
_cell_length_c                    14.9013
_cell_angle_alpha                 64.210431
_cell_angle_beta                  103.144089
_cell_angle_gamma                 103.521609
_cell_volume                      2064.11761953

loop_
_atom_site_label
_atom_site_type_symbol
_atom_type_description
_atom_site_fract_x
_atom_site_fract_y
_atom_site_fract_z
_atom_type_partial_charge
C1    C     C_R   0.477604 0.120686 0.312421 0.860814
C2    C     C_R   0.519754 0.879241 0.687482 0.853715
C3    C     C_R   0.870533 0.997168 0.501251 -0.196553
C4    C     C_R   0.128999 0.007394 0.496288 -0.186516
C5    C     C_R   0.907879 0.996434 0.417073 -0.101976
C6    C     C_R   0.092096 0.022637 0.573241 -0.096457
C7    C     C_R   0.452244 0.188979 0.204895 -0.213366
C8    C     C_R   0.507246 0.809533 0.793021 -0.221742
C9    C     C_R   0.374852 0.206824 0.032770 0.276944
C10   C     C_R   0.437079 0.779646 0.948145 0.339853
C11   C     C_R   0.407841 0.146364 0.133860 -0.279569
C12   C     C_R   0.479754 0.846182 0.857107 -0.327394
C13   C     C_R   0.464526 0.295550 0.173060 0.506126
C14   C     C_R   0.501664 0.703807 0.824465 0.520853
C15   C     C_R   0.418653 0.356697 0.072206 -0.055878
C16   C     C_R   0.447115 0.634497 0.912131 -0.074922
C17   C     C_R   0.385948 0.313308 0.000119 -0.061261
C18   C     C_R   0.424547 0.673367 0.978150 -0.054708
C19   C     C_R   0.410545 0.461291 0.040147 -0.095963
C20   C     C_R   0.418025 0.527404 0.938043 -0.108463
C21   C     C_R   0.383782 0.483508 0.865736 0.539948
C22   C     C_R   0.382777 0.500351 0.103931 0.559428
C23   C     C_R   0.262435 0.002162 0.498225 0.844295
C24   C     C_R   0.737312 0.998285 0.501951 0.851410
C25   C     C_R   0.365434 0.377411 0.897647 -0.244537
C26   C     C_R   0.388739 0.605204 0.072058 -0.214944
C27   C     C_R   0.714024 0.286538 0.665659 -0.387886
C28   C     C_R   0.283822 0.709803 0.338275 -0.360839
C29   C     C_R   0.675095 0.200562 0.642111 0.699766
C30   C     C_R   0.321005 0.796923 0.360458 0.700199
C31   C     C_R   0.522245 0.286877 0.507446 -0.056552
C32   C     C_R   0.481747 0.714915 0.490777 -0.033784
C33   C     C_R   0.551190 0.372698 0.533374 -0.026712
C34   C     C_R   0.453310 0.628358 0.465946 0.015877
C35   C     C_R   0.651451 0.371421 0.612858 0.090154
C36   C     C_R   0.350673 0.627567 0.388693 0.125292
C37   C     C_R   0.484463 0.458750 0.484275 0.101996
C38   C     C_R   0.521580 0.542930 0.514439 0.131976
C39   C     C_R   0.625097 0.538505 0.592098 -0.176015
C40   C     C_R   0.379801 0.462159 0.407822 -0.130385
C41   C     C_R   0.688032 0.454149 0.640492 -0.162627
C42   C     C_R   0.314913 0.545067 0.360867 -0.094052
C43   C     C_R   0.365362 0.109374 0.742386 -0.116526
C44   C     C_R   0.687815 0.069490 0.168846 -0.203543
C45   C     C_R   0.279886 0.045525 0.701009 -0.036131
C46   C     C_R   0.772050 0.077048 0.252315 -0.134333
C47   C     C_R   0.179344 0.084258 0.625361 0.124910
C48   C     C_R   0.812807 0.988990 0.331307 0.138991
C49   C     C_R   0.160419 0.185169 0.596746 -0.143295
C50   C     C_R   0.767408 0.893453 0.326942 -0.117529
C51   C     C_R   0.243102 0.247264 0.641052 0.298568
C52   C     C_R   0.682042 0.885899 0.243985 0.307424
C53   C     C_R   0.348156 0.210397 0.711318 -0.120088
C54   C     C_R   0.642487 0.974101 0.164744 -0.119186
C55   C     C_R   0.962679 0.005096 0.581233 0.230755
C56   C     C_R   0.037515 0.002430 0.414578 0.238999
Cu1   Cu    Cu3+1 0.466270 0.918260 0.475690 1.021013
Cu2   Cu    Cu3+1 0.533730 0.081740 0.524310 1.008340
H1    H     H_    0.414211 0.258870 0.744356 0.170644
H2    H     H_    0.577757 0.969280 0.099668 0.205118
H3    H     H_    0.765889 0.453407 0.700942 0.138259
H4    H     H_    0.235216 0.544336 0.302053 0.141536
H5    H     H_    0.556814 0.720899 0.549924 0.171814
H6    H     H_    0.450110 0.282724 0.446031 0.182450
H7    H     H_    0.791636 0.286767 0.725885 0.158983
H8    H     H_    0.203992 0.705629 0.280886 0.149599
H9    H     H_    0.659644 0.599008 0.617886 0.135920
H10   H     H_    0.343351 0.400629 0.383838 0.168563
H11   H     H_    0.443949 0.080855 0.799913 0.152185
H12   H     H_    0.658234 0.137681 0.107032 0.158690
H13   H     H_    0.293053 0.967290 0.725350 0.123637
H14   H     H_    0.807253 0.151246 0.254708 0.121257
H15   H     H_    0.080959 0.215295 0.540244 0.160531
H16   H     H_    0.799106 0.825260 0.387611 0.150363
H17   H     H_    0.338211 0.346468 0.840844 0.223121
H18   H     H_    0.367306 0.632079 0.122961 0.216259
H19   H     H_    0.486595 0.927052 0.834595 0.186164
H20   H     H_    0.401061 0.065223 0.156563 0.216156
N1    N     N_R   0.584450 0.204570 0.560790 -0.227650
N2    N     N_R   0.415550 0.795430 0.439210 -0.228255
O1    O     O_R   0.455540 0.022090 0.338120 -0.541241
O2    O     O_R   0.544460 0.977910 0.661880 -0.553700
O3    O     O_R   0.512510 0.160150 0.379180 -0.551549
O4    O     O_R   0.487490 0.839850 0.620820 -0.552644
O5    O     O_R   0.291160 0.930970 0.479480 -0.522479
O6    O     O_R   0.708840 0.069030 0.520520 -0.525794
O7    O     O_R   0.348130 0.069020 0.520540 -0.610527
O8    O     O_R   0.651870 0.930980 0.479460 -0.605126
Br1   Br    Br    0.305839 0.136534 0.946147 -0.546014
Br2   Br    Br    0.381298 0.839258 0.020822 -0.558284
O9    O     O_3   0.357395 0.541854 0.763696 -0.520006
C57   C     C_3   0.229791 0.559896 0.741353 -0.231457
H21   H     H_    0.214925 0.604916 0.780632 0.129454
H22   H     H_    0.161402 0.487094 0.760437 0.169669
H23   H     H_    0.208505 0.605356 0.659191 0.206906
O10   O     O_3   0.339575 0.436635 0.194770 -0.550804
C58   C     C_3   0.206565 0.405950 0.176324 -0.358280
H24   H     H_    0.183306 0.361868 0.128422 0.183854
H25   H     H_    0.154408 0.472734 0.141416 0.153362
H26   H     H_    0.172081 0.355004 0.249347 0.194221
O11   O     O_3   0.261452 0.883300 0.307766 -0.535923
C59   C     C_3   0.212264 0.897736 0.206695 -0.225715
H27   H     H_    0.194215 0.977455 0.162863 0.239950
H28   H     H_    0.118280 0.848599 0.202663 0.178962
H29   H     H_    0.281179 0.885594 0.169447 0.189900
O12   O     O_3   0.731766 0.113355 0.695760 -0.518339
C60   C     C_3   0.747847 0.085191 0.800949 -0.230786
H30   H     H_    0.841316 0.123797 0.825805 0.189923
H31   H     H_    0.668601 0.100886 0.825537 0.105117
H32   H     H_    0.749187 0.001727 0.839760 0.220710
Br3   Br    Br    0.208965 0.380268 0.609245 -0.561673
Br4   Br    Br    0.623472 0.755186 0.238797 -0.528923
Br5   Br    Br    0.916174 0.981595 0.707410 -0.481744
Br6   Br    Br    0.090849 0.031336 0.289278 -0.512526
O13   O     O_3   0.555805 0.669415 0.771724 -0.532461
C61   C     C_3   0.685084 0.663027 0.814169 -0.311090
H33   H     H_    0.694114 0.607781 0.894449 0.156456
H34   H     H_    0.739876 0.739337 0.807007 0.183601
H35   H     H_    0.728697 0.634947 0.772516 0.176765
O14   O     O_3   0.527135 0.340307 0.239146 -0.526268
C62   C     C_3   0.657313 0.370152 0.226320 -0.274164
H36   H     H_    0.669553 0.429360 0.149329 0.147204
H37   H     H_    0.703085 0.303432 0.242289 0.127032
H38   H     H_    0.707856 0.404033 0.280779 0.205174

loop_
_geom_bond_atom_site_label_1
_geom_bond_atom_site_label_2
_ccdc_geom_bond_type
O11   C59   S    
C45   H13   S    
C5    C56   A    
C36   C42   A    
C19   C20   A    
C18   C26   A    
C41   H3    S    
C6    C55   A    
Cu2   O7    S    
C58   H26   S    
C58   H24   S    
C53   H1    S    
C39   C41   A    
C54   H2    S    
C15   C19   A    
C37   C40   A    
C50   H16   S    
C38   C39   A    
C27   C29   A    
O12   C60   S    
C52   Br4   S    
C1    O1    A    
C14   O13   S    
C61   H33   S    
C59   H29   S    
C62   H38   S    
C1    C7    S    
C3    C55   A    
C43   C53   A    
C44   C46   A    
C49   C51   A    
C26   H18   S    
C60   H30   S    
C31   C33   A    
C44   H12   S    
C14   C16   A    
C51   Br3   S    
C42   H4    S    
C46   H14   S    
C16   C20   A    
C30   N2    A    
C40   C42   A    
C43   H11   S    
C23   O7    A    
C12   H19   S    
C60   H31   S    
Cu1   N2    S    
C3    C24   S    
C22   O10   S    
Cu2   O6    S    
C58   H25   S    
C52   C54   A    
C7    C11   A    
C45   C47   A    
C5    C48   S    
C46   C48   A    
C6    C47   S    
C19   C22   A    
C47   C49   A    
C9    Br1   S    
O9    C57   S    
C4    C23   S    
C55   Br5   S    
C27   C35   A    
C57   H23   S    
C33   C37   A    
C25   H17   S    
C32   C34   A    
C28   H8    S    
C37   C38   A    
C27   H7    S    
C11   H20   S    
C32   N2    A    
C9    C11   A    
C50   C52   A    
C29   N1    A    
C8    C12   A    
O10   C58   S    
C57   H22   S    
C2    O4    A    
Cu1   O4    S    
C59   H28   S    
C48   C50   A    
C43   C45   A    
C10   Br2   S    
C62   H36   S    
C10   C12   A    
Cu2   N1    S    
C9    C17   A    
C13   C15   A    
C22   C26   A    
C60   H32   S    
C49   H15   S    
C29   O12   S    
C2    O2    A    
C4    C6    A    
C13   O14   S    
O14   C62   S    
C21   O9    S    
C15   C17   A    
C21   C25   A    
C8    C14   A    
C34   C38   A    
C39   H9    S    
C31   H6    S    
C24   O8    A    
C2    C8    S    
C32   H5    S    
C3    C5    A    
Cu1   O8    S    
C31   N1    A    
C1    O3    A    
C61   H35   S    
C17   C25   A    
Cu2   O2    S    
C23   O5    A    
Cu2   O3    S    
Cu1   Cu2   S    
C10   C18   A    
C30   O11   S    
C28   C30   A    
C57   H21   S    
C33   C35   A    
C34   C36   A    
C61   H34   S    
Cu1   O1    S    
C59   H27   S    
C35   C41   A    
C62   H37   S    
C44   C54   A    
C7    C13   A    
C20   C21   A    
C28   C36   A    
C16   C18   A    
C40   H10   S    
C56   Br6   S    
C51   C53   A    
C24   O6    A    
Cu1   O5    S    
C4    C56   A    
O13   C61   S    
