data_mof_unit_12154.cif
_audit_creation_date              2013-03-05T15:50:14-0500
_audit_creation_method            fapswitch 2.2
_symmetry_space_group_name_H-M    P1
_symmetry_Int_Tables_number       1
_space_group_crystal_system       triclinic
_cell_length_a                    15.021025
_cell_length_b                    15.030703
_cell_length_c                    34.824343
_cell_angle_alpha                 90.679963
_cell_angle_beta                  89.832632
_cell_angle_gamma                 60.115516
_cell_volume                      6816.22071565

loop_
_atom_site_label
_atom_site_type_symbol
_atom_site_description
_atom_site_fract_x
_atom_site_fract_y
_atom_site_fract_z
_atom_type_partial_charge
O1    O     O_R   0.502070 0.323090 0.541280 -0.424658
O2    O     O_R   0.338340 0.520690 0.539540 -0.450319
C1    C     C_R   0.298526 0.610296 0.555142 0.577081
O3    O     O_R   0.324760 0.674070 0.543580 -0.474938
O4    O     O_R   0.522400 0.640310 0.540110 -0.520569
C2    C     C_R   0.611773 0.589854 0.555035 0.539275
O5    O     O_R   0.675940 0.500630 0.542210 -0.453056
O6    O     O_R   0.641790 0.337020 0.538150 -0.510113
C3    C     C_R   0.590300 0.300284 0.553824 0.560051
O7    O     O_R   0.500260 0.324550 0.456580 -0.460132
O8    O     O_R   0.336660 0.522040 0.461020 -0.492645
C4    C     C_R   0.297610 0.611130 0.446759 0.530724
O9    O     O_R   0.322940 0.675540 0.458880 -0.483744
O10   O     O_R   0.520720 0.641670 0.461580 -0.453039
C5    C     C_R   0.609114 0.591222 0.445869 0.552343
O11   O     O_R   0.674120 0.502090 0.457500 -0.484106
O12   O     O_R   0.640110 0.338380 0.459630 -0.461224
C6    C     C_R   0.589674 0.300093 0.444103 0.567303
Cr1   Cr    Cr6+3 0.421670 0.426920 0.499620 1.192161
Cr2   Cr    Cr6+3 0.427030 0.651190 0.500980 1.144867
Cr3   Cr    Cr6+3 0.651280 0.421870 0.499380 1.153325
O13   O     O_3   0.499990 0.499990 0.499990 -0.306144
N1    N     N_R   0.657874 0.590496 0.774136 -0.173737
N2    N     N_R   0.653220 0.585504 0.736114 -0.128030
C7    C     C_R   0.632962 0.626321 0.592303 -0.034272
C8    C     C_R   0.714008 0.555942 0.615956 -0.009150
C9    C     C_R   0.707026 0.571982 0.655552 -0.125368
C10   C     C_R   0.627126 0.660922 0.672307 0.012229
C11   C     C_R   0.556177 0.739822 0.648679 0.221411
C12   C     C_R   0.559667 0.723540 0.608352 -0.037330
N3    N     N_R   0.599686 0.760156 0.732470 -0.158891
N4    N     N_R   0.604282 0.765215 0.770542 -0.221639
C13   C     C_R   0.633054 0.680554 0.792069 0.301424
C14   C     C_R   0.624218 0.670061 0.714544 0.383804
C15   C     C_R   0.740652 0.604260 0.848816 -0.061370
C16   C     C_R   0.769708 0.609644 0.886489 0.216415
C17   C     C_R   0.612316 0.773435 0.894870 -0.102829
C18   C     C_R   0.581613 0.766398 0.857473 -0.003519
C19   C     C_R   0.649631 0.683424 0.833580 -0.043295
C20   C     C_R   0.707833 0.698448 0.909213 -0.020817
H1    H     H_    0.766437 0.515164 0.673613 0.178349
H2    H     H_    0.791439 0.538823 0.830863 0.199291
H3    H     H_    0.562300 0.839573 0.912635 0.209155
C21   C     C_R   0.722187 0.082229 0.906402 -0.007686
C22   C     C_R   0.641833 0.096855 0.881345 0.184625
C23   C     C_R   0.652811 0.105290 0.841922 -0.091743
C24   C     C_R   0.739512 0.104339 0.826842 0.011600
C25   C     C_R   0.812427 0.105536 0.851795 0.185007
C26   C     C_R   0.802053 0.098312 0.891864 -0.048749
C27   C     C_R   0.739206 0.197959 0.769175 -0.030207
C28   C     C_R   0.729648 0.214795 0.729750 0.221966
C29   C     C_R   0.729899 0.139400 0.704909 0.008913
C30   C     C_R   0.748604 0.043802 0.719727 -0.021474
C31   C     C_R   0.756935 0.028726 0.760067 0.019022
C32   C     C_R   0.748361 0.108569 0.784620 0.039485
C33   C     C_R   0.598442 0.190393 0.652849 0.042846
C34   C     C_R   0.565238 0.225522 0.615311 0.179899
C35   C     C_R   0.731013 0.209102 0.600690 -0.104918
C36   C     C_R   0.766673 0.171202 0.637436 0.027929
C37   C     C_R   0.698718 0.165874 0.664277 0.040953
C38   C     C_R   0.629882 0.240315 0.589686 -0.015165
H4    H     H_    0.733522 0.258019 0.788320 0.186943
H5    H     H_    0.593082 0.112596 0.822632 0.184636
H6    H     H_    0.781764 0.217608 0.580788 0.194168
C39   C     C_R   0.096526 0.692547 0.911472 0.017752
C40   C     C_R   0.087921 0.764658 0.884359 -0.110700
C41   C     C_R   0.114752 0.736292 0.846184 -0.063026
C42   C     C_R   0.151920 0.634953 0.833923 0.068801
C43   C     C_R   0.169589 0.558258 0.860937 0.067957
C44   C     C_R   0.142551 0.587117 0.900259 0.027389
C45   C     C_R   0.265921 0.582492 0.774975 -0.009503
C46   C     C_R   0.275415 0.579690 0.734563 0.186839
C47   C     C_R   0.187395 0.615670 0.711506 0.022924
C48   C     C_R   0.092301 0.639616 0.728097 0.168857
C49   C     C_R   0.082804 0.635918 0.768334 -0.014528
C50   C     C_R   0.168506 0.613084 0.791966 -0.059327
C51   C     C_R   0.194852 0.714493 0.655039 0.227967
C52   C     C_R   0.214080 0.718286 0.615496 -0.044391
C53   C     C_R   0.209449 0.559897 0.604624 0.202686
C54   C     C_R   0.196342 0.554118 0.644244 -0.052103
C55   C     C_R   0.195694 0.627032 0.669662 0.032817
C56   C     C_R   0.234621 0.633332 0.590981 -0.015765
H7    H     H_    0.053233 0.845291 0.892045 0.148292
H8    H     H_    0.184841 0.493629 0.655460 0.201522
H9    H     H_    0.102427 0.794824 0.825611 0.177052
C57   C     C_R   0.690269 0.714507 0.089875 0.037081
C58   C     C_R   0.604601 0.793062 0.110437 0.000162
C59   C     C_R   0.593230 0.779577 0.149522 -0.127381
C60   C     C_R   0.660622 0.687454 0.167522 0.024365
C61   C     C_R   0.735446 0.605447 0.145806 -0.086120
C62   C     C_R   0.750180 0.618814 0.107440 -0.101642
C63   C     C_R   0.660692 0.592325 0.225582 -0.054989
C64   C     C_R   0.658504 0.583250 0.265504 0.265372
C65   C     C_R   0.654349 0.662479 0.289293 -0.015903
C66   C     C_R   0.655149 0.746698 0.272809 -0.162880
C67   C     C_R   0.655461 0.755390 0.233174 -0.111584
C68   C     C_R   0.657231 0.678829 0.209365 -0.011885
C69   C     C_R   0.560203 0.732937 0.352065 0.009598
C70   C     C_R   0.552144 0.718516 0.391711 0.211323
C71   C     C_R   0.720189 0.563697 0.389170 -0.114809
C72   C     C_R   0.729501 0.579319 0.350570 -0.071825
C73   C     C_R   0.647930 0.659430 0.331360 -0.012740
C74   C     C_R   0.629305 0.628528 0.409509 -0.014957
H10   H     H_    0.813910 0.555698 0.092335 0.168803
H11   H     H_    0.798167 0.524815 0.334960 0.169888
H12   H     H_    0.662200 0.533171 0.207053 0.185852
H13   H     H_    0.531757 0.841141 0.166138 0.115898
H14   H     H_    0.654079 0.806557 0.290796 0.153169
H15   H     H_    0.655735 0.821300 0.221045 0.143478
H16   H     H_    0.787344 0.533165 0.159145 0.161591
H17   H     H_    0.781780 0.496338 0.402364 0.204523
C75   C     C_R   0.696320 0.104073 0.087758 -0.017357
C76   C     C_R   0.751458 0.153699 0.098961 0.186415
C77   C     C_R   0.737167 0.196830 0.136372 0.192362
C78   C     C_R   0.670380 0.186191 0.162145 -0.037198
C79   C     C_R   0.609549 0.145827 0.149460 -0.166855
C80   C     C_R   0.621704 0.105980 0.112583 -0.158201
C81   C     C_R   0.587151 0.278775 0.222175 -0.063314
C82   C     C_R   0.580105 0.284698 0.261964 -0.077750
C83   C     C_R   0.661217 0.213349 0.284156 0.007363
C84   C     C_R   0.751278 0.135190 0.266248 0.237608
C85   C     C_R   0.757375 0.126043 0.225728 0.031255
C86   C     C_R   0.674463 0.200072 0.203838 0.003063
C87   C     C_R   0.721620 0.234214 0.348100 -0.014338
C88   C     C_R   0.712931 0.241859 0.388085 0.173352
C89   C     C_R   0.561678 0.221009 0.384421 0.167812
C90   C     C_R   0.573135 0.212272 0.344399 -0.091430
C91   C     C_R   0.650740 0.222027 0.326204 -0.028658
C92   C     C_R   0.626038 0.246003 0.406349 -0.010012
H18   H     H_    0.577785 0.069446 0.104587 0.151727
H19   H     H_    0.522562 0.196039 0.327315 0.186328
H20   H     H_    0.511209 0.345440 0.275580 0.179509
H21   H     H_    0.522769 0.333801 0.205492 0.161183
H22   H     H_    0.784691 0.236612 0.333934 0.214459
H23   H     H_    0.557613 0.138410 0.169119 0.146567
C93   C     C_R   0.081991 0.710650 0.094199 0.022172
C94   C     C_R   0.109532 0.613233 0.108297 -0.122850
C95   C     C_R   0.142282 0.587899 0.146210 0.049357
C96   C     C_R   0.144367 0.663614 0.170161 0.070172
C97   C     C_R   0.125296 0.757151 0.154975 -0.104221
C98   C     C_R   0.094935 0.780383 0.117212 -0.104837
C99   C     C_R   0.246358 0.642832 0.227387 -0.070479
C100  C     C_R   0.260332 0.639214 0.267068 0.055688
C101  C     C_R   0.182110 0.644393 0.291115 0.053529
C102  C     C_R   0.092319 0.653359 0.275614 -0.047406
C103  C     C_R   0.076703 0.660239 0.236043 0.079710
C104  C     C_R   0.156058 0.653066 0.211782 0.061403
C105  C     C_R   0.224786 0.549048 0.352161 0.164291
C106  C     C_R   0.248297 0.544377 0.390861 -0.110416
C107  C     C_R   0.190380 0.727569 0.393243 -0.012087
C108  C     C_R   0.171842 0.731780 0.353327 0.176108
C109  C     C_R   0.192069 0.641753 0.332928 -0.065174
C110  C     C_R   0.239484 0.630287 0.410794 -0.092425
H24   H     H_    0.101914 0.558295 0.090178 0.128140
H25   H     H_    0.074855 0.855811 0.106955 0.175546
H26   H     H_    0.305438 0.638805 0.208277 0.158891
H27   H     H_    0.032930 0.658237 0.294786 0.124505
H28   H     H_    0.281618 0.470314 0.404502 0.205533
H29   H     H_    0.128032 0.814820 0.173129 0.158764
O14   O     O_R   0.017640 0.822070 0.960410 -0.512638
O15   O     O_R   0.822000 0.989470 0.960340 -0.481368
C111  C     C_R   0.735016 0.028635 0.943739 0.585870
O16   O     O_R   0.666920 0.007430 0.955290 -0.449211
O17   O     O_R   0.694410 0.812480 0.959650 -0.503315
C112  C     C_R   0.745280 0.722057 0.945200 0.558052
O18   O     O_R   0.831550 0.656950 0.958960 -0.446500
O19   O     O_R   0.998590 0.685540 0.963930 -0.470498
C113  C     C_R   0.039609 0.732935 0.948416 0.570543
O20   O     O_R   0.008220 0.831200 0.045060 -0.491197
O21   O     O_R   0.813270 0.997930 0.038810 -0.445167
C114  C     C_R   0.722337 0.039912 0.052630 0.572698
O22   O     O_R   0.657500 0.016560 0.039940 -0.501794
O23   O     O_R   0.685680 0.820940 0.038120 -0.456251
C115  C     C_R   0.732074 0.733591 0.054266 0.558171
O24   O     O_R   0.822130 0.666070 0.043610 -0.515624
O25   O     O_R   0.989860 0.694000 0.042400 -0.493858
C116  C     C_R   0.027634 0.744909 0.057786 0.555922
Cr4   Cr    Cr6+3 0.910810 0.908010 0.001130 1.143741
Cr5   Cr    Cr6+3 0.682800 0.909890 0.998370 1.140567
Cr6   Cr    Cr6+3 0.908370 0.682300 0.002180 1.116043
O26   O     O_3   0.833990 0.833400 0.000560 -0.299007
C117  C     C_2   0.808584 0.464950 0.601158 0.317953
H30   H     H_    0.846005 0.395778 0.618104 0.147783
O27   O     O_2   0.849383 0.468631 0.571302 -0.399159
C118  C     C_2   0.875948 0.106885 0.917757 0.326022
H31   H     H_    0.955169 0.076907 0.908767 0.155527
O28   O     O_2   0.847845 0.151185 0.948815 -0.401181
C119  C     C_2   0.874358 0.139616 0.647788 0.329909
H32   H     H_    0.904346 0.107197 0.675638 0.164302
O29   O     O_2   0.931452 0.148917 0.625205 -0.431983
N5    N     N_R   0.717299 0.310118 0.715774 0.078586
O30   O     O_R   0.651189 0.360894 0.689187 -0.283593
O31   O     O_R   0.765490 0.351646 0.732401 -0.289464
C120  C     C_2   0.758825 0.960581 0.693067 0.278065
H33   H     H_    0.737346 0.905106 0.702001 0.131502
O32   O     O_2   0.793033 0.952064 0.660544 -0.428284
C121  C     C_2   0.775909 0.929850 0.776689 0.229704
H34   H     H_    0.745084 0.885531 0.763496 0.112143
O33   O     O_2   0.827313 0.896183 0.805575 -0.490649
C122  C     C_2   0.525633 0.181312 0.679593 0.316976
H35   H     H_    0.470181 0.161695 0.668355 0.189097
O34   O     O_2   0.523850 0.199073 0.713971 -0.462832
N6    N     N_R   0.462487 0.254138 0.604641 0.079940
O35   O     O_R   0.385362 0.327995 0.623212 -0.302799
O36   O     O_R   0.446360 0.197987 0.580042 -0.225285
N7    N     N_R   0.897513 0.112589 0.836384 0.054003
O37   O     O_R   0.911094 0.188639 0.846388 -0.272292
O38   O     O_R   0.957840 0.046557 0.810555 -0.280641
C123  C     C_2   0.488747 0.807694 0.582754 0.323071
H36   H     H_    0.512071 0.809908 0.553415 0.142539
O39   O     O_2   0.403669 0.874043 0.593638 -0.404961
C124  C     C_2   0.158991 0.508229 0.929012 0.338833
H37   H     H_    0.145490 0.445700 0.921552 0.186456
O40   O     O_2   0.189690 0.511464 0.961146 -0.460011
N8    N     N_R   0.375426 0.536329 0.716870 0.070047
O41   O     O_R   0.445168 0.442477 0.724321 -0.256506
O42   O     O_R   0.398047 0.590274 0.694064 -0.286807
C125  C     C_2   0.357990 0.559883 0.798327 0.298726
H38   H     H_    0.422368 0.562111 0.785130 0.178991
O43   O     O_2   0.364500 0.537426 0.832147 -0.472549
N9    N     N_R   0.005581 0.666291 0.703826 0.043387
O44   O     O_R   0.962881 0.609299 0.702968 -0.323726
O45   O     O_R   0.973520 0.743362 0.680690 -0.268095
C126  C     C_2   0.980856 0.661620 0.784995 0.320596
H39   H     H_    0.911561 0.704581 0.768466 0.170040
O46   O     O_2   0.972692 0.632994 0.816793 -0.485452
N10   N     N_R   0.169270 0.801398 0.679861 0.088540
O47   O     O_R   0.090861 0.890562 0.672138 -0.271483
O48   O     O_R   0.221903 0.791586 0.710681 -0.260090
N11   N     N_R   0.863018 0.525455 0.900576 0.100652
O49   O     O_R   0.945400 0.484078 0.879112 -0.289615
O50   O     O_R   0.860402 0.477666 0.931097 -0.253986
C127  C     C_2   0.211425 0.811931 0.600912 0.361205
H40   H     H_    0.240043 0.852188 0.618484 0.202125
O51   O     O_2   0.171779 0.848243 0.570187 -0.408990
C128  C     C_2   0.216064 0.449745 0.847130 0.315036
H41   H     H_    0.203614 0.433103 0.817875 0.148282
O52   O     O_2   0.272452 0.378074 0.867429 -0.421890
N12   N     N_R   0.192243 0.494818 0.578531 0.127249
O53   O     O_R   0.190575 0.414448 0.591091 -0.206880
O54   O     O_R   0.157153 0.527015 0.544319 -0.276624
C129  C     C_2   0.525487 0.889807 0.093152 0.255699
H42   H     H_    0.487476 0.959452 0.110604 0.095293
O55   O     O_2   0.496616 0.891376 0.060310 -0.443331
N13   N     N_R   0.659245 0.494478 0.281049 0.090827
O56   O     O_R   0.707000 0.406822 0.262724 -0.309719
O57   O     O_R   0.604415 0.502419 0.311260 -0.347707
C130  C     C_2   0.475728 0.821218 0.331791 0.302430
H43   H     H_    0.459947 0.813206 0.301958 0.136668
O58   O     O_2   0.424769 0.904584 0.347757 -0.356329
N14   N     N_R   0.463139 0.791506 0.413088 0.128328
O59   O     O_R   0.473028 0.840373 0.442365 -0.253451
O60   O     O_R   0.372692 0.806345 0.404250 -0.251254
N15   N     N_R   0.819761 0.161795 0.072296 0.117090
O61   O     O_R   0.918142 0.099015 0.074458 -0.267253
O62   O     O_R   0.782837 0.216988 0.041770 -0.248439
N16   N     N_R   0.479485 0.834946 0.665635 0.121234
O63   O     O_R   0.407438 0.837528 0.687262 -0.230431
O64   O     O_R   0.484133 0.918232 0.660766 -0.260564
N17   N     N_R   0.791114 0.248801 0.148653 0.090883
O65   O     O_R   0.745204 0.330523 0.170491 -0.313137
O66   O     O_R   0.887238 0.212765 0.139631 -0.254844
N18   N     N_R   0.836192 0.065639 0.289202 0.112335
O67   O     O_R   0.923561 0.063612 0.286335 -0.199940
O68   O     O_R   0.824496 0.009636 0.314718 -0.275367
C131  C     C_2   0.845647 0.035741 0.206342 0.290352
H44   H     H_    0.863446 0.038232 0.176387 0.118287
O69   O     O_2   0.898093 0.955630 0.223236 -0.425797
N19   N     N_R   0.793513 0.243740 0.409622 0.111807
O70   O     O_R   0.842988 0.286670 0.395504 -0.290953
O71   O     O_R   0.829018 0.187827 0.440089 -0.249359
N20   N     N_R   0.486617 0.201812 0.402329 0.106069
O72   O     O_R   0.509303 0.148751 0.433653 -0.235067
O73   O     O_R   0.403300 0.221384 0.384217 -0.229874
N21   N     N_R   0.136610 0.825638 0.332928 0.121750
O74   O     O_R   0.053479 0.861970 0.312679 -0.218275
O75   O     O_R   0.195928 0.865296 0.329590 -0.219089
C132  C     C_2   0.356276 0.629999 0.282933 0.286384
H45   H     H_    0.371334 0.620697 0.313489 0.136015
O76   O     O_2   0.419831 0.633266 0.261957 -0.492381
C133  C     C_2   0.169320 0.484070 0.159661 0.250918
H46   H     H_    0.154268 0.434086 0.141403 0.123492
O77   O     O_2   0.210447 0.451928 0.190539 -0.468736
C134  C     C_2   0.975596 0.678029 0.222124 0.280931
H47   H     H_    0.924312 0.669151 0.241740 0.109712
O78   O     O_2   0.946543 0.705395 0.189457 -0.499110
N22   N     N_R   0.240410 0.457473 0.332527 0.088038
O79   O     O_R   0.218476 0.394475 0.349857 -0.234252
O80   O     O_R   0.286190 0.430993 0.299158 -0.323692
C135  C     C_2   0.152592 0.822829 0.417287 0.369751
H48   H     H_    0.151118 0.818744 0.448324 0.141432
O81   O     O_2   0.119222 0.907380 0.403195 -0.333433
C136  C     C_2   0.478072 0.844615 0.844164 0.305721
H49   H     H_    0.449111 0.835112 0.816859 0.154215
O82   O     O_2   0.422516 0.919991 0.863960 -0.407181
N23   N     N_R   0.548350 0.104132 0.895344 0.110515
O83   O     O_R   0.500102 0.164304 0.924487 -0.233874
O84   O     O_R   0.501952 0.066366 0.875095 -0.256004

loop_
_geom_bond_atom_site_label_1
_geom_bond_atom_site_label_2
_geom_bond_distance
_ccdc_geom_bond_type
C21   C26   1.429085 A    
O6    C3    1.277221 A    
C70   C74   1.420874 A    
C114  O22   1.267478 A    
C85   C131  1.495245 S    
C89   C90   1.400409 A    
C52   C56   1.426367 A    
C44   C124  1.485753 S    
C47   C48   1.407703 A    
C31   C32   1.417364 A    
C83   C84   1.411792 A    
C120  O32   1.220970 D    
C66   C67   1.388195 A    
C53   N12   1.442763 S    
C62   H10   1.083199 S    
C54   H8    1.083316 S    
C126  H39   1.083646 S    
C12   C123  1.489639 S    
C77   C78   1.412663 A    
C118  H31   1.085017 S    
C95   C96   1.415959 A    
C103  C134  1.488516 S    
N14   O59   1.301090 A    
C79   H23   1.084026 S    
C77   N17   1.440366 S    
C30   C31   1.421561 A    
C130  H43   1.084863 S    
C4    O9    1.272208 A    
N6    O36   1.301005 A    
C48   N9    1.437368 S    
O8    Cr1   1.928201 S    
C8    C9    1.391600 A    
C93   C98   1.400971 A    
C45   C125  1.494723 S    
C57   C115  1.482472 S    
O21   Cr4   1.915349 S    
C3    C38   1.490880 S    
C89   N20   1.437963 S    
C10   C11   1.410005 A    
N21   O75   1.301180 A    
C43   C128  1.491171 S    
C135  H48   1.084085 S    
C17   C20   1.408714 A    
C57   C62   1.409634 A    
N8    O42   1.300737 A    
C97   H29   1.084147 S    
O4    C2    1.283128 A    
N7    O38   1.301209 A    
C118  O28   1.221270 D    
C2    C7    1.498491 S    
O21   C114  1.274972 A    
O23   Cr5   1.921515 S    
C100  C101  1.410489 A    
C69   C70   1.414229 A    
C64   N13   1.440804 S    
C111  O16   1.278732 A    
C128  H41   1.084954 S    
C119  O29   1.221343 D    
N16   O63   1.301012 A    
C134  H47   1.086002 S    
O20   C116  1.265376 A    
C121  O33   1.221233 D    
C15   H2    1.084052 S    
C106  C110  1.405226 A    
C115  O24   1.271872 A    
C63   C64   1.400426 A    
N15   O62   1.300675 A    
C29   C37   1.487063 S    
C40   H7    1.083604 S    
C117  H30   1.085974 S    
N11   O49   1.301328 A    
O15   Cr4   1.929047 S    
N12   O53   1.301499 A    
C106  H28   1.083581 S    
C122  H35   1.085263 S    
N1    C13   1.355358 A    
C107  C110  1.415908 A    
O19   Cr6   1.915724 S    
C94   H24   1.084131 S    
C18   C136  1.486930 S    
C129  O55   1.220671 D    
N1    N2    1.329340 A    
N22   O80   1.301252 A    
C78   C79   1.395198 A    
N17   O66   1.300331 A    
C127  H40   1.085057 S    
C4    C110  1.475901 S    
C132  H45   1.084626 S    
C51   C52   1.413844 A    
C46   C47   1.410423 A    
C35   C38   1.404308 A    
N23   O84   1.301088 A    
C120  H33   1.081585 S    
C101  C109  1.463185 S    
C10   C14   1.474141 S    
C36   C37   1.414130 A    
N19   O70   1.301412 A    
C81   C82   1.387772 A    
C35   H6    1.083502 S    
C30   C120  1.493465 S    
C43   C44   1.426659 A    
C21   C111  1.499464 S    
C17   C18   1.403126 A    
C47   C55   1.481267 S    
C75   C76   1.416031 A    
C130  O58   1.220815 D    
C63   C68   1.400878 A    
C102  C103  1.394913 A    
C90   H19   1.083717 S    
C72   H11   1.083788 S    
C18   C19   1.411461 A    
C96   C97   1.398404 A    
C41   H9    1.083956 S    
C78   C86   1.470169 S    
C48   C49   1.412586 A    
C103  C104  1.417824 A    
C28   C29   1.416017 A    
C72   C73   1.397285 A    
O10   Cr2   1.914944 S    
C16   C20   1.416361 A    
Cr1   O13   1.969204 S    
O1    C3    1.272386 A    
C97   C98   1.383858 A    
C36   C119  1.487949 S    
C11   N16   1.433424 S    
C123  H36   1.085367 S    
C131  H44   1.081835 S    
O19   C113  1.274220 A    
O4    Cr2   1.928493 S    
C59   H13   1.084650 S    
N7    O37   1.301139 A    
N20   O72   1.301604 A    
C58   C129  1.480553 S    
O17   Cr5   1.920839 S    
N19   O71   1.301620 A    
C89   C92   1.420657 A    
C27   C28   1.393846 A    
C133  H46   1.085620 S    
O23   C115  1.278130 A    
O1    Cr1   2.045644 S    
C126  O46   1.220447 D    
C93   C116  1.463672 S    
C105  N22   1.439422 S    
C71   C74   1.402578 A    
N2    C14   1.357255 A    
C1    O3    1.273140 A    
C41   C42   1.396387 A    
C88   N19   1.437832 S    
C119  H32   1.084447 S    
N16   O64   1.301068 A    
C15   C16   1.397946 A    
O3    Cr2   2.031530 S    
C17   H3    1.083443 S    
C15   C19   1.401687 A    
C49   C50   1.422989 A    
N5    O31   1.301156 A    
C69   C130  1.489619 S    
C136  H49   1.083948 S    
O6    Cr3   1.921105 S    
C88   C92   1.423099 A    
N9    O44   1.301197 A    
C102  H27   1.084938 S    
C9    H1    1.085317 S    
C125  O43   1.219789 D    
N10   O47   1.301183 A    
C39   C113  1.487438 S    
C51   C55   1.409614 A    
O7    Cr1   2.032863 S    
C108  C109  1.412183 A    
C96   C104  1.461496 S    
C67   C68   1.399691 A    
C34   N6    1.432075 S    
C1    C56   1.500204 S    
C25   N7    1.437049 S    
O12   C6    1.275530 A    
C20   C112  1.485033 S    
N3    C14   1.356699 A    
C26   C118  1.485736 S    
C65   C66   1.401579 A    
N12   O54   1.301793 A    
C64   C65   1.417943 A    
C13   C19   1.471375 S    
C29   C30   1.423393 A    
C59   C60   1.400886 A    
N11   O50   1.301230 A    
C80   H18   1.082917 S    
C127  O51   1.221085 D    
O14   Cr4   2.032760 S    
C84   C85   1.414389 A    
C2    O5    1.273660 A    
C81   H21   1.083738 S    
C131  O69   1.221028 D    
C71   H17   1.082684 S    
C100  C132  1.486267 S    
C8    C117  1.482267 S    
O22   Cr5   2.035991 S    
N20   O73   1.301057 A    
O25   C116  1.272508 A    
N10   O48   1.300515 A    
N21   O74   1.299828 A    
Cr2   O13   1.970563 S    
C49   C126  1.493629 S    
C31   C121  1.491412 S    
N6    O35   1.299895 A    
N13   O57   1.301322 A    
N22   O79   1.301031 A    
O16   Cr5   2.040305 S    
C107  C135  1.494098 S    
C22   N23   1.436363 S    
C132  O76   1.221016 D    
C22   C23   1.397025 A    
C133  O77   1.220707 D    
C33   C34   1.412155 A    
C61   H16   1.083497 S    
C61   C62   1.386850 A    
C90   C91   1.396451 A    
O20   Cr4   2.045939 S    
C28   N5    1.440956 S    
C21   C22   1.418765 A    
C57   C58   1.422407 A    
C24   C32   1.480916 S    
C76   C77   1.415372 A    
C67   H15   1.083449 S    
C63   H12   1.083345 S    
C7    C12   1.426056 A    
N18   O68   1.301239 A    
C23   C24   1.396192 A    
O17   C112  1.277088 A    
C76   N15   1.432232 S    
O9    Cr2   2.045473 S    
C129  H42   1.085568 S    
O2    Cr1   1.916030 S    
C99   C100  1.395935 A    
C35   C36   1.402183 A    
C99   C104  1.398989 A    
C42   C43   1.416545 A    
N3    N4    1.331086 A    
C98   H25   1.083233 S    
C105  C109  1.404793 A    
C124  O40   1.221202 D    
C54   C55   1.396796 A    
C24   C25   1.407056 A    
C82   H20   1.083837 S    
C53   C56   1.419254 A    
C82   C83   1.398192 A    
C83   C91   1.469541 S    
O11   Cr3   2.037071 S    
C34   C38   1.415428 A    
O24   Cr6   2.032621 S    
C87   H22   1.083473 S    
C42   C50   1.486575 S    
C51   N10   1.439499 S    
C94   C95   1.399734 A    
C23   H5    1.084129 S    
C27   C32   1.395338 A    
C107  C108  1.414391 A    
C87   C91   1.394382 A    
C75   C80   1.402200 A    
C101  C102  1.397695 A    
N23   O83   1.301508 A    
C99   H26   1.084517 S    
N4    C13   1.358135 A    
N15   O61   1.301029 A    
N18   O67   1.300972 A    
O2    C1    1.282539 A    
C7    C8    1.422241 A    
Cr3   O13   1.970695 S    
C45   C46   1.412113 A    
C136  O82   1.221131 D    
C69   C73   1.414849 A    
N17   O65   1.301293 A    
O5    Cr3   2.039996 S    
C125  H38   1.085131 S    
C45   C50   1.421512 A    
O15   C111  1.278255 A    
O7    C6    1.276164 A    
C52   C127  1.483879 S    
C27   H4    1.084127 S    
C5    O11   1.274353 A    
C95   C133  1.485511 S    
C134  O78   1.220230 D    
C71   C72   1.385938 A    
C123  O39   1.220488 D    
C128  O52   1.220644 D    
C79   C80   1.383003 A    
C40   C41   1.386999 A    
C135  O81   1.220084 D    
C81   C86   1.399421 A    
O14   C113  1.274226 A    
N8    O41   1.300917 A    
C121  H34   1.081930 S    
N5    O30   1.301067 A    
C117  O27   1.221081 D    
Cr4   O26   1.969435 S    
N14   O60   1.300935 A    
C66   H14   1.083627 S    
C11   C12   1.418957 A    
C53   C54   1.402952 A    
C75   C114  1.474073 S    
C33   C37   1.420130 A    
C112  O18   1.271853 A    
O25   Cr6   1.926060 S    
C46   N8    1.438956 S    
O18   Cr6   2.043704 S    
C124  H37   1.084619 S    
C65   C73   1.470614 S    
C58   C59   1.400909 A    
N9    O45   1.300598 A    
C39   C40   1.403008 A    
C25   C26   1.415038 A    
C60   C68   1.467429 S    
C9    C10   1.395210 A    
C85   C86   1.419532 A    
C16   N11   1.434507 S    
O10   C5    1.272765 A    
C93   C94   1.403863 A    
C6    C92   1.488592 S    
C70   N14   1.434725 S    
C5    C74   1.481132 S    
C60   C61   1.395306 A    
N13   O56   1.301257 A    
C108  N21   1.434197 S    
C105  C106  1.387911 A    
C122  O34   1.220817 D    
C84   N18   1.433793 S    
Cr6   O26   1.970875 S    
C39   C44   1.426062 A    
O8    C4    1.272248 A    
C33   C122  1.492629 S    
C87   C88   1.396207 A    
Cr5   O26   1.971399 S    
O12   Cr3   1.920701 S    
