data_mof_unit_19943.cif
_audit_creation_date              2012-12-10T16:59:15-0500
_audit_creation_method            fapswitch 2.2
_symmetry_space_group_name_H-M    P1
_symmetry_Int_Tables_number       1
_space_group_crystal_system       triclinic
_cell_length_a                    7.729516
_cell_length_b                    8.681075
_cell_length_c                    27.364612
_cell_angle_alpha                 91.201791
_cell_angle_beta                  85.632149
_cell_angle_gamma                 94.271355
_cell_volume                      1825.54507115

loop_
_atom_site_label
_atom_site_type_symbol
_atom_type_description
_atom_site_fract_x
_atom_site_fract_y
_atom_site_fract_z
_atom_type_partial_charge
C1    C     C_R   0.546059 0.794524 0.498820 0.869031
C2    C     C_R   0.649920 0.553674 0.119232 0.003545
C3    C     C_R   0.504406 0.473032 0.646679 -0.197370
C4    C     C_R   0.498210 0.505550 0.352584 -0.183630
C5    C     C_R   0.726431 0.505113 0.018059 0.065005
C6    C     C_R   0.533340 0.260567 0.973719 0.061017
C7    C     C_R   0.558449 0.252689 0.024452 -0.025736
C8    C     C_R   0.751111 0.482588 0.966827 -0.022754
C9    C     C_R   0.634489 0.387374 0.046755 0.053537
C10   C     C_R   0.633327 0.374320 0.944980 0.048811
C11   C     C_R   0.772652 0.647979 0.040741 -0.263294
C12   C     C_R   0.454249 0.205827 0.502785 0.871319
C13   C     C_R   0.399075 0.171472 0.951942 -0.239632
C14   C     C_R   0.733382 0.672274 0.090567 -0.161861
C15   C     C_R   0.373064 0.184701 0.902569 -0.170883
C16   C     C_R   0.501427 0.495687 0.594097 0.889326
C17   C     C_R   0.498752 0.502062 0.405835 0.905594
C18   C     C_R   0.875237 0.572301 0.936051 0.147525
C19   C     C_R   0.504397 0.122809 0.054683 0.139213
C20   C     C_2   0.571487 0.957622 0.500124 0.161628
C21   C     C_2   0.429284 0.043220 0.505317 0.178949
C22   C     C_R   0.674539 0.514196 0.817327 0.525664
C23   C     C_R   0.607931 0.386401 0.894796 -0.057926
C24   C     C_R   0.527317 0.307977 0.178461 0.500623
C25   C     C_R   0.446473 0.312763 0.824564 0.504468
C26   C     C_R   0.599948 0.577900 0.168739 0.504455
C27   C     C_R   0.622955 0.351826 0.713973 -0.235631
C28   C     C_R   0.650341 0.558367 0.274040 -0.254330
C29   C     C_R   0.613856 0.366781 0.663868 0.501415
C30   C     C_R   0.641531 0.575501 0.324719 0.496090
C31   C     C_R   0.396720 0.554976 0.679805 -0.292623
C32   C     C_R   0.357823 0.433859 0.329263 -0.304458
C33   C     C_R   0.403701 0.538508 0.730668 0.221521
C34   C     C_R   0.610766 0.408098 0.097879 -0.055445
C35   C     C_R   0.361883 0.423873 0.277903 0.230685
C36   C     C_R   0.520151 0.436487 0.747045 0.196941
C37   C     C_R   0.515303 0.480230 0.250090 0.192353
C38   C     C_3   0.293661 0.627596 0.768378 -0.407569
C39   C     C_3   0.177240 0.741310 0.747690 -0.777314
C40   C     C_3   0.204170 0.349713 0.254453 -0.365081
C41   C     C_3   0.040703 0.431557 0.269414 -0.860085
C42   C     C_3   0.781297 0.809143 0.340124 -0.306066
C43   C     C_3   0.640127 0.131657 0.627554 -0.272712
C44   C     C_3   0.046803 0.642283 0.953351 -0.446309
C45   C     C_R   0.709275 0.497347 0.866217 -0.067887
C46   C     C_3   0.203700 0.581623 0.923586 -0.842165
C47   C     C_3   0.479731 0.958638 0.035066 -0.420067
C48   C     C_3   0.297432 0.883000 0.048421 -0.863078
C49   C     C_3   0.831431 0.018781 0.456341 -0.204691
C50   C     C_3   0.186059 0.980958 0.555433 -0.227008
C51   C     C_R   0.544925 0.284603 0.127539 -0.068879
C52   C     C_R   0.845808 0.585395 0.886528 -0.152566
C53   C     C_R   0.502176 0.140852 0.105900 -0.158754
C54   C     C_R   0.476165 0.292256 0.873718 -0.006018
H1    H     H_    0.311782 0.633547 0.665394 0.178801
H2    H     H_    0.267451 0.114339 0.887584 0.189110
H3    H     H_    0.827110 0.746361 0.019722 0.144330
H4    H     H_    0.305483 0.097704 0.973229 0.173655
H5    H     H_    0.256963 0.830720 0.725764 0.247495
H6    H     H_    0.080846 0.679377 0.724800 0.279322
H7    H     H_    0.105134 0.800310 0.778426 0.275265
H8    H     H_    0.209405 0.543490 0.791255 0.229220
H9    H     H_    0.381443 0.693935 0.792849 0.216115
H10   H     H_    0.001791 0.417144 0.309021 0.281129
H11   H     H_    0.062724 0.556531 0.261130 0.276805
H12   H     H_    0.247009 0.381901 0.351239 0.176435
H13   H     H_    0.933015 0.379839 0.248359 0.253959
H14   H     H_    0.220554 0.353212 0.213933 0.220380
H15   H     H_    0.183395 0.226735 0.265360 0.230411
H16   H     H_    0.661513 0.855788 0.358019 0.152239
H17   H     H_    0.796456 0.838975 0.300614 0.189689
H18   H     H_    0.894790 0.866717 0.357317 0.180031
H19   H     H_    0.510158 0.132441 0.612640 0.125142
H20   H     H_    0.628839 0.071211 0.663247 0.153236
H21   H     H_    0.723566 0.064541 0.601595 0.220052
H22   H     H_    0.192593 0.453497 0.923105 0.277837
H23   H     H_    0.014284 0.383931 0.463185 0.186469
H24   H     H_    0.213562 0.623789 0.885412 0.246896
H25   H     H_    0.325153 0.622424 0.940623 0.252649
H26   H     H_    0.052504 0.770183 0.950775 0.204157
H27   H     H_    0.061450 0.611322 0.991810 0.226262
H28   H     H_    0.194732 0.953398 0.036543 0.248622
H29   H     H_    0.285118 0.767504 0.030405 0.255712
H30   H     H_    0.275840 0.866386 0.088584 0.267406
H31   H     H_    0.513848 0.948194 0.995157 0.213302
H32   H     H_    0.573712 0.890743 0.051825 0.217612
H33   H     H_    0.755043 0.063667 0.427492 0.116947
H34   H     H_    0.985872 0.616609 0.536673 0.194700
H35   H     H_    0.870071 0.901013 0.446379 0.192200
H36   H     H_    0.953009 0.094660 0.457505 0.200052
H37   H     H_    0.053089 0.922803 0.556516 0.202188
H38   H     H_    0.174078 0.100667 0.569867 0.175890
H39   H     H_    0.263189 0.916054 0.579718 0.125716
H40   H     H_    0.932319 0.662524 0.863669 0.188426
H41   H     H_    0.464462 0.042150 0.128935 0.212044
H42   H     H_    0.766060 0.604131 0.253009 0.183001
H43   H     H_    0.712245 0.275013 0.727437 0.168658
H44   H     H_    0.766892 0.785007 0.106404 0.183498
N1    N     N_R   0.544221 0.423376 0.797861 -0.343930
N2    N     N_R   0.542062 0.455115 0.197909 -0.340301
N3    N     N_2   0.950320 0.457960 0.486880 -0.147292
N4    N     N_2   0.049680 0.542040 0.513120 -0.149063
O1    O     O_R   0.389250 0.738570 0.503220 -0.579747
O2    O     O_2   0.494556 0.185351 0.208122 -0.564965
O3    O     O_2   0.608741 0.723121 0.187522 -0.565074
O4    O     O_2   0.321266 0.223569 0.803537 -0.572598
O5    O     O_3   0.780388 0.648631 0.347195 -0.599750
O6    O     O_3   0.718698 0.282773 0.631754 -0.580922
O7    O     O_3   0.741132 0.021513 0.503169 -0.609490
O8    O     O_3   0.258370 0.979912 0.506450 -0.599933
O9    O     O_R   0.610750 0.261430 0.496780 -0.577523
O10   O     O_R   0.678390 0.711630 0.494810 -0.618999
O11   O     O_R   0.321610 0.288370 0.505190 -0.616431
O12   O     O_R   0.355440 0.513440 0.575450 -0.630878
O13   O     O_R   0.644560 0.486560 0.424550 -0.579931
O14   O     O_R   0.644590 0.486500 0.567040 -0.574677
O15   O     O_R   0.355410 0.513500 0.432960 -0.631283
O16   O     O_2   0.769782 0.620309 0.789296 -0.584056
Zn1   Zn    Zn3+2 0.306940 0.517990 0.505620 0.973209
Zn2   Zn    Zn3+2 0.693060 0.482010 0.494380 1.003676

loop_
_geom_bond_atom_site_label_1
_geom_bond_atom_site_label_2
_ccdc_geom_bond_type
C43   H19   S    
C51   C53   A    
N3    N4    D    
C23   C45   A    
C30   O5    S    
C53   H41   S    
C49   H33   S    
H23   N3    S    
C42   H16   S    
C49   H36   S    
C46   H22   S    
C21   O8    S    
C18   C52   A    
C41   H13   S    
O10   Zn2   S    
C34   C51   A    
C47   H31   S    
C32   H12   S    
C35   C37   A    
C5    C11   A    
O15   Zn1   S    
C1    O10   A    
C46   H25   S    
C11   C14   A    
C19   C47   S    
C27   C29   A    
C50   O8    S    
C33   C36   A    
C7    C9    A    
C3    C29   A    
O11   Zn1   S    
C25   N1    A    
C31   C33   A    
C29   O6    S    
C52   H40   S    
C42   O5    S    
C1    O1    A    
O12   Zn1   S    
C17   O15   A    
C2    C34   A    
C24   C51   A    
C16   O14   A    
C26   O3    S    
C44   C46   S    
C25   O4    S    
C14   H44   S    
C43   H21   S    
C39   H7    S    
C40   H15   S    
C15   C54   A    
C44   H26   S    
C25   C54   A    
C44   H27   S    
C46   H24   S    
C41   H11   S    
C13   H4    S    
C45   C52   A    
C12   C21   S    
C8    C18   A    
O14   Zn2   S    
O9    Zn2   S    
C24   O2    S    
C32   C35   A    
C5    C9    A    
C18   C44   S    
C47   C48   S    
C39   H5    S    
C42   H18   S    
C2    C26   A    
C3    C31   A    
C4    C32   A    
C4    C17   S    
C50   H38   S    
C40   C41   S    
C7    C19   A    
C13   C15   A    
C9    C34   A    
C10   C23   A    
C17   O13   A    
C23   C54   A    
C49   O7    S    
C38   H9    S    
C22   O16   S    
C27   H43   S    
C1    C20   S    
C22   N1    A    
C24   N2    A    
N3    Zn2   S    
O1    Zn1   S    
C49   H35   S    
C16   O12   A    
C6    C10   A    
C5    C8    A    
H34   N4    S    
C50   H39   S    
C6    C7    A    
C27   C36   A    
C33   C38   S    
C48   H29   S    
C28   H42   S    
C15   H2    S    
C28   C30   A    
C35   C40   S    
C6    C13   A    
C19   C53   A    
C38   C39   S    
C28   C37   A    
C43   H20   S    
C39   H6    S    
C42   H17   S    
C48   H28   S    
C12   O11   A    
C36   N1    S    
C43   O6    S    
C37   N2    S    
C2    C14   A    
N4    Zn1   S    
C20   O7    S    
C48   H30   S    
C50   H37   S    
C22   C45   A    
C20   C21   D    
C8    C10   A    
O13   Zn2   S    
C40   H14   S    
C47   H32   S    
C41   H10   S    
C31   H1    S    
C11   H3    S    
C12   O9    A    
C4    C30   A    
C3    C16   S    
C26   N2    A    
C38   H8    S    
