data_mof_unit_26257.cif
_audit_creation_date              2012-12-10T19:56:39-0500
_audit_creation_method            fapswitch 2.2
_symmetry_space_group_name_H-M    P1
_symmetry_Int_Tables_number       1
_space_group_crystal_system       triclinic
_cell_length_a                    28.93435
_cell_length_b                    18.225475
_cell_length_c                    18.263867
_cell_angle_alpha                 89.863089
_cell_angle_beta                  131.398487
_cell_angle_gamma                 89.962372
_cell_volume                      7224.66703382

loop_
_atom_site_label
_atom_site_type_symbol
_atom_type_description
_atom_site_fract_x
_atom_site_fract_y
_atom_site_fract_z
_atom_type_partial_charge
C1    C     C_R   0.500548 0.000065 0.359277 0.943509
C2    C     C_R   0.220368 0.045742 0.271970 -0.167390
C3    C     C_R   0.783647 0.476857 0.096434 -0.178652
C4    C     C_R   0.696699 0.958821 0.954321 0.485212
C5    C     C_R   0.293448 0.938329 0.041915 0.461376
C6    C     C_R   0.181660 0.334201 0.891201 0.457376
C7    C     C_R   0.803736 0.457685 0.046711 0.488411
C8    C     C_R   0.658016 0.897367 0.924525 -0.318530
C9    C     C_R   0.315315 0.865757 0.056775 -0.257229
C10   C     C_R   0.143779 0.277637 0.823888 -0.259171
C11   C     C_R   0.842908 0.396303 0.077802 -0.317054
C12   C     C_R   0.783987 0.946986 0.827335 -0.053983
C13   C     C_R   0.280025 0.548493 0.733163 -0.177620
C14   C     C_R   0.216598 0.945475 0.177817 -0.039456
C15   C     C_R   0.285144 0.437514 0.815064 -0.057550
C16   C     C_R   0.716255 0.447094 0.174065 -0.053953
C17   C     C_2   0.635710 0.877308 0.975418 0.527991
C18   C     C_2   0.319449 0.830561 0.987880 0.491794
C19   C     C_2   0.113369 0.224122 0.842017 0.490154
C20   C     C_2   0.866093 0.376296 0.028234 0.527031
C21   C     C_2   0.837117 0.180386 0.839760 0.318219
C22   C     C_2   0.161326 0.182523 0.155776 0.369169
C23   C     C_2   0.342638 0.685459 0.845917 0.312747
C24   C     C_R   0.720119 0.546100 0.269637 -0.168414
C25   C     C_2   0.656213 0.680255 0.149311 0.322744
C26   C     C_3   0.625292 0.734702 0.860769 0.115888
C27   C     C_3   0.576984 0.674078 0.815142 -0.325348
C28   C     C_3   0.526957 0.692750 0.818395 -0.781786
C29   C     C_3   0.293916 0.707642 0.092437 0.081004
C30   C     C_3   0.310536 0.627779 0.092976 -0.335650
C31   C     C_3   0.332563 0.618612 0.037224 -0.780303
C32   C     C_3   0.127029 0.153358 0.691722 0.061370
C33   C     C_3   0.088321 0.102316 0.603596 -0.327390
C34   C     C_3   0.120707 0.028973 0.624950 -0.882909
C35   C     C_R   0.715461 0.043806 0.665691 0.401610
C36   C     C_3   0.874879 0.233355 0.142110 0.120551
C37   C     C_3   0.923134 0.172410 0.187148 -0.328104
C38   C     C_3   0.971899 0.190320 0.180825 -0.778796
C39   C     C_3   0.684151 0.777175 0.743416 0.081835
C40   C     C_3   0.695437 0.777907 0.672575 -0.324364
C41   C     C_3   0.743348 0.720635 0.700732 -0.906609
C42   C     C_3   0.394259 0.780536 0.341255 0.186008
C43   C     C_3   0.388244 0.702152 0.364017 -0.355278
C44   C     C_3   0.451185 0.665762 0.439416 -0.964722
C45   C     C_3   0.199993 0.284103 0.647703 0.063836
C46   C     C_R   0.285007 0.046400 0.334931 0.442670
C47   C     C_3   0.211046 0.324024 0.586756 -0.305514
C48   C     C_3   0.264572 0.289972 0.600569 -0.924659
C49   C     C_3   0.816367 0.276430 0.259310 0.086845
C50   C     C_3   0.804522 0.277607 0.329451 -0.322465
C51   C     C_3   0.757318 0.219837 0.302302 -0.910778
C52   C     C_2   0.757321 0.042147 0.935966 0.440863
C53   C     C_2   0.261962 0.044449 0.088559 0.477015
C54   C     C_2   0.244321 0.448929 0.936551 0.391154
C55   C     C_2   0.740831 0.539984 0.061255 0.441221
C56   C     C_3   0.671734 0.053462 0.006257 0.189839
C57   C     C_R   0.216304 0.550844 0.674675 0.400914
C58   C     C_3   0.698098 0.130850 0.026627 -0.410728
C59   C     C_3   0.652581 0.188038 0.007272 -0.912863
C60   C     C_3   0.311132 0.021998 0.968861 0.197218
C61   C     C_3   0.276747 0.085619 0.896361 -0.396270
C62   C     C_3   0.319303 0.132989 0.894508 -0.889661
C63   C     C_3   0.176087 0.381389 0.002727 0.222856
C64   C     C_3   0.220074 0.394264 0.113035 -0.324064
C65   C     C_3   0.198756 0.455972 0.140669 -0.888662
C66   C     C_3   0.828612 0.553060 0.995272 0.189900
C67   C     C_3   0.801767 0.630220 0.976036 -0.412355
C68   C     C_R   0.784432 0.548373 0.330298 0.443070
C69   C     C_3   0.846730 0.688199 0.995526 -0.914125
C70   C     C_2   0.818670 0.889803 0.905438 0.430297
C71   C     C_2   0.182454 0.885165 0.104486 0.490866
C72   C     C_2   0.321312 0.372592 0.879261 0.395120
C73   C     C_2   0.681848 0.388893 0.097996 0.430271
C74   C     C_3   0.677264 0.158766 0.599923 0.113230
C75   C     C_3   0.622658 0.196435 0.505339 -0.317868
C76   C     C_3   0.618877 0.277483 0.521757 -0.929129
C77   C     C_3   0.317998 0.160397 0.418548 0.123384
C78   C     C_3   0.325906 0.196002 0.350783 -0.400221
C79   C     C_R   0.686601 0.999822 0.688701 -0.203345
C80   C     C_3   0.316598 0.278879 0.345417 -0.923736
C81   C     C_3   0.180406 0.669265 0.631615 0.125800
C82   C     C_3   0.127909 0.715516 0.544878 -0.310426
C83   C     C_3   0.125282 0.791290 0.577487 -0.928346
C84   C     C_3   0.815167 0.667877 0.396671 0.142655
C85   C     C_3   0.818395 0.693637 0.319428 -0.454278
C86   C     C_3   0.806587 0.776044 0.301083 -0.833666
C87   C     C_2   0.839897 0.107391 0.534393 0.368802
C88   C     C_2   0.157723 0.111266 0.460988 0.347040
C89   C     C_2   0.332190 0.608201 0.528343 0.384004
C90   C     C_R   0.313586 0.000080 0.313424 -0.203757
C91   C     C_2   0.663264 0.612763 0.466506 0.373762
C92   C     C_R   0.187094 0.497327 0.687687 -0.199642
C93   C     C_R   0.499520 0.999903 0.640802 0.952472
C94   C     C_R   0.813262 0.501186 0.309990 -0.201944
C95   C     C_R   0.720902 0.955879 0.773545 -0.049636
C96   C     C_R   0.279743 0.953007 0.232297 -0.004515
C97   C     C_R   0.221126 0.439813 0.757509 -0.049325
C98   C     C_R   0.779137 0.455835 0.227031 -0.054033
C99   C     C_R   0.811010 0.077152 0.633909 -0.029996
C100  C     C_R   0.186687 0.079929 0.362035 -0.045818
C101  C     C_R   0.307546 0.580981 0.634169 -0.031147
C102  C     C_R   0.689734 0.581140 0.364166 -0.051735
C103  C     C_R   0.839618 0.124110 0.613269 0.026713
C104  C     C_R   0.000514 0.500046 0.359235 0.932069
C105  C     C_R   0.159345 0.128290 0.383581 0.037450
C106  C     C_R   0.334356 0.626804 0.609306 0.034285
C107  C     C_R   0.661525 0.628371 0.385237 0.028827
C108  C     C_R   0.868172 0.188094 0.668227 -0.271816
C109  C     C_R   0.133428 0.193982 0.331027 -0.292639
C110  C     C_R   0.363605 0.691334 0.662203 -0.290899
C111  C     C_R   0.631590 0.691681 0.328586 -0.274493
C112  C     C_R   0.867834 0.205541 0.742245 -0.075501
C113  C     C_R   0.133548 0.210787 0.256559 -0.101577
C114  C     C_R   0.366786 0.709647 0.739582 -0.079007
C115  C     C_R   0.999386 0.499908 0.640653 0.929064
C116  C     C_R   0.629784 0.707921 0.252002 -0.090645
C117  C     C_R   0.839281 0.159038 0.763557 -0.021491
C118  C     C_R   0.160297 0.162533 0.233621 -0.033521
C119  C     C_R   0.340487 0.663848 0.765562 -0.007018
C120  C     C_R   0.657365 0.660766 0.229565 -0.003380
C121  C     C_R   0.620441 0.999970 0.623048 0.971233
C122  C     C_R   0.379619 0.000100 0.377887 0.973434
C123  C     C_R   0.120646 0.499474 0.623015 0.937781
C124  C     C_R   0.879533 0.500274 0.376293 0.962354
C125  C     C_R   0.810831 0.093781 0.708739 0.019680
C126  C     C_R   0.813404 0.994204 0.808052 -0.184561
C127  C     C_R   0.187796 0.096640 0.288128 0.008955
C128  C     C_R   0.310218 0.598928 0.711639 0.031592
C129  C     C_R   0.687902 0.596657 0.286939 0.014821
C130  C     C_1   0.502062 0.000183 0.284382 -0.191364
C131  C     C_1   0.497958 0.999706 0.715647 -0.176260
C132  C     C_1   0.002079 0.500080 0.284396 -0.179709
C133  C     C_1   0.997860 0.499727 0.715540 -0.187044
C134  C     C_1   0.502614 0.000134 0.220158 -0.197646
C135  C     C_1   0.497353 0.999677 0.779813 -0.205417
C136  C     C_1   0.002673 0.499969 0.220218 -0.207651
C137  C     C_R   0.186822 0.995950 0.192949 -0.191262
C138  C     C_1   0.997337 0.499698 0.779796 -0.192432
C139  C     C_R   0.000042 0.141268 0.999980 0.920723
C140  C     C_R   0.499891 0.641265 0.999795 0.911413
C141  C     C_R   0.879676 0.998364 0.878074 0.961154
C142  C     C_R   0.120408 0.999626 0.122133 0.963007
C143  C     C_R   0.379814 0.500209 0.878040 0.970937
C144  C     C_R   0.620337 0.498715 0.121945 0.963113
C145  C     C_R   0.999793 0.858786 0.999867 1.045762
C146  C     C_R   0.500659 0.358783 0.000751 1.066812
C147  C     C_R   0.499946 0.140908 0.999934 0.920808
C148  C     C_R   0.313936 0.495181 0.807319 -0.172548
C149  C     C_R   0.999914 0.640910 0.000058 0.922083
C150  C     C_R   0.500972 0.000023 0.141957 0.916207
C151  C     C_R   0.499018 0.999839 0.858034 0.899110
C152  C     C_R   0.000987 0.499908 0.141973 0.901595
C153  C     C_R   0.999019 0.499819 0.858037 0.917953
C154  C     C_R   0.500060 0.859071 0.999836 0.900628
C155  C     C_R   0.000073 0.359068 0.000138 0.902375
C156  C     C_1   0.000146 0.217747 0.000000 -0.117104
C157  C     C_1   0.500003 0.717747 0.999698 -0.130408
C158  C     C_R   0.639563 0.855063 0.844199 0.268623
C159  C     C_R   0.686677 0.495460 0.191841 -0.186734
C160  C     C_R   0.331386 0.824251 0.136291 0.234454
C161  C     C_R   0.133850 0.272257 0.737189 0.266139
C162  C     C_R   0.860927 0.353894 0.158078 0.268542
C163  C     C_1   0.500129 0.782595 0.999751 -0.118276
C164  C     C_1   0.000179 0.282588 0.000133 -0.121469
C165  C     C_1   0.999684 0.782273 0.999926 -0.109456
C166  C     C_1   0.500325 0.282258 0.000487 -0.106598
C167  C     C_1   0.499975 0.217413 0.000068 -0.179900
C168  C     C_1   0.999718 0.717423 0.999973 -0.174163
C169  C     C_R   0.659893 0.873367 0.794658 0.468797
C170  C     C_R   0.779569 0.042486 0.727312 -0.155927
C171  C     C_R   0.328300 0.855792 0.203899 0.434412
C172  C     C_R   0.160610 0.323287 0.717042 0.485876
C173  C     C_R   0.840204 0.372450 0.206927 0.466390
C174  C     C_R   0.696225 0.936495 0.821604 -0.255527
C175  C     C_R   0.304789 0.927745 0.186794 -0.214538
C176  C     C_R   0.192131 0.384993 0.778074 -0.212393
C177  C     C_R   0.803510 0.435608 0.178823 -0.256788
C178  C     C_R   0.715849 0.978198 0.903240 -0.178914
C179  C     C_R   0.288735 0.969578 0.107283 -0.227033
C180  C     C_R   0.204408 0.389053 0.867009 -0.213011
H1    H     H_    0.890447 0.225041 0.653356 0.140399
H2    H     H_    0.207726 0.029381 0.403158 0.185573
H3    H     H_    0.235045 0.467540 0.219902 0.258013
H4    H     H_    0.156790 0.438748 0.126078 0.304231
H5    H     H_    0.840432 0.545676 0.949011 0.206355
H6    H     H_    0.872134 0.549269 0.073361 0.100634
H7    H     H_    0.757855 0.634864 0.899000 0.241301
H8    H     H_    0.792384 0.641134 0.024872 0.229183
H9    H     H_    0.891323 0.683846 0.071824 0.267326
H10   H     H_    0.827097 0.743464 0.984945 0.265742
H11   H     H_    0.854958 0.681508 0.944526 0.284390
H12   H     H_    0.805033 0.874845 0.946276 0.057036
H13   H     H_    0.284466 0.531034 0.593411 0.171914
H14   H     H_    0.197158 0.864997 0.066879 0.055556
H15   H     H_    0.308159 0.342813 0.914366 0.102296
H16   H     H_    0.695163 0.373158 0.056972 0.057744
H17   H     H_    0.719486 0.188344 0.627406 0.155526
H18   H     H_    0.671747 0.163786 0.654696 0.133917
H19   H     H_    0.627495 0.191514 0.450014 0.232383
H20   H     H_    0.579238 0.169141 0.476526 0.254933
H21   H     H_    0.613008 0.283655 0.575706 0.265894
H22   H     H_    0.578732 0.303115 0.451831 0.269213
H23   H     H_    0.661350 0.306505 0.548720 0.283296
H24   H     H_    0.713434 0.532211 0.407892 0.181207
H25   H     H_    0.356050 0.181184 0.493274 0.169313
H26   H     H_    0.276025 0.180404 0.402262 0.153327
H27   H     H_    0.373151 0.185906 0.379638 0.251806
H28   H     H_    0.292425 0.173448 0.275855 0.206966
H29   H     H_    0.268814 0.291829 0.313010 0.279708
H30   H     H_    0.324852 0.303721 0.299402 0.270065
H31   H     H_    0.349587 0.303297 0.419455 0.266358
H32   H     H_    0.223957 0.698994 0.667075 0.154743
H33   H     H_    0.173522 0.663897 0.684754 0.130069
H34   H     H_    0.134764 0.722046 0.492076 0.232648
H35   H     H_    0.593873 0.845464 0.937942 0.094821
H36   H     H_    0.083287 0.687220 0.507261 0.244438
H37   H     H_    0.117311 0.786143 0.629009 0.265763
H38   H     H_    0.086858 0.823518 0.512953 0.263766
H39   H     H_    0.169048 0.821267 0.613704 0.291397
H40   H     H_    0.854183 0.694171 0.466689 0.167471
H41   H     H_    0.773796 0.689847 0.380931 0.150160
H42   H     H_    0.864733 0.682288 0.345144 0.249058
H43   H     H_    0.783771 0.665113 0.248985 0.202976
H44   H     H_    0.760288 0.790011 0.274459 0.300552
H45   H     H_    0.808631 0.793142 0.244871 0.274619
H46   H     H_    0.346091 0.780671 0.009082 0.130960
H47   H     H_    0.842084 0.806820 0.369320 0.255470
H48   H     H_    0.862423 0.144423 0.519875 0.066581
H49   H     H_    0.135241 0.148787 0.475026 0.062492
H50   H     H_    0.353615 0.644243 0.510886 0.061852
H51   H     H_    0.641049 0.650019 0.481368 0.062509
H52   H     H_    0.076993 0.188942 0.783582 0.079988
H53   H     H_    0.907803 0.343812 0.066333 0.088453
H54   H     H_    0.817175 0.144072 0.859414 0.059727
H55   H     H_    0.179479 0.144720 0.134393 0.095889
H56   H     H_    0.326840 0.648160 0.871452 0.053553
H57   H     H_    0.112955 0.232454 0.347644 0.144734
H58   H     H_    0.671202 0.641265 0.123998 0.062379
H59   H     H_    0.647155 0.741308 0.938326 0.138848
H60   H     H_    0.661667 0.716938 0.859939 0.097933
H61   H     H_    0.555579 0.665770 0.738069 0.218858
H62   H     H_    0.599471 0.621964 0.855391 0.231724
H63   H     H_    0.547871 0.702924 0.894793 0.268396
H64   H     H_    0.494309 0.646189 0.788611 0.247494
H65   H     H_    0.500991 0.742391 0.773784 0.267807
H66   H     H_    0.258402 0.726433 0.015181 0.128836
H67   H     H_    0.273473 0.709848 0.126873 0.143133
H68   H     H_    0.384104 0.727718 0.643590 0.146766
H69   H     H_    0.347319 0.608577 0.169295 0.231556
H70   H     H_    0.269286 0.592856 0.058586 0.184582
H71   H     H_    0.295012 0.634115 0.959556 0.215219
H72   H     H_    0.345568 0.560572 0.040905 0.266610
H73   H     H_    0.373677 0.653118 0.069621 0.278299
H74   H     H_    0.135492 0.126187 0.754226 0.153039
H75   H     H_    0.172140 0.162284 0.711545 0.124463
H76   H     H_    0.043280 0.092255 0.583559 0.229010
H77   H     H_    0.079471 0.129021 0.540548 0.230782
H78   H     H_    0.165332 0.037579 0.643277 0.289603
H79   H     H_    0.609806 0.728983 0.343999 0.141316
H80   H     H_    0.091325 0.993367 0.559506 0.271906
H81   H     H_    0.129102 0.000686 0.686779 0.275319
H82   H     H_    0.852518 0.240376 0.064300 0.138215
H83   H     H_    0.838851 0.215686 0.143752 0.097834
H84   H     H_    0.945708 0.164528 0.264900 0.221134
H85   H     H_    0.900401 0.120224 0.148127 0.231987
H86   H     H_    0.949836 0.199437 0.103596 0.266969
H87   H     H_    0.004862 0.143845 0.211079 0.249013
H88   H     H_    0.997703 0.240412 0.223454 0.267124
H89   H     H_    0.729023 0.782777 0.819575 0.104409
H90   H     H_    0.889667 0.255936 0.782459 0.182205
H91   H     H_    0.664685 0.722863 0.737830 0.152646
H92   H     H_    0.651484 0.766430 0.597530 0.216759
H93   H     H_    0.711796 0.832904 0.672331 0.239247
H94   H     H_    0.788376 0.733047 0.773867 0.284884
H95   H     H_    0.749386 0.721460 0.646692 0.266734
H96   H     H_    0.728197 0.664932 0.701721 0.274550
H97   H     H_    0.421563 0.780677 0.318231 0.149713
H98   H     H_    0.421470 0.811285 0.410586 0.172779
H99   H     H_    0.364309 0.703185 0.392735 0.226534
H100  H     H_    0.360163 0.669025 0.296415 0.234443
H101  H     H_    0.112978 0.262034 0.217297 0.180323
H102  H     H_    0.475464 0.662711 0.411391 0.269753
H103  H     H_    0.445112 0.609206 0.454556 0.277164
H104  H     H_    0.479740 0.697230 0.508724 0.264205
H105  H     H_    0.243457 0.284069 0.725623 0.122919
H106  H     H_    0.188338 0.226218 0.623180 0.148119
H107  H     H_    0.168671 0.321284 0.508292 0.222339
H108  H     H_    0.221450 0.382669 0.608360 0.236453
H109  H     H_    0.307797 0.293900 0.678179 0.290636
H110  H     H_    0.270975 0.319795 0.554752 0.268635
H111  H     H_    0.254953 0.231445 0.578270 0.262407
H112  H     H_    0.389779 0.759978 0.778985 0.181606
H113  H     H_    0.771654 0.281532 0.182803 0.101659
H114  H     H_    0.836460 0.222154 0.266364 0.153529
H115  H     H_    0.848441 0.266930 0.405001 0.220715
H116  H     H_    0.787263 0.332504 0.327938 0.238170
H117  H     H_    0.712261 0.231482 0.228659 0.286289
H118  H     H_    0.750957 0.220933 0.355952 0.267194
H119  H     H_    0.773356 0.164240 0.302964 0.273517
H120  H     H_    0.754329 0.074967 0.883365 0.034312
H121  H     H_    0.276846 0.078770 0.149205 0.031588
H122  H     H_    0.240357 0.503560 0.909171 0.057702
H123  H     H_    0.606851 0.757770 0.210435 0.181640
H124  H     H_    0.742498 0.572906 0.112298 0.028279
H125  H     H_    0.659834 0.044557 0.052229 0.206273
H126  H     H_    0.628330 0.050451 0.928015 0.101074
H127  H     H_    0.741809 0.134877 0.103875 0.239579
H128  H     H_    0.707760 0.143104 0.978363 0.232261
H129  H     H_    0.608093 0.184103 0.930866 0.266887
H130  H     H_    0.671794 0.243552 0.018323 0.267076
H131  H     H_    0.644281 0.180114 0.058056 0.284540
H132  H     H_    0.336238 0.990888 0.952400 0.198688
H133  H     H_    0.344852 0.045106 0.044138 0.098544
H134  H     H_    0.788786 0.027412 0.591966 0.178891
H135  H     H_    0.240058 0.063117 0.822238 0.233466
H136  H     H_    0.254885 0.120552 0.915926 0.257550
H137  H     H_    0.359651 0.151363 0.969283 0.277676
H138  H     H_    0.293840 0.182120 0.848159 0.239147
H139  H     H_    0.335038 0.101307 0.862679 0.287235
H140  H     H_    0.131710 0.359581 0.977399 0.176326
H141  H     H_    0.166525 0.434697 0.964903 0.092115
H142  H     H_    0.223991 0.342891 0.149504 0.255168
H143  H     H_    0.266638 0.408048 0.140865 0.262203
H144  H     H_    0.189551 0.506844 0.099181 0.251714
O1    O     O_R   0.500010 0.939400 0.392680 -0.646179
O2    O     O_R   0.551740 1.000000 0.944400 -0.655087
O3    O     O_R   0.948260 0.500000 0.055600 -0.652609
O4    O     O_R   0.051740 0.500000 0.944400 -0.646170
O5    O     O_R   0.551720 0.892660 0.051710 -0.579197
O6    O     O_R   0.448280 0.892660 0.948290 -0.586699
O7    O     O_R   0.051720 0.392660 0.051710 -0.627296
O8    O     O_R   0.948280 0.392660 0.948290 -0.572527
O9    O     O_R   0.499990 0.060580 0.392690 -0.637663
O10   O     O_R   0.500010 0.060580 0.607310 -0.625001
O11   O     O_R   0.999990 0.560580 0.392690 -0.641709
O12   O     O_R   0.499990 0.939400 0.607320 -0.598615
O13   O     O_R   0.000010 0.560580 0.607310 -0.618220
O14   O     O_R   0.591620 0.939400 0.591620 -0.569012
O15   O     O_R   0.408380 0.939400 0.408380 -0.633494
O16   O     O_R   0.091620 0.439400 0.591620 -0.572329
O17   O     O_R   0.908380 0.439400 0.408380 -0.569708
O18   O     O_R   0.591600 0.060580 0.591620 -0.639889
O19   O     O_R   0.408400 0.060580 0.408380 -0.631350
O20   O     O_R   0.091600 0.560580 0.591620 -0.629317
O21   O     O_R   0.908400 0.560580 0.408380 -0.630146
O22   O     O_R   0.999970 0.107360 0.060570 -0.643848
O23   O     O_R   0.000010 0.439400 0.392680 -0.582945
O24   O     O_R   0.000030 0.107360 0.939430 -0.611167
O25   O     O_R   0.499970 0.607360 0.060570 -0.624664
O26   O     O_R   0.500030 0.607360 0.939430 -0.642470
O27   O     O_R   0.908370 0.000030 0.968970 -0.608645
O28   O     O_R   0.091630 0.000030 0.031030 -0.604998
O29   O     O_R   0.408370 0.500030 0.968970 -0.626185
O30   O     O_R   0.591630 0.500030 0.031030 -0.611706
O31   O     O_R   0.908380 1.000000 0.847800 -0.626750
O32   O     O_R   0.091620 1.000000 0.152200 -0.619812
O33   O     O_R   0.408380 0.500000 0.847800 -0.617878
O34   O     O_R   0.999990 0.439400 0.607320 -0.630895
O35   O     O_R   0.591620 0.500000 0.152200 -0.621672
O36   O     O_R   0.000000 0.892710 0.060610 -0.603075
O37   O     O_R   0.000000 0.892710 0.939390 -0.611763
O38   O     O_R   0.500000 0.392710 0.060610 -0.614141
O39   O     O_R   0.500000 0.392710 0.939390 -0.601494
O40   O     O_R   0.551710 0.107310 0.051740 -0.629135
O41   O     O_R   0.448290 0.107310 0.948260 -0.628675
O42   O     O_R   0.051710 0.607310 0.051740 -0.605432
O43   O     O_R   0.948290 0.607310 0.948260 -0.630076
O44   O     O_2   0.664347 0.894407 0.060288 -0.509474
O45   O     O_R   0.551700 0.999990 0.159040 -0.600330
O46   O     O_2   0.292595 0.855550 0.906479 -0.523331
O47   O     O_2   0.128074 0.218335 0.921690 -0.502174
O48   O     O_2   0.838349 0.394199 0.943768 -0.499005
O49   O     O_2   0.856985 0.239505 0.880973 -0.564378
O50   O     O_2   0.142246 0.242012 0.114744 -0.562907
O51   O     O_2   0.361227 0.745836 0.883560 -0.561883
O52   O     O_2   0.639204 0.740820 0.111043 -0.576856
O53   O     O_3   0.596309 0.800046 0.806498 -0.599507
O54   O     O_3   0.347672 0.751175 0.145510 -0.634063
O55   O     O_3   0.094482 0.219849 0.667625 -0.621431
O56   O     O_R   0.448300 0.999990 0.840960 -0.600970
O57   O     O_3   0.904051 0.298380 0.196270 -0.597228
O58   O     O_3   0.640176 0.831800 0.715137 -0.581884
O59   O     O_3   0.334742 0.812645 0.273215 -0.633381
O60   O     O_3   0.149305 0.316904 0.630734 -0.582865
O61   O     O_3   0.859958 0.331200 0.286992 -0.577415
O62   O     O_2   0.796469 0.057479 0.022311 -0.581441
O63   O     O_2   0.221409 0.067373 0.005708 -0.528960
O64   O     O_2   0.283702 0.437101 0.024039 -0.569577
O65   O     O_2   0.701992 0.554507 0.974433 -0.579089
O66   O     O_3   0.716710 0.000286 0.034272 -0.561070
O67   O     O_R   0.051700 0.499990 0.159040 -0.601927
O68   O     O_3   0.267511 0.974718 0.955630 -0.564836
O69   O     O_3   0.203849 0.328823 0.985427 -0.557776
O70   O     O_3   0.784090 0.499197 0.966699 -0.558370
O71   O     O_2   0.861308 0.856424 0.921910 -0.603007
O72   O     O_2   0.139019 0.854874 0.088680 -0.595898
O73   O     O_2   0.364563 0.348928 0.889050 -0.609639
O74   O     O_2   0.639789 0.355721 0.083384 -0.606626
O75   O     O_3   0.680309 0.084721 0.579902 -0.632024
O76   O     O_3   0.322296 0.082495 0.424735 -0.634808
O77   O     O_3   0.181557 0.600252 0.597369 -0.624659
O78   O     O_R   0.948300 0.499990 0.840960 -0.600116
O79   O     O_3   0.821156 0.590863 0.414734 -0.633269
O80   O     O_2   0.814979 0.052366 0.484565 -0.564598
O81   O     O_2   0.181333 0.055344 0.509881 -0.579512
O82   O     O_2   0.306641 0.552587 0.480280 -0.576359
O83   O     O_2   0.689483 0.558394 0.517901 -0.561599
O84   O     O_R   0.448260 1.000000 0.055600 -0.660196
Zn1   Zn    Zn3+2 0.500000 0.919080 0.500000 0.979910
Zn2   Zn    Zn3+2 0.430940 0.999980 0.930930 0.978832
Zn3   Zn    Zn3+2 0.069060 0.499980 0.069070 0.954341
Zn4   Zn    Zn3+2 0.930940 0.499980 0.930930 1.025445
Zn5   Zn    Zn3+2 0.000000 0.419080 0.500000 1.082649
Zn6   Zn    Zn3+2 0.500000 0.080900 0.500000 0.932019
Zn7   Zn    Zn3+2 0.000000 0.580900 0.500000 0.937084
Zn8   Zn    Zn3+2 0.999980 0.000040 0.080910 0.999724
Zn9   Zn    Zn3+2 0.000020 0.000040 0.919090 1.023987
Zn10  Zn    Zn3+2 0.499980 0.500040 0.080910 0.999737
Zn11  Zn    Zn3+2 0.500020 0.500040 0.919090 0.995876
Zn12  Zn    Zn3+2 0.569060 0.999980 0.069070 1.018387

loop_
_geom_bond_atom_site_label_1
_geom_bond_atom_site_label_2
_ccdc_geom_bond_type
C99   C103  A    
C153  O78   A    
O13   Zn7   S    
O56   Zn2   S    
C100  C127  A    
C29   H67   S    
C14   C71   S    
C66   O70   S    
C54   H122  S    
C70   H12   S    
C75   H20   S    
C79   C121  S    
C151  O56   A    
C42   O59   S    
C154  O6    A    
O5    Zn12  S    
C84   H41   S    
C12   C126  A    
C115  O13   A    
C25   O52   D    
C53   C179  S    
C101  C128  A    
O67   Zn3   S    
O28   Zn9   S    
C152  O67   A    
C4    O66   S    
O20   Zn7   S    
C161  O55   S    
C78   H27   S    
C5    C179  A    
C21   C117  S    
C48   H109  S    
C93   O12   A    
C26   H59   S    
C152  O3    A    
C89   C106  S    
C169  C174  A    
C49   H113  S    
C71   O72   D    
C85   H42   S    
O9    Zn6   S    
C119  C128  A    
C6    O69   S    
O4    Zn3   S    
C69   H11   S    
C130  C134  T    
C149  C168  S    
O17   Zn5   S    
C15   C97   A    
C136  C152  S    
C67   H7    S    
C45   C47   S    
C11   C20   S    
C76   H23   S    
C63   H140  S    
C91   C107  S    
C92   C123  S    
C59   H129  S    
C83   H38   S    
C71   H14   S    
C123  O20   A    
C44   H103  S    
O8    Zn4   S    
C11   C162  A    
O1    Zn1   S    
C45   H106  S    
C120  C129  A    
C35   O75   S    
C43   C44   S    
C141  O31   A    
C37   C38   S    
C77   H25   S    
C21   H54   S    
C14   C137  A    
C18   O46   D    
C31   H71   S    
C147  C167  S    
C143  O29   A    
C87   C103  S    
C22   H55   S    
O84   Zn2   S    
C66   H6    S    
C27   H62   S    
C80   H30   S    
C171  O59   S    
C22   C118  S    
O35   Zn10  S    
C124  O21   A    
C99   H134  S    
C60   H132  S    
C104  O23   A    
C126  C141  S    
C114  H112  S    
C8    C17   S    
C13   C128  S    
O19   Zn6   S    
C48   H111  S    
C121  O14   A    
C32   C33   S    
O45   Zn12  S    
C16   C98   A    
C30   C31   S    
O25   Zn10  S    
C42   H98   S    
C32   H75   S    
C72   O73   D    
C30   H70   S    
O78   Zn4   S    
O29   Zn10  S    
C73   H16   S    
C33   H77   S    
C39   O58   S    
C35   C170  A    
C47   H107  S    
C28   H64   S    
C51   H118  S    
C43   H99   S    
C137  C142  S    
C142  O32   A    
C62   H139  S    
C57   C92   A    
C29   H66   S    
C19   O47   D    
C85   C86   S    
C15   C72   S    
O40   Zn12  S    
C34   H78   S    
C58   H127  S    
C68   O79   S    
C162  O57   S    
C36   C37   S    
C47   H108  S    
C23   C119  S    
C15   C148  A    
C78   C80   S    
C55   H124  S    
C13   C57   A    
C17   O44   D    
C83   H39   S    
C84   H40   S    
C3    C55   S    
C61   H136  S    
C81   H33   S    
C74   H18   S    
C7    O70   S    
C12   C95   A    
O43   Zn4   S    
C110  C114  A    
C114  C119  A    
C41   H95   S    
C52   O62   D    
C2    C127  S    
C66   C67   S    
C77   O76   S    
C86   H47   S    
C161  C172  A    
C24   C129  S    
O34   Zn5   S    
C39   H91   S    
C92   C97   A    
C40   H92   S    
C143  C148  S    
O27   Zn8   S    
C36   H83   S    
C39   C40   S    
C76   H21   S    
C9    C160  A    
C68   C94   A    
C116  C120  A    
C91   H51   S    
C38   H87   S    
C5    C9    A    
C29   C30   S    
C126  C170  A    
C1    O9    A    
O32   Zn8   S    
C132  C136  T    
C44   H102  S    
C34   H80   S    
C102  C107  A    
O18   Zn6   S    
C151  O2    A    
C140  O26   A    
C149  O43   A    
C87   H48   S    
C62   H137  S    
C118  C127  A    
C23   H56   S    
C101  C106  A    
C105  C109  A    
C34   H81   S    
C6    C180  A    
C107  C111  A    
C4    C178  A    
O2    Zn12  S    
C69   H10   S    
O16   Zn5   S    
C146  O38   A    
C90   C96   A    
C75   H19   S    
C158  O53   S    
C52   H120  S    
C37   H84   S    
C53   H121  S    
C55   O65   D    
C143  O33   A    
C88   C105  S    
C40   H93   S    
O3    Zn4   S    
O26   Zn11  S    
C35   C79   A    
C56   C58   S    
C61   C62   S    
C78   H28   S    
C48   H110  S    
C155  O8    A    
C64   H143  S    
C26   H60   S    
C9    C18   S    
C176  C180  A    
C49   C50   S    
C32   H74   S    
C20   O48   D    
C86   H45   S    
C49   O61   S    
O30   Zn11  S    
C39   H89   S    
C65   H4    S    
C8    C158  A    
C121  O18   A    
C51   H119  S    
C24   C159  A    
O12   Zn1   S    
C162  C173  A    
C145  C165  S    
C77   C78   S    
C26   C27   S    
C108  H1    S    
C96   C175  S    
C3    C7    A    
C81   O77   S    
C65   H3    S    
C112  C117  A    
C83   H37   S    
C150  O84   A    
C94   C98   A    
C44   H104  S    
C45   H105  S    
O6    Zn2   S    
C84   O79   S    
C111  H79   S    
C50   H115  S    
C102  H24   S    
C122  O15   A    
C12   C70   S    
C111  C116  A    
C89   H50   S    
C100  H2    S    
C19   H52   S    
C174  C178  A    
C4    C8    A    
C88   H49   S    
C133  C138  T    
C91   O83   D    
C141  O27   A    
C27   H61   S    
C14   C96   A    
C145  O36   A    
C101  H13   S    
O21   Zn7   S    
C31   H73   S    
O33   Zn11  S    
C154  O5    A    
C84   C85   S    
C1    C130  S    
C112  H90   S    
C115  C133  S    
C58   C59   S    
C139  O24   A    
C108  C112  A    
C60   C61   S    
C36   H82   S    
C5    O68   S    
C63   H141  S    
C79   C95   A    
C57   O77   S    
C10   C19   S    
C144  O30   A    
C50   C51   S    
C49   H114  S    
C37   H85   S    
C144  C159  S    
C125  C170  S    
C85   H43   S    
C82   H36   S    
C138  C153  S    
C142  O28   A    
O39   Zn11  S    
C10   C161  A    
C109  H57   S    
O37   Zn9   S    
C104  O11   A    
C42   C43   S    
C25   C120  S    
C160  O54   S    
C51   H117  S    
C67   H8    S    
C110  H68   S    
C42   H97   S    
C21   O49   D    
C2    C137  A    
C33   H76   S    
C6    C10   A    
C59   H130  S    
C30   H69   S    
C60   H133  S    
O15   Zn1   S    
C26   O53   S    
C60   O68   S    
C144  O35   A    
C56   H125  S    
C64   C65   S    
C56   H126  S    
C77   H26   S    
C25   H58   S    
C135  C151  S    
C160  C171  A    
C31   H72   S    
C73   O74   D    
C150  O45   A    
C38   H86   S    
C52   C178  S    
C87   O80   D    
C24   C68   A    
O7    Zn3   S    
C61   H135  S    
C81   H32   S    
C82   C83   S    
C104  C132  S    
C66   H5    S    
C172  O60   S    
C93   C131  S    
C169  O58   S    
C41   H94   S    
C113  H101  S    
C80   H29   S    
C64   H142  S    
O24   Zn9   S    
C102  C129  A    
C75   C76   S    
C65   H144  S    
C29   O54   S    
C72   H15   S    
C81   C82   S    
C99   C125  A    
C2    C46   A    
C7    C11   A    
C139  O22   A    
C100  C105  A    
C89   O82   D    
C95   C174  S    
C131  C135  T    
C124  O17   A    
O11   Zn7   S    
C76   H22   S    
C134  C150  S    
C22   O50   D    
C38   H88   S    
C58   H128  S    
O42   Zn3   S    
C18   H46   S    
C82   H34   S    
O14   Zn1   S    
O10   Zn6   S    
C43   H100  S    
C36   O57   S    
C46   C90   A    
C56   O66   S    
C103  C108  A    
C28   H63   S    
C54   O64   D    
C157  C163  T    
C109  C113  A    
C123  O16   A    
C149  O42   A    
C146  C166  S    
C62   H138  S    
C97   C176  S    
O31   Zn9   S    
C16   C159  A    
O22   Zn8   S    
C90   C122  S    
C86   H44   S    
O36   Zn8   S    
C74   C75   S    
C16   C73   S    
C154  C163  S    
C122  O19   A    
C69   H9    S    
C146  O39   A    
C175  C179  A    
C116  H123  S    
C171  C175  A    
C63   C64   S    
C67   C69   S    
C74   O75   S    
O41   Zn2   S    
C140  C157  S    
C88   O81   D    
C47   C48   S    
C74   H17   S    
C173  C177  A    
C147  O40   A    
C33   C34   S    
C98   C177  S    
C41   H96   S    
C80   H31   S    
C155  O7    A    
C93   O10   A    
C40   C41   S    
C20   H53   S    
C165  C168  T    
C23   O51   D    
C166  C167  T    
C45   O60   S    
C106  C110  A    
C158  C169  A    
C173  O61   S    
C53   O63   D    
C145  O37   A    
C155  C164  S    
C147  O41   A    
C3    C177  A    
C70   O71   D    
C153  O4    A    
C59   H131  S    
C63   O69   S    
C32   O55   S    
C117  C125  A    
C139  C156  S    
C54   C180  S    
C28   H65   S    
O38   Zn10  S    
C50   H116  S    
C140  O25   A    
O23   Zn5   S    
C113  C118  A    
C172  C176  A    
C156  C164  T    
C27   C28   S    
C115  O34   A    
C46   O76   S    
C13   C148  A    
C17   H35   S    
C1    O1    A    
C94   C124  S    
