data_mof_unit_49473.cif
_audit_creation_date              2012-12-11T15:48:42-0500
_audit_creation_method            fapswitch 2.2
_symmetry_space_group_name_H-M    P1
_symmetry_Int_Tables_number       1
_space_group_crystal_system       triclinic
_cell_length_a                    10.941674
_cell_length_b                    10.988342
_cell_length_c                    18.790808
_cell_angle_alpha                 90.866949
_cell_angle_beta                  89.829126
_cell_angle_gamma                 59.993109
_cell_volume                      1956.04982279

loop_
_atom_site_label
_atom_site_type_symbol
_atom_type_description
_atom_site_fract_x
_atom_site_fract_y
_atom_site_fract_z
_atom_type_partial_charge
C1    C     C_R   0.239772 0.645873 0.610484 0.542030
C2    C     C_3   0.666956 0.553587 0.799590 -0.254057
C3    C     C_3   0.698646 0.673254 0.812245 0.051406
C4    C     C_3   0.669286 0.648666 0.676221 0.058476
C5    C     C_3   0.817414 0.627495 0.690091 -0.246498
C6    C     C_3   0.649601 0.539222 0.719391 -0.212669
C7    C     C_R   0.683427 0.150742 0.822179 0.016601
C8    C     C_R   0.780482 0.172921 0.784465 -0.006467
C9    C     C_R   0.774127 0.182768 0.710381 0.012334
C10   C     C_R   0.578416 0.141356 0.709725 -0.181271
C11   C     C_R   0.575699 0.146352 0.782976 -0.170874
C12   C     C_R   0.653739 0.622904 0.600783 0.544984
C13   C     C_3   0.936748 0.090599 0.784498 -0.270938
C14   C     C_3   0.931322 0.099140 0.703984 -0.281438
C15   C     C_R   0.674372 0.164539 0.671887 0.014893
C16   C     C_R   0.183085 0.665537 0.835281 0.013316
C17   C     C_R   0.154421 0.576282 0.793868 0.020295
C18   C     C_R   0.162265 0.575013 0.720059 -0.005182
C19   C     C_R   0.218048 0.760645 0.726804 -0.172248
C20   C     C_R   0.218114 0.756179 0.800649 -0.179255
C21   C     C_3   0.227719 0.420024 0.795954 -0.284070
C22   C     C_3   0.233882 0.419070 0.715452 -0.270389
C23   C     C_R   0.630159 0.225949 0.601832 0.537802
C24   C     C_R   0.196008 0.665770 0.685147 0.011883
C25   C     C_R   0.651168 0.682339 0.169625 0.022791
C26   C     C_R   0.733283 0.691587 0.223627 -0.026632
C27   C     C_R   0.723881 0.654641 0.292331 0.043414
C28   C     C_R   0.521340 0.635806 0.260740 -0.116406
C29   C     C_R   0.537248 0.663775 0.189019 -0.162040
C30   C     C_3   0.888822 0.621787 0.226783 -0.214936
C31   C     C_3   0.880193 0.565087 0.298314 0.156199
C32   C     C_R   0.621316 0.622756 0.311945 0.059517
C33   C     C_R   0.654552 0.145716 0.177727 0.023811
C34   C     C_R   0.225483 0.647236 0.400727 0.549231
C35   C     C_R   0.604546 0.077745 0.221333 0.035440
C36   C     C_R   0.606596 0.088636 0.293950 0.003138
C37   C     C_R   0.733955 0.214394 0.281931 -0.177680
C38   C     C_R   0.729067 0.205346 0.208363 -0.171435
C39   C     C_3   0.466292 0.081309 0.222119 -0.255363
C40   C     C_3   0.469787 0.090577 0.302634 -0.274228
C41   C     C_R   0.660989 0.166952 0.325198 0.008791
C42   C     C_R   0.145648 0.683198 0.182905 0.009212
C43   C     C_R   0.096002 0.802394 0.227455 -0.011326
C44   C     C_R   0.107239 0.794137 0.299074 0.017539
C45   C     C_R   0.614650 0.587544 0.385821 0.560634
C46   C     C_R   0.215728 0.540954 0.287160 -0.184259
C47   C     C_R   0.202476 0.551161 0.213308 -0.192656
C48   C     C_3   0.109396 0.930933 0.224082 -0.200386
C49   C     C_3   0.118029 0.926191 0.304784 0.154718
C50   C     C_R   0.172031 0.662763 0.330432 0.008854
C51   C     C_R   0.702543 0.099266 0.895172 0.540587
C52   C     C_R   0.723190 0.687509 0.888311 0.541475
C53   C     C_R   0.119868 0.704909 0.906169 0.534631
C54   C     C_R   0.674319 0.106854 0.104023 0.545037
C55   C     C_R   0.691903 0.689886 0.096404 0.539316
C56   C     C_R   0.619035 0.227679 0.395419 0.540826
C57   C     C_R   0.097210 0.708944 0.111043 0.540394
C58   C     C_3   0.573696 0.811365 0.782975 -0.230824
C59   C     C_3   0.558517 0.798077 0.702423 -0.242142
C60   C     C_3   0.834487 0.641213 0.770230 -0.217272
Cr1   Cr    Cr6+3 0.392960 0.397920 0.502240 0.984670
Cr2   Cr    Cr6+3 0.398340 0.708480 0.501250 0.987754
Cr3   Cr    Cr6+3 0.708670 0.393570 0.496460 1.003663
Cr4   Cr    Cr6+3 0.937650 0.938540 0.007610 1.006922
Cr5   Cr    Cr6+3 0.625330 0.937370 0.994520 1.003782
Cr6   Cr    Cr6+3 0.937940 0.625230 0.001190 1.005334
H1    H     H_    0.594106 0.898820 0.793062 0.145784
H2    H     H_    0.924248 0.540660 0.788435 0.141959
H3    H     H_    0.900839 0.521778 0.670809 0.132862
H4    H     H_    0.496943 0.130126 0.682933 0.127636
H5    H     H_    0.493139 0.134815 0.808236 0.137155
H6    H     H_    0.974384 0.983618 0.804480 0.174009
H7    H     H_    0.983744 0.149542 0.809801 0.127774
H8    H     H_    0.976273 0.162414 0.682613 0.130738
H9    H     H_    0.968483 0.996114 0.676430 0.145101
H10   H     H_    0.240366 0.835969 0.702546 0.133205
H11   H     H_    0.473385 0.837041 0.810752 0.115808
H12   H     H_    0.235162 0.831438 0.830492 0.129154
H13   H     H_    0.341930 0.374128 0.693585 0.181841
H14   H     H_    0.167352 0.381298 0.689697 0.122199
H15   H     H_    0.437021 0.616427 0.275207 0.144800
H16   H     H_    0.917515 0.704392 0.231477 0.107161
H17   H     H_    0.945575 0.539755 0.185132 0.191009
H18   H     H_    0.450234 0.819879 0.691289 0.133543
H19   H     H_    0.925047 0.594782 0.344058 0.118355
H20   H     H_    0.782973 0.270784 0.304136 0.187779
H21   H     H_    0.781146 0.246623 0.175577 0.138885
H22   H     H_    0.475459 0.981310 0.202318 0.164653
H23   H     H_    0.380223 0.177972 0.198016 0.124193
H24   H     H_    0.484775 0.994135 0.328774 0.154029
H25   H     H_    0.269081 0.437297 0.309651 0.137858
H26   H     H_    0.235831 0.457778 0.180437 0.116950
H27   H     H_    0.012441 0.023114 0.204405 0.120229
H28   H     H_    0.573675 0.877545 0.673870 0.112287
H29   H     H_    0.208638 0.910234 0.196862 0.158689
H30   H     H_    0.022835 0.015617 0.330775 0.094220
H31   H     H_    0.859732 0.726325 0.780347 0.127115
H32   H     H_    0.832047 0.707009 0.661106 0.115331
H33   H     H_    0.754464 0.453021 0.819843 0.130426
H34   H     H_    0.568611 0.576327 0.828519 0.118199
H35   H     H_    0.543986 0.551039 0.709218 0.129236
O1    O     O_R   0.507380 0.255700 0.581440 -0.535743
O2    O     O_R   0.524480 0.695810 0.424040 -0.506770
O3    O     O_R   0.736390 0.504290 0.414790 -0.485453
O4    O     O_R   0.691300 0.277290 0.422170 -0.526292
O5    O     O_3   0.499990 0.499990 0.499980 -0.266888
O6    O     O_R   0.089400 0.825690 0.930570 -0.532003
O7    O     O_R   0.818460 0.054440 0.929850 -0.499945
O8    O     O_R   0.606060 0.077150 0.915510 -0.537748
O9    O     O_R   0.646550 0.806680 0.917570 -0.513223
O10   O     O_R   0.837170 0.593410 0.915250 -0.526893
O11   O     O_R   0.065200 0.635530 0.931570 -0.500156
O12   O     O_R   0.280320 0.527350 0.578930 -0.500467
O13   O     O_R   0.068260 0.828890 0.091840 -0.523048
O14   O     O_R   0.798870 0.057410 0.079340 -0.503999
O15   O     O_R   0.584930 0.080350 0.076780 -0.519262
O16   O     O_R   0.626960 0.809650 0.067060 -0.501961
O17   O     O_R   0.816040 0.596610 0.076510 -0.521791
O18   O     O_R   0.045610 0.638500 0.081060 -0.512441
O19   O     O_3   0.833640 0.833710 0.001100 -0.245831
O20   O     O_R   0.260510 0.739590 0.584590 -0.539816
O21   O     O_R   0.532300 0.695080 0.573820 -0.511159
O22   O     O_R   0.744840 0.503500 0.576370 -0.528968
O23   O     O_R   0.699120 0.276560 0.571960 -0.502076
O24   O     O_R   0.498940 0.256500 0.419860 -0.527644
O25   O     O_R   0.272500 0.528080 0.429150 -0.520886
O26   O     O_R   0.252060 0.740380 0.423010 -0.488483
H36   H     H_    0.730579 0.432187 0.701657 0.149264
H37   H     H_    0.159395 0.380633 0.817254 0.131649
H38   H     H_    0.331914 0.376629 0.821795 0.142852
H39   H     H_    0.466508 0.663296 0.148993 0.111878
O27   O     O_3   0.916760 0.422182 0.293848 -0.558239
C61   C     C_3   0.063952 0.334843 0.291878 -0.140104
H40   H     H_    0.110062 0.337983 0.344019 0.117288
H41   H     H_    0.114429 0.360910 0.248180 0.104204
H42   H     H_    0.086468 0.226740 0.279544 0.144429
H43   H     H_    0.382634 0.190765 0.324807 0.139622
O28   O     O_3   0.251877 0.901905 0.327262 -0.543752
C62   C     C_3   0.236902 0.992433 0.385167 -0.070320
H44   H     H_    0.156159 0.004181 0.425157 0.114504
H45   H     H_    0.212869 0.096116 0.366290 0.068999
H46   H     H_    0.338663 0.948870 0.413169 0.157737

loop_
_geom_bond_atom_site_label_1
_geom_bond_atom_site_label_2
_ccdc_geom_bond_type
C44   C49   S    
C8    C13   S    
C31   H19   S    
C48   H29   S    
C32   C45   S    
C34   O26   A    
C35   C36   A    
C9    C14   S    
Cr3   O23   S    
C7    C8    A    
C29   H39   S    
C7    C11   A    
C26   C27   A    
C37   C38   A    
C18   C24   A    
C14   H8    S    
C28   C29   A    
C22   H13   S    
C10   C15   A    
Cr2   O26   S    
C62   H46   S    
C11   H5    S    
C23   O1    A    
C47   H26   S    
C6    H35   S    
C30   H17   S    
C16   C53   S    
C36   C40   S    
C5    H3    S    
C49   O28   S    
C45   O2    A    
C58   H11   S    
C19   C20   A    
O27   C61   S    
C54   O15   A    
C61   H42   S    
Cr1   O25   S    
C59   H28   S    
Cr6   O10   S    
Cr3   O4    S    
C43   C48   S    
C34   O25   A    
C57   O18   A    
C3    C60   S    
C22   H14   S    
C15   C23   S    
C28   H15   S    
C2    H34   S    
C51   O8    A    
Cr4   O14   S    
Cr6   O19   S    
C13   C14   S    
C40   H43   S    
C37   C41   A    
C36   C41   A    
C2    C6    S    
C1    O12   A    
C39   H22   S    
C42   C57   S    
Cr4   O7    S    
C25   C29   A    
C21   H38   S    
C62   H44   S    
C34   C50   S    
Cr4   O13   S    
C48   H27   S    
C27   C31   S    
C37   H20   S    
C28   C32   A    
C59   H18   S    
C4    C6    S    
C60   H31   S    
C10   C11   A    
C39   C40   S    
C8    C9    A    
C46   H25   S    
C52   O10   A    
C25   C26   A    
C17   C21   S    
Cr5   O9    S    
C30   H16   S    
C35   C39   S    
C43   C44   A    
C41   C56   S    
C31   O27   S    
C45   O3    A    
C53   O6    A    
C52   O9    A    
C30   C31   S    
C16   C20   A    
Cr5   O8    S    
C54   O14   A    
C17   C18   A    
C56   O24   A    
Cr3   O5    S    
Cr1   O5    S    
C21   H37   S    
C23   O23   A    
C10   H4    S    
C53   O11   A    
C48   C49   S    
C13   H7    S    
C2    H33   S    
C51   O7    A    
Cr6   O18   S    
Cr1   O12   S    
C61   H40   S    
Cr5   O15   S    
C4    C12   S    
C42   C43   A    
Cr2   O21   S    
Cr4   O6    S    
Cr2   O2    S    
C55   O16   A    
C44   C50   A    
C33   C54   S    
C46   C47   A    
C19   H10   S    
C5    C60   S    
C27   C32   A    
C18   C22   S    
C25   C55   S    
C4    C5    S    
Cr3   O22   S    
C3    C52   S    
C26   C30   S    
C57   O13   A    
Cr2   O5    S    
C13   H6    S    
C46   C50   A    
C33   C38   A    
Cr4   O19   S    
C20   H12   S    
C38   H21   S    
C40   H24   S    
C14   H9    S    
C19   C24   A    
C58   C59   S    
C6    H36   S    
C62   H45   S    
C16   C17   A    
C12   O22   A    
C4    C59   S    
C33   C35   A    
Cr5   O19   S    
C39   H23   S    
C2    C3    S    
Cr3   O3    S    
C42   C47   A    
C49   H30   S    
C9    C15   A    
C1    O20   A    
C56   O4    A    
O28   C62   S    
C7    C51   S    
C3    C58   S    
C58   H1    S    
C12   O21   A    
C5    H32   S    
C60   H2    S    
C1    C24   S    
Cr6   O17   S    
C61   H41   S    
Cr5   O16   S    
Cr1   O24   S    
Cr6   O11   S    
C21   C22   S    
Cr1   O1    S    
Cr2   O20   S    
C55   O17   A    
