data_mof_unit_7205.cif
_audit_creation_date              2012-10-26T18:49:32-0400
_audit_creation_method            fapswitch 2.2
_symmetry_space_group_name_H-M    P1
_symmetry_Int_Tables_number       1
_space_group_crystal_system       triclinic
_cell_length_a                    19.385992
_cell_length_b                    11.172828
_cell_length_c                    9.876439
_cell_angle_alpha                 111.86752
_cell_angle_beta                  98.289059
_cell_angle_gamma                 90.629515
_cell_volume                      1959.6612739

loop_
_atom_site_label
_atom_site_type_symbol
_atom_type_description
_atom_site_fract_x
_atom_site_fract_y
_atom_site_fract_z
_atom_type_partial_charge
C1    C     C_R   0.494679 0.253811 0.439792 0.540983
C2    C     C_R   0.632750 0.499810 0.498831 0.554474
C3    C     C_R   0.261786 0.541798 0.631665 0.252787
C4    C     C_R   0.738826 0.508887 0.379450 0.246806
C5    C     C_R   0.189357 0.550092 0.622937 -0.119719
C6    C     C_R   0.811438 0.520386 0.389757 -0.121519
C7    C     C_R   0.145073 0.507034 0.486910 -0.005202
C8    C     C_R   0.856123 0.520193 0.514302 -0.009252
C9    C     C_R   0.172852 0.458490 0.353699 -0.013299
C10   C     C_R   0.827499 0.516021 0.636977 -0.010793
C11   C     C_R   0.245971 0.457733 0.362824 -0.167114
C12   C     C_R   0.504606 0.746376 0.560454 0.547386
C13   C     C_R   0.754306 0.502670 0.624572 -0.167174
C14   C     C_R   0.290817 0.499874 0.500038 0.002682
C15   C     C_R   0.709410 0.503027 0.499377 -0.003104
C16   C     C_R   0.931889 0.518764 0.508708 0.332475
C17   C     C_R   0.069778 0.508524 0.489845 0.331933
C18   C     C_3   0.289654 0.517102 0.854489 -0.013961
C19   C     C_3   0.302187 0.606228 0.016771 -0.374292
C20   C     C_3   0.698290 0.381918 0.140987 -0.011628
C21   C     C_3   0.668571 0.385378 0.991955 -0.373420
C22   C     C_3   0.123690 0.407722 0.205887 -0.236609
C23   C     C_2   0.492502 0.113275 0.404201 0.228242
C24   C     C_3   0.157576 0.335930 0.068865 -0.322739
C25   C     C_3   0.102817 0.282190 0.929560 -0.444281
C26   C     C_3   0.874977 0.528280 0.779739 -0.236379
C27   C     C_3   0.840667 0.574932 0.919764 -0.327002
C28   C     C_3   0.895055 0.609913 0.059174 -0.433197
C29   C     C_3   0.566138 0.962576 0.833791 -0.003635
C30   C     C_3   0.589631 0.092127 0.956683 -0.401246
C31   C     C_3   0.431221 0.023643 0.167395 -0.015662
C32   C     C_3   0.395092 0.889159 0.109130 -0.383848
C33   C     C_3   0.577016 0.663740 0.970604 -0.111177
C34   C     C_2   0.504807 0.887378 0.596626 0.225786
C35   C     C_3   0.640578 0.699186 0.913998 -0.266172
C36   C     C_3   0.686599 0.810289 0.035684 -0.501718
C37   C     C_3   0.446342 0.312595 0.038664 -0.087643
C38   C     C_3   0.368644 0.284814 0.037718 -0.288419
C39   C     C_3   0.336432 0.169239 0.900282 -0.482332
C40   C     C_2   0.495899 0.069317 0.514111 -0.103739
C41   C     C_2   0.498053 0.930797 0.486021 -0.103011
C42   C     C_2   0.489367 0.527919 0.082466 -0.018779
C43   C     C_2   0.486604 0.501281 0.916899 -0.010968
C44   C     C_R   0.367325 0.499921 0.500938 0.560067
Cu1   Cu    Cu3+1 0.512140 0.521810 0.644910 0.929125
Cu2   Cu    Cu3+1 0.487860 0.478190 0.355090 0.924188
H1    H     H_    0.167210 0.590830 0.723937 0.125726
H2    H     H_    0.235272 0.472522 0.828433 0.111347
H3    H     H_    0.273234 0.694379 0.032527 0.157937
H4    H     H_    0.283682 0.557784 0.085695 0.091674
H5    H     H_    0.358784 0.633256 0.054576 0.154233
H6    H     H_    0.752069 0.348392 0.132954 0.112601
H7    H     H_    0.665997 0.311150 0.164009 0.147670
H8    H     H_    0.676679 0.293542 0.901931 0.097104
H9    H     H_    0.611982 0.399489 0.986313 0.164532
H10   H     H_    0.695694 0.465614 0.976461 0.147977
H11   H     H_    0.064987 0.211657 0.939464 0.157754
H12   H     H_    0.832858 0.524648 0.296188 0.129675
H13   H     H_    0.074248 0.361806 0.910984 0.166336
H14   H     H_    0.128939 0.232228 0.832572 0.150010
H15   H     H_    0.194978 0.403171 0.052498 0.151573
H16   H     H_    0.185801 0.254455 0.083647 0.161674
H17   H     H_    0.082918 0.339780 0.211767 0.159088
H18   H     H_    0.097435 0.490564 0.190091 0.166813
H19   H     H_    0.922983 0.523614 0.059225 0.164550
H20   H     H_    0.933482 0.687355 0.066323 0.159468
H21   H     H_    0.868682 0.646046 0.157958 0.160801
H22   H     H_    0.811748 0.661595 0.925887 0.169310
H23   H     H_    0.268745 0.423667 0.262874 0.125598
H24   H     H_    0.803972 0.496869 0.916828 0.152733
H25   H     H_    0.896427 0.433325 0.765861 0.166539
H26   H     H_    0.919134 0.600051 0.798972 0.169117
H27   H     H_    0.552515 0.895989 0.886875 0.176131
H28   H     H_    0.611160 0.928255 0.773599 0.115827
H29   H     H_    0.578264 0.170969 0.916157 0.162019
H30   H     H_    0.562409 0.105686 0.052068 0.155898
H31   H     H_    0.646619 0.095447 0.994906 0.092510
H32   H     H_    0.393355 0.094120 0.219961 0.114534
H33   H     H_    0.443984 0.043398 0.071735 0.161496
H34   H     H_    0.731781 0.490095 0.712169 0.123516
H35   H     H_    0.380418 0.867142 0.202400 0.137592
H36   H     H_    0.347138 0.884044 0.030085 0.132254
H37   H     H_    0.430352 0.816620 0.051150 0.168845
H38   H     H_    0.655764 0.895222 0.081478 0.161611
H39   H     H_    0.709447 0.779449 0.126303 0.174831
H40   H     H_    0.729846 0.839634 0.989605 0.137264
H41   H     H_    0.672357 0.615198 0.879069 0.162671
H42   H     H_    0.625242 0.729002 0.820163 0.194706
H43   H     H_    0.546350 0.749805 0.011497 0.130476
H44   H     H_    0.600374 0.639646 0.066068 0.144575
H45   H     H_    0.495526 0.863189 0.372633 0.149936
H46   H     H_    0.338128 0.190452 0.799447 0.151186
H47   H     H_    0.364946 0.081747 0.891243 0.175165
H48   H     H_    0.281022 0.149392 0.906844 0.140106
H49   H     H_    0.361981 0.265798 0.137739 0.168534
H50   H     H_    0.339631 0.370015 0.040608 0.153577
H51   H     H_    0.457322 0.286584 0.924764 0.102161
H52   H     H_    0.477058 0.246066 0.077216 0.163348
H53   H     H_    0.496761 0.136827 0.627077 0.152039
H54   H     H_    0.446274 0.433023 0.838026 0.143731
H55   H     H_    0.509428 0.622687 0.161411 0.137430
H56   H     H_    0.325012 0.437236 0.836794 0.132468
N1    N     N_R   0.028449 0.571930 0.419938 -0.241991
N2    N     N_R   0.973385 0.453953 0.576535 -0.251118
N3    N     N_R   0.960612 0.576590 0.428879 -0.246890
N4    N     N_R   0.041189 0.450000 0.568599 -0.243766
N5    N     N_2   0.469620 0.445420 0.137370 -0.240918
N6    N     N_2   0.530380 0.554580 0.862630 -0.238299
O1    O     O_R   0.506480 0.332340 0.577400 -0.533394
O2    O     O_3   0.697315 0.505918 0.252068 -0.549041
O3    O     O_3   0.506214 0.974767 0.741087 -0.586420
O4    O     O_3   0.494548 0.027813 0.260869 -0.589899
O5    O     O_R   0.493520 0.667660 0.422600 -0.531515
O6    O     O_R   0.485980 0.295500 0.332650 -0.511140
O7    O     O_R   0.514020 0.704500 0.667350 -0.499931
O8    O     O_R   0.410390 0.518410 0.622410 -0.447939
O9    O     O_R   0.589610 0.481590 0.377590 -0.442765
O10   O     O_R   0.389900 0.481570 0.377660 -0.520198
O11   O     O_R   0.610100 0.518430 0.622340 -0.529021
O12   O     O_3   0.304445 0.588379 0.768278 -0.541935

loop_
_geom_bond_atom_site_label_1
_geom_bond_atom_site_label_2
_ccdc_geom_bond_type
C24   H15   S    
C34   O3    S    
C26   H26   S    
C6    H12   S    
C35   C36   S    
C19   H4    S    
C40   H53   S    
C37   H51   S    
Cu1   Cu2   S    
C32   H35   S    
C33   N6    S    
C26   C27   S    
C29   C30   S    
C37   N5    S    
C38   C39   S    
C11   C14   A    
Cu1   O1    S    
C9    C22   S    
C29   H27   S    
C23   C40   D    
C30   H30   S    
Cu2   O10   S    
C18   C19   S    
C18   H56   S    
Cu1   O7    S    
C39   H47   S    
C27   H22   S    
C1    O1    A    
C22   H17   S    
C30   H31   S    
C35   H41   S    
C16   N2    A    
C7    C17   S    
C38   H49   S    
C31   O4    S    
C25   H14   S    
C42   N5    D    
Cu1   N6    S    
C12   O7    A    
C10   C26   S    
C13   H34   S    
C8    C16   S    
C26   H25   S    
C34   C41   D    
C25   H11   S    
N2    N4    A    
C37   H52   S    
C2    O9    A    
C5    C7    A    
Cu2   O6    S    
C28   H21   S    
C43   H54   S    
C4    C6    A    
C21   H9    S    
C6    C8    A    
C29   H28   S    
C36   H40   S    
Cu2   O9    S    
C28   H20   S    
C39   H48   S    
C37   C38   S    
C23   O4    S    
C33   H43   S    
C5    H1    S    
C35   H42   S    
C19   H3    S    
C31   C32   S    
C44   O10   A    
Cu2   N5    S    
N1    N3    A    
C24   C25   S    
C2    C15   S    
C9    C11   A    
C27   H24   S    
C16   N3    A    
C20   O2    S    
C40   C41   S    
C41   H45   S    
C1    C23   S    
C13   C15   A    
C22   C24   S    
C1    O6    A    
C12   C34   S    
C42   H55   S    
C18   O12   S    
C39   H46   S    
C31   H32   S    
C14   C44   S    
C12   O5    A    
C7    C9    A    
C32   H37   S    
C4    O2    S    
C24   H16   S    
Cu2   O5    S    
C29   O3    S    
C20   H7    S    
C3    C5    A    
C10   C13   A    
C18   H2    S    
C21   H10   S    
C2    O11   A    
C11   H23   S    
C31   H33   S    
C3    C14   A    
C36   H39   S    
C32   H36   S    
C4    C15   A    
C28   H19   S    
C17   N1    A    
C20   H6    S    
C33   H44   S    
C30   H29   S    
Cu1   O8    S    
Cu1   O11   S    
C21   H8    S    
C36   H38   S    
C33   C35   S    
C43   N6    D    
C3    O12   S    
C22   H18   S    
C19   H5    S    
C20   C21   S    
C44   O8    A    
C8    C10   A    
C42   C43   S    
C38   H50   S    
C27   C28   S    
C25   H13   S    
C17   N4    A    
