data_mof_unit_47079.cif
_audit_creation_date              2013-03-05T15:42:39-0500
_audit_creation_method            fapswitch 2.2
_symmetry_space_group_name_H-M    P1
_symmetry_Int_Tables_number       1
_space_group_crystal_system       triclinic
_cell_length_a                    7.818077
_cell_length_b                    8.573533
_cell_length_c                    27.648809
_cell_angle_alpha                 91.761909
_cell_angle_beta                  85.856226
_cell_angle_gamma                 94.428165
_cell_volume                      1842.3066896

loop_
_atom_site_label
_atom_site_type_symbol
_atom_site_description
_atom_site_fract_x
_atom_site_fract_y
_atom_site_fract_z
_atom_type_partial_charge
O1    O     O_R   0.389250 0.738570 0.503220 -0.600092
O2    O     O_R   0.610750 0.261430 0.496780 -0.600124
O3    O     O_R   0.678390 0.711630 0.494810 -0.585052
O4    O     O_R   0.321610 0.288370 0.505190 -0.585325
C1    C     C_R   0.546073 0.794625 0.498755 0.936458
C2    C     C_R   0.453928 0.205375 0.501251 0.935859
O5    O     O_R   0.355440 0.513440 0.575450 -0.609282
O6    O     O_R   0.644560 0.486560 0.424550 -0.607657
O7    O     O_R   0.644590 0.486500 0.567040 -0.574728
O8    O     O_R   0.355410 0.513500 0.432960 -0.574952
C3    C     C_R   0.501748 0.499097 0.593987 0.940484
C4    C     C_R   0.497966 0.500425 0.406008 0.940552
Zn1   Zn    Zn3+2 0.306940 0.517990 0.505620 1.144699
Zn2   Zn    Zn3+2 0.693060 0.482010 0.494380 1.145490
C5    C     C_R   0.457920 0.651283 0.823222 0.693053
C6    C     C_R   0.500811 0.369205 0.175143 0.691883
O9    O     O_2   0.477666 0.780084 0.796050 -0.409747
O10   O     O_2   0.490740 0.233485 0.198920 -0.412923
N1    N     N_R   0.433374 0.508362 0.800525 -0.341687
N2    N     N_R   0.548330 0.505957 0.199041 -0.338025
C7    C     C_R   0.390810 0.375926 0.826025 0.698654
C8    C     C_R   0.590409 0.640482 0.174282 0.692345
C9    C     C_R   0.319474 0.447867 0.721357 0.458016
C10   C     C_R   0.672305 0.556202 0.277838 0.467543
C11   C     C_R   0.339719 0.446109 0.671386 -0.242339
C12   C     C_R   0.656808 0.552459 0.327882 -0.248354
C13   C     C_R   0.642708 0.533347 0.674133 0.316512
C14   C     C_R   0.352176 0.470510 0.326674 0.318370
C15   C     C_R   0.622259 0.537589 0.725271 0.246805
C16   C     C_R   0.368049 0.471076 0.275593 0.235625
C17   C     C_R   0.458815 0.496428 0.748688 -0.002727
C18   C     C_R   0.530080 0.511739 0.251152 -0.005111
C19   C     C_R   0.414293 0.525848 0.900901 -0.134050
C20   C     C_R   0.509663 0.507879 0.100383 -0.122704
C21   C     C_R   0.465385 0.661949 0.874145 -0.145498
C22   C     C_R   0.454273 0.373303 0.126976 -0.145187
C23   C     C_R   0.520138 0.801955 0.899038 0.401731
C24   C     C_R   0.338590 0.258566 0.106889 0.405046
C25   C     C_R   0.359499 0.385485 0.876424 -0.122379
C26   C     C_R   0.596224 0.636716 0.123536 -0.130699
C27   C     C_R   0.498428 0.491687 0.647111 -0.245263
C28   C     C_R   0.499333 0.507660 0.352905 -0.245388
C29   C     C_R   0.540720 0.648104 0.024228 0.077889
C30   C     C_R   0.360737 0.393440 0.978526 0.075991
C31   C     C_R   0.370902 0.394736 0.029675 -0.062818
C32   C     C_R   0.496894 0.662007 0.975634 -0.070283
C33   C     C_R   0.474421 0.516275 0.051211 0.076663
C34   C     C_R   0.422401 0.527825 0.951839 0.065201
C35   C     C_R   0.657120 0.757748 0.046031 -0.142090
C36   C     C_R   0.297116 0.259203 0.952944 -0.126916
C37   C     C_R   0.676784 0.759335 0.095604 0.317111
C38   C     C_R   0.287076 0.256257 0.903015 0.325487
O11   O     O_2   0.617769 0.777738 0.198732 -0.411663
O12   O     O_2   0.386032 0.235283 0.802626 -0.403745
C39   C     C_R   0.527850 0.803891 0.949762 0.203496
C40   C     C_R   0.284526 0.277890 0.060107 0.221751
H1    H     H_    0.769926 0.586136 0.347349 0.245773
H2    H     H_    0.228589 0.409645 0.651391 0.244595
H3    H     H_    0.737036 0.842455 0.024896 0.222353
H4    H     H_    0.256813 0.152135 0.970782 0.234701
C41   C     C_2   0.569739 0.958709 0.497944 -0.295089
C42   C     C_2   0.430263 0.041292 0.502074 -0.295391
H5    H     H_    0.701025 0.010879 0.493895 0.245507
H6    H     H_    0.298978 0.989124 0.506127 0.245422
N3    N     N_2   0.950320 0.457960 0.486880 0.052743
N4    N     N_2   0.049680 0.542040 0.513120 0.051973
Cl1   Cl    Cl    0.849034 0.577304 0.645192 -0.429002
Cl2   Cl    Cl    0.146938 0.427262 0.356443 -0.433200
N5    N     N_R   0.987052 0.302189 0.484368 0.305170
O13   O     O_R   0.977617 0.223300 0.524087 -0.353456
O14   O     O_R   0.979047 0.225707 0.443185 -0.303323
N6    N     N_R   0.012690 0.697727 0.515752 0.304815
O15   O     O_R   0.022698 0.777132 0.476129 -0.352870
O16   O     O_R   0.019567 0.773641 0.557058 -0.303322
N7    N     N_R   0.765498 0.585320 0.753623 0.267364
O17   O     O_R   0.787388 0.513479 0.793253 -0.308369
O18   O     O_R   0.862214 0.711904 0.743230 -0.217760
N8    N     N_R   0.220304 0.431460 0.248260 0.263382
O19   O     O_R   0.122232 0.304679 0.257396 -0.213635
O20   O     O_R   0.195996 0.510687 0.210267 -0.318769
Cl3   Cl    Cl    0.586401 0.977199 0.868112 -0.333672
Cl4   Cl    Cl    0.233527 0.106858 0.142656 -0.276451
Cl5   Cl    Cl    0.873359 0.617789 0.249988 -0.358912
Cl6   Cl    Cl    0.114743 0.392316 0.748504 -0.372405
N9    N     N_R   0.787850 0.880796 0.116138 0.268019
O21   O     O_R   0.774912 0.026094 0.105601 -0.252327
O22   O     O_R   0.912818 0.845295 0.141411 -0.217193
N10   N     N_R   0.190330 0.126966 0.880643 0.270344
O23   O     O_R   0.182416 0.988300 0.898936 -0.333350
O24   O     O_R   0.081250 0.154200 0.849078 -0.213198
N11   N     N_R   0.545876 0.952633 0.975282 0.196134
O25   O     O_R   0.442753 0.980630 0.013055 -0.376774
O26   O     O_R   0.676281 0.052434 0.964703 -0.288593
N12   N     N_R   0.124089 0.198982 0.047420 0.229240
O27   O     O_R   0.004572 0.278960 0.032187 -0.324048
O28   O     O_R   0.100190 0.047151 0.048367 -0.262334

loop_
_geom_bond_atom_site_label_1
_geom_bond_atom_site_label_2
_geom_bond_distance
_ccdc_geom_bond_type
C13   C15   1.411069 A    
N7    O17   1.301592 A    
N1    C17   1.434268 S    
C37   N9    1.433871 S    
N9    O21   1.301134 A    
C40   N12   1.439440 S    
C19   C25   1.414887 A    
C20   C26   1.411227 A    
C14   Cl2   1.767933 S    
C10   Cl5   1.750542 S    
C10   C12   1.381344 A    
N5    O13   1.301982 A    
C7    O12   1.349986 S    
N8    O20   1.301411 A    
C41   H5    1.087049 S    
C14   C28   1.414519 A    
O4    Zn1   1.980436 S    
N5    O14   1.299426 A    
C39   N11   1.440584 S    
C5    N1    1.365984 A    
N4    N6    1.386067 S    
C31   C40   1.425767 A    
C35   C37   1.389763 A    
C32   C39   1.425849 A    
C36   C38   1.387716 A    
C42   H6    1.087046 S    
C41   C42   1.341509 D    
O6    C4    1.303905 A    
C31   C33   1.413016 A    
C25   C38   1.407740 A    
C24   Cl4   1.772327 S    
C23   Cl3   1.775290 S    
O2    C2    1.280707 A    
C5    C21   1.413237 A    
C29   C32   1.421058 A    
C8    O11   1.349304 S    
Zn1   N4    2.032706 S    
N9    O22   1.301192 A    
C32   C34   1.414513 A    
C9    Cl6   1.755787 S    
C4    C28   1.470674 S    
C38   N10   1.442022 S    
N6    O16   1.299440 A    
C11   C27   1.401299 A    
N11   O25   1.300422 A    
N8    O19   1.301293 A    
C29   C35   1.409809 A    
C23   C39   1.407634 A    
O5    C3    1.302498 A    
O7    Zn2   2.017046 S    
C10   C18   1.400685 A    
N11   O26   1.301807 A    
O7    C3    1.306647 A    
C13   C27   1.414673 A    
C7    C25   1.398284 A    
C6    N2    1.367410 A    
C8    C26   1.399996 A    
C1    C41   1.405313 S    
N12   O28   1.301512 A    
N7    O18   1.301221 A    
O3    Zn2   1.980436 S    
O8    C4    1.305438 A    
O4    C2    1.296506 A    
N2    C8    1.365466 A    
O1    C1    1.280704 A    
O1    Zn1   1.951558 S    
C11   H2    1.083996 S    
C30   C31   1.421815 A    
C12   C28   1.400754 A    
N2    C18   1.437268 S    
C30   C36   1.408759 A    
C5    O9    1.347446 S    
O6    Zn2   1.996416 S    
N1    C7    1.361624 A    
N10   O24   1.301643 A    
N6    O15   1.301944 A    
O3    C1    1.296504 A    
O8    Zn1   2.017046 S    
C15   N7    1.439594 S    
C26   C37   1.405579 A    
C35   H3    1.078219 S    
C36   H4    1.070461 S    
C2    C42   1.405312 S    
C22   C24   1.412697 A    
C21   C23   1.417813 A    
C15   C17   1.414706 A    
C6    C22   1.407861 A    
C16   C18   1.416146 A    
N3    N5    1.386183 S    
C14   C16   1.408918 A    
C19   C21   1.416610 A    
Zn2   N3    2.032705 S    
C3    C27   1.470420 S    
C20   C22   1.410089 A    
C9    C11   1.379020 A    
N12   O27   1.301620 A    
O2    Zn2   1.951558 S    
C12   H1    1.083965 S    
C13   Cl1   1.767045 S    
C16   N8    1.438924 S    
O5    Zn1   1.996416 S    
C24   C40   1.407894 A    
N10   O23   1.301579 A    
C6    O10   1.348249 S    
N3    N4    1.269740 D    
C19   C34   1.413906 A    
C20   C33   1.411637 A    
C29   C33   1.417115 A    
C30   C34   1.421057 A    
C9    C17   1.400250 A    
