data_mof_unit_42804.cif
_audit_creation_date              2013-03-05T16:04:38-0500
_audit_creation_method            fapswitch 2.2
_symmetry_space_group_name_H-M    P1
_symmetry_Int_Tables_number       1
_space_group_crystal_system       triclinic
_cell_length_a                    9.514359
_cell_length_b                    10.798286
_cell_length_c                    15.396506
_cell_angle_alpha                 89.843079
_cell_angle_beta                  74.994874
_cell_angle_gamma                 90.096617
_cell_volume                      1527.87187596

loop_
_atom_site_label
_atom_site_type_symbol
_atom_site_description
_atom_site_fract_x
_atom_site_fract_y
_atom_site_fract_z
_atom_type_partial_charge
O1    O     O_R   0.118740 0.319660 0.500000 -0.553906
O2    O     O_R   0.881260 0.680340 0.500000 -0.553686
O3    O     O_R   0.881170 0.319630 0.500010 -0.582260
O4    O     O_R   0.118830 0.680370 0.499990 -0.583481
C1    C     C_R   0.998752 0.262281 0.502544 0.875053
C2    C     C_R   0.001258 0.737723 0.497432 0.874196
O5    O     O_R   0.055570 0.500030 0.629830 -0.530660
O6    O     O_R   0.944430 0.499970 0.370170 -0.531401
O7    O     O_R   0.818000 0.500000 0.629840 -0.605843
O8    O     O_R   0.182000 0.500000 0.370160 -0.605018
C3    C     C_R   0.919162 0.502826 0.672609 0.855034
C4    C     C_R   0.080770 0.495847 0.327550 0.857181
Cu1   Cu    Cu3+1 0.140660 0.500020 0.500000 1.024358
Cu2   Cu    Cu3+1 0.859340 0.499980 0.500000 1.024419
C5    C     C_R   0.876064 0.509831 0.771809 -0.094890
C6    C     C_R   0.123793 0.481818 0.228938 -0.093527
C7    C     C_R   0.920033 0.558633 0.916122 -0.222533
C8    C     C_R   0.083720 0.412001 0.087777 -0.225772
C9    C     C_R   0.972114 0.546993 0.823247 0.269251
C10   C     C_R   0.030508 0.432029 0.179817 0.258105
C11   C     C_R   0.730424 0.483870 0.815545 -0.260784
C12   C     C_R   0.268091 0.510200 0.184141 -0.258008
C13   C     C_R   0.675629 0.496857 0.909118 0.097702
C14   C     C_R   0.326081 0.482401 0.092671 0.098443
C15   C     C_R   0.773541 0.535744 0.958981 0.091695
C16   C     C_R   0.229879 0.435472 0.044280 0.092196
C17   C     C_R   0.526225 0.475295 0.954145 0.069524
C18   C     C_R   0.476518 0.498915 0.048285 0.068281
C19   C     C_R   0.579509 0.535099 0.095310 -0.158327
C20   C     C_R   0.425073 0.430087 0.908558 -0.154914
C21   C     C_R   0.724659 0.553060 0.051287 -0.156592
C22   C     C_R   0.280456 0.410053 0.953090 -0.155434
H1    H     H_    0.799322 0.581908 0.089972 0.179446
H2    H     H_    0.207462 0.373759 0.915629 0.179093
H3    H     H_    0.333207 0.553917 0.222954 0.157496
H4    H     H_    0.660902 0.456388 0.774080 0.162001
H5    H     H_    0.994050 0.588742 0.954884 0.174924
H6    H     H_    0.011346 0.374098 0.050513 0.176288
H7    H     H_    0.552899 0.548382 0.166946 0.159938
H8    H     H_    0.453636 0.406143 0.838433 0.156059
C23   C     C_R   0.919634 0.066905 0.451795 -0.255397
C24   C     C_R   0.080438 0.933123 0.548120 -0.257279
H9    H     H_    0.861423 0.119488 0.412144 0.217407
H10   H     H_    0.138690 0.880558 0.587754 0.213993
C25   C     C_R   0.923248 0.938519 0.445391 0.360616
C26   C     C_R   0.076814 0.061503 0.554526 0.361276
C27   C     C_R   0.002983 0.871618 0.495273 -0.206436
C28   C     C_R   0.997051 0.128398 0.504667 -0.207074
C29   C     C_R   0.549041 0.428868 0.559941 0.009843
C30   C     C_R   0.450975 0.571081 0.440027 0.006006
H11   H     H_    0.584755 0.371642 0.607874 0.134083
H12   H     H_    0.415265 0.628281 0.392079 0.134968
C31   C     C_R   0.400216 0.428992 0.559958 0.057236
C32   C     C_R   0.599817 0.570906 0.439976 0.053281
H13   H     H_    0.323829 0.372177 0.607988 0.186381
H14   H     H_    0.676234 0.627621 0.391886 0.183971
N1    N     N_R   0.352080 0.500030 0.499980 -0.176194
N2    N     N_R   0.647920 0.499970 0.500020 -0.175482
Br1   Br    Br    0.833156 0.380940 0.233190 -0.511657
Br2   Br    Br    0.172558 0.591582 0.772797 -0.511231
N3    N     N_R   0.852201 0.878629 0.384940 0.124324
O9    O     O_R   0.918326 0.791351 0.331749 -0.379519
O10   O     O_R   0.731531 0.923459 0.373173 -0.339191
N4    N     N_R   0.147922 0.121403 0.614942 0.123667
O11   O     O_R   0.081700 0.208502 0.668287 -0.379412
O12   O     O_R   0.268891 0.076807 0.626447 -0.341826

loop_
_geom_bond_atom_site_label_1
_geom_bond_atom_site_label_2
_geom_bond_distance
_ccdc_geom_bond_type
C15   C21   1.389431 A    
O5    Cu1   1.952733 S    
C30   H12   1.081669 S    
O7    Cu2   1.934913 S    
C21   H1    1.084331 S    
C16   C22   1.389558 A    
C13   C17   1.429394 A    
C9    Br2   1.923534 S    
C23   H9    1.084471 S    
C8    C16   1.400775 A    
C6    C10   1.413144 A    
O6    C4    1.294167 A    
C7    C15   1.400302 A    
N4    O11   1.301692 A    
C19   H7    1.075905 S    
C29   H11   1.081678 S    
C11   C13   1.406943 A    
C8    H6    1.084334 S    
O2    Cu2   1.958364 S    
C20   H8    1.075284 S    
C19   C21   1.384879 A    
C11   H4    1.073414 S    
C30   C32   1.415938 A    
Cu1   Cu2   2.676580 S    
C10   Br1   1.923627 S    
C20   C22   1.385563 A    
C12   H3    1.075198 S    
O7    C3    1.299666 A    
N4    O12   1.301888 A    
O2    C2    1.289620 A    
O3    Cu2   1.958867 S    
C24   H10   1.084449 S    
O1    C1    1.289588 A    
O8    C4    1.298932 A    
C12   C14   1.406547 A    
C25   N3    1.438419 S    
C18   C19   1.415870 A    
C7    C9    1.392988 A    
C23   C28   1.399257 A    
C14   C16   1.415382 A    
O5    C3    1.294882 A    
C8    C10   1.393479 A    
C24   C27   1.399291 A    
C31   H13   1.081272 S    
C24   C26   1.389909 A    
N3    O9    1.301598 A    
Cu2   N2    2.011445 S    
C1    C28   1.445958 S    
C32   H14   1.081274 S    
C29   C31   1.415908 A    
O1    Cu1   1.958364 S    
C2    C27   1.446093 S    
C7    H5    1.084301 S    
C26   C28   1.409778 A    
C14   C18   1.428089 A    
C5    C11   1.402363 A    
C13   C15   1.415745 A    
Cu1   N1    2.011445 S    
O4    C2    1.288962 A    
C32   N2    1.366464 A    
C25   C27   1.409862 A    
C26   N4    1.438414 S    
C17   C18   1.427249 A    
N3    O10   1.301686 A    
C23   C25   1.389969 A    
O6    Cu2   1.952733 S    
O3    C1    1.288934 A    
C22   H2    1.084578 S    
C5    C9    1.413726 A    
C30   N1    1.367472 A    
C3    C5    1.477508 S    
C29   N2    1.367459 A    
C4    C6    1.474908 S    
O4    Cu1   1.958867 S    
C6    C12   1.400571 A    
C17   C20   1.416761 A    
O8    Cu1   1.934915 S    
C31   N1    1.366467 A    
