data_mof_unit_60747.cif
_audit_creation_date              2012-12-10T18:13:28-0500
_audit_creation_method            fapswitch 2.2
_symmetry_space_group_name_H-M    P1
_symmetry_Int_Tables_number       1
_space_group_crystal_system       triclinic
_cell_length_a                    18.35757
_cell_length_b                    18.345283
_cell_length_c                    25.85388
_cell_angle_alpha                 90.000975
_cell_angle_beta                  89.964053
_cell_angle_gamma                 90.004463
_cell_volume                      8706.93396037

loop_
_atom_site_label
_atom_site_type_symbol
_atom_type_description
_atom_site_fract_x
_atom_site_fract_y
_atom_site_fract_z
_atom_type_partial_charge
C1    C     C_R   0.859840 0.140184 0.249941 0.504795
C2    C     C_R   0.809390 0.256035 0.283517 -0.137078
C3    C     C_R   0.244202 0.309227 0.283775 -0.139511
C4    C     C_3   0.884856 0.907393 0.443054 -0.376963
C5    C     C_3   0.896686 0.897298 0.558126 -0.369681
C6    C     C_3   0.603337 0.397344 0.941871 -0.369445
C7    C     C_3   0.615159 0.407437 0.056943 -0.376729
C8    C     C_3   0.040462 0.131352 0.058697 -0.384524
C9    C     C_3   0.038028 0.134369 0.943869 -0.382421
C10   C     C_3   0.961954 0.865579 0.056132 -0.382136
C11   C     C_3   0.959533 0.868595 0.941302 -0.384173
C12   C     C_3   0.541185 0.631138 0.558691 -0.384698
C13   C     C_R   0.190742 0.255888 0.716331 -0.139090
C14   C     C_3   0.538681 0.634190 0.443871 -0.382520
C15   C     C_3   0.461332 0.365754 0.556129 -0.382193
C16   C     C_3   0.458834 0.368802 0.441308 -0.384271
C17   C     C_R   0.190763 0.255804 0.283743 -0.138845
C18   C     C_R   0.309609 0.756176 0.216621 -0.138646
C19   C     C_R   0.309560 0.756194 0.783373 -0.138683
C20   C     C_R   0.690922 0.755719 0.216181 -0.137542
C21   C     C_R   0.690966 0.755613 0.783911 -0.137293
C22   C     C_R   0.803745 0.196340 0.750104 0.039198
C23   C     C_R   0.803757 0.196346 0.249906 0.039133
C24   C     C_R   0.196302 0.196276 0.750016 0.038856
C25   C     C_R   0.859827 0.140182 0.750066 0.505356
C26   C     C_R   0.196314 0.196269 0.249977 0.038757
C27   C     C_R   0.303676 0.696261 0.250013 0.038859
C28   C     C_R   0.303688 0.696269 0.749992 0.038791
C29   C     C_R   0.696233 0.696354 0.250104 0.039201
C30   C     C_R   0.696243 0.696350 0.749886 0.039105
C31   C     C_R   0.744128 0.190729 0.783781 -0.137830
C32   C     C_R   0.744164 0.190695 0.216257 -0.138013
C33   C     C_R   0.255888 0.190630 0.783665 -0.138420
C34   C     C_R   0.255879 0.190703 0.216256 -0.138957
C35   C     C_R   0.243736 0.690323 0.283367 -0.137037
C36   C     C_R   0.140181 0.140169 0.249948 0.503996
C37   C     C_R   0.243797 0.690317 0.716642 -0.137139
C38   C     C_R   0.755508 0.691021 0.284058 -0.139214
C39   C     C_R   0.755471 0.691124 0.715835 -0.139659
C40   C     C_R   0.190307 0.743754 0.283345 -0.137107
C41   C     C_R   0.190358 0.743739 0.716657 -0.137325
C42   C     C_R   0.808945 0.744456 0.284050 -0.140189
C43   C     C_R   0.808900 0.744566 0.715851 -0.139860
C44   C     C_R   0.690716 0.244182 0.783779 -0.139711
C45   C     C_R   0.690741 0.244139 0.216252 -0.139817
C46   C     C_R   0.309341 0.244043 0.783638 -0.137787
C47   C     C_R   0.140168 0.140171 0.750046 0.503390
C48   C     C_R   0.309324 0.244123 0.216292 -0.137371
C49   C     C_R   0.196259 0.803689 0.249972 0.038982
C50   C     C_R   0.196248 0.803683 0.750019 0.038981
C51   C     C_R   0.803676 0.803771 0.250077 0.038895
C52   C     C_R   0.803666 0.803777 0.749930 0.038912
C53   C     C_R   0.696344 0.303785 0.750080 0.038983
C54   C     C_R   0.696333 0.303777 0.249914 0.038807
C55   C     C_R   0.303762 0.303675 0.749972 0.039037
C56   C     C_R   0.303753 0.303679 0.250039 0.038871
C57   C     C_R   0.020022 0.064020 0.027452 -0.009758
C58   C     C_R   0.359825 0.640166 0.749962 0.504782
C59   C     C_R   0.019335 0.064750 0.972921 -0.003614
C60   C     C_R   0.980657 0.935195 0.027079 -0.003680
C61   C     C_R   0.979974 0.935925 0.972547 -0.009819
C62   C     C_R   0.520373 0.563914 0.527451 -0.009410
C63   C     C_R   0.519669 0.564653 0.472921 -0.003219
C64   C     C_R   0.480340 0.435292 0.527079 -0.003374
C65   C     C_R   0.479637 0.436030 0.472549 -0.009551
C66   C     C_R   0.999684 0.000452 0.946151 0.057402
C67   C     C_R   0.000313 0.999492 0.053849 0.057414
C68   C     C_R   0.499680 0.500456 0.446151 0.057475
C69   C     C_R   0.359811 0.640163 0.250044 0.505366
C70   C     C_R   0.500325 0.499489 0.553849 0.057496
C71   C     C_R   0.140163 0.859830 0.249972 0.506445
C72   C     C_R   0.140150 0.859828 0.750021 0.506146
C73   C     C_R   0.859829 0.859856 0.250007 0.501266
C74   C     C_R   0.859817 0.859856 0.750000 0.502998
C75   C     C_R   0.640191 0.359863 0.750007 0.504349
C76   C     C_R   0.640178 0.359860 0.249986 0.502641
C77   C     C_R   0.359858 0.359823 0.749972 0.504763
C78   C     C_R   0.359846 0.359823 0.250036 0.505098
C79   C     C_R   0.000068 0.999979 0.110064 0.499380
C80   C     C_R   0.640164 0.640189 0.749926 0.504009
C81   C     C_R   0.999932 0.999966 0.889936 0.499305
C82   C     C_R   0.500070 0.499980 0.610064 0.499431
C83   C     C_R   0.499931 0.499969 0.389936 0.499484
C84   C     C_R   0.997722 0.000138 0.389949 0.500086
C85   C     C_R   0.998343 0.999903 0.609968 0.503700
C86   C     C_R   0.501656 0.499904 0.890032 0.503579
C87   C     C_R   0.502275 0.500137 0.110051 0.499964
C88   C     C_R   0.023016 0.055826 0.473463 0.010811
C89   C     C_R   0.023354 0.055701 0.526383 0.010910
C90   C     C_R   0.476624 0.555688 0.973619 0.010382
C91   C     C_R   0.640152 0.640190 0.250066 0.503408
C92   C     C_R   0.476960 0.555811 0.026539 0.010318
C93   C     C_R   0.987592 0.001576 0.445653 0.035754
C94   C     C_R   0.989517 0.000319 0.554057 0.031443
C95   C     C_R   0.510480 0.500323 0.945942 0.031315
C96   C     C_R   0.512400 0.501577 0.054346 0.035618
C97   C     C_R   0.939431 0.953741 0.472305 -0.007145
C98   C     C_R   0.942305 0.951249 0.527501 -0.013643
C99   C     C_R   0.557703 0.451273 0.972498 -0.014096
C100  C     C_R   0.560574 0.453764 0.027694 -0.007649
C101  C     C_3   0.099988 0.082931 0.528864 -0.271961
C102  C     C_R   0.809416 0.255995 0.716458 -0.137036
C103  C     C_3   0.099501 0.083031 0.470088 -0.270835
C104  C     C_3   0.400463 0.582971 0.029913 -0.270324
C105  C     C_3   0.399978 0.582873 0.971137 -0.271476
C106  C     C_R   0.256185 0.809609 0.216603 -0.137630
C107  C     C_R   0.256126 0.809619 0.783383 -0.137739
C108  C     C_R   0.744366 0.809138 0.216162 -0.138181
C109  C     C_R   0.744402 0.809037 0.783940 -0.138786
C110  C     C_R   0.755997 0.309431 0.716443 -0.136870
C111  C     C_R   0.755961 0.309462 0.283524 -0.136897
C112  C     C_R   0.244190 0.309304 0.716308 -0.138982
H1    H     H_    0.103344 0.138509 0.545830 0.145904
H2    H     H_    0.261759 0.855446 0.809491 0.138027
H3    H     H_    0.739220 0.854481 0.189583 0.137766
H4    H     H_    0.739292 0.854296 0.810601 0.136601
H5    H     H_    0.761437 0.355012 0.690095 0.138508
H6    H     H_    0.761377 0.355071 0.309846 0.138684
H7    H     H_    0.238817 0.354875 0.689949 0.137185
H8    H     H_    0.238845 0.354735 0.310197 0.136149
H9    H     H_    0.855004 0.261423 0.690122 0.138275
H10   H     H_    0.854955 0.261496 0.309829 0.138289
H11   H     H_    0.145208 0.261310 0.689988 0.136032
H12   H     H_    0.102508 0.138662 0.453179 0.146147
H13   H     H_    0.145242 0.261158 0.310146 0.135956
H14   H     H_    0.355432 0.761835 0.190515 0.136285
H15   H     H_    0.355340 0.761867 0.809474 0.136268
H16   H     H_    0.645613 0.760919 0.189622 0.138007
H17   H     H_    0.645690 0.760725 0.810549 0.137910
H18   H     H_    0.738695 0.145146 0.810128 0.137627
H19   H     H_    0.738755 0.145084 0.189935 0.137862
H20   H     H_    0.261258 0.145056 0.810022 0.137461
H21   H     H_    0.261233 0.145193 0.189836 0.136518
H22   H     H_    0.238062 0.644500 0.309479 0.138361
H23   H     H_    0.138157 0.042326 0.545759 0.132566
H24   H     H_    0.238167 0.644487 0.690537 0.138337
H25   H     H_    0.760646 0.645676 0.310636 0.137022
H26   H     H_    0.760573 0.645864 0.689175 0.135767
H27   H     H_    0.144475 0.738087 0.309441 0.138133
H28   H     H_    0.144569 0.738060 0.690565 0.137284
H29   H     H_    0.854239 0.739286 0.310628 0.135263
H30   H     H_    0.854159 0.739487 0.689193 0.133882
H31   H     H_    0.645144 0.238785 0.810135 0.134240
H32   H     H_    0.645191 0.238707 0.189922 0.135513
H33   H     H_    0.354884 0.238615 0.809972 0.137006
H34   H     H_    0.137307 0.042413 0.452773 0.133081
H35   H     H_    0.354853 0.238761 0.189899 0.137778
H36   H     H_    0.829286 0.917221 0.458496 0.116634
H37   H     H_    0.881007 0.920945 0.401453 0.151211
H38   H     H_    0.899075 0.848834 0.446982 0.136566
H39   H     H_    0.856680 0.866588 0.534803 0.113214
H40   H     H_    0.932665 0.856070 0.576342 0.162268
H41   H     H_    0.865490 0.926519 0.588548 0.133123
H42   H     H_    0.643351 0.366652 0.965192 0.114345
H43   H     H_    0.567369 0.356102 0.923653 0.162352
H44   H     H_    0.634525 0.426580 0.911450 0.133152
H45   H     H_    0.362675 0.542330 0.047226 0.132978
H46   H     H_    0.670727 0.417291 0.041505 0.117121
H47   H     H_    0.619000 0.420986 0.098545 0.151195
H48   H     H_    0.600956 0.348873 0.053010 0.137098
H49   H     H_    0.089499 0.119683 0.082383 0.152047
H50   H     H_    0.053196 0.180191 0.035365 0.120680
H51   H     H_    0.994721 0.146301 0.084755 0.127802
H52   H     H_    0.033870 0.129956 0.901283 0.138340
H53   H     H_    0.999863 0.178421 0.955413 0.123695
H54   H     H_    0.094867 0.150795 0.952789 0.132664
H55   H     H_    0.966098 0.869995 0.098717 0.138666
H56   H     H_    0.361827 0.542246 0.954240 0.132470
H57   H     H_    0.905120 0.849152 0.047203 0.132864
H58   H     H_    0.000122 0.821527 0.044595 0.124266
H59   H     H_    0.910498 0.880265 0.917615 0.152115
H60   H     H_    0.005274 0.853646 0.915245 0.128246
H61   H     H_    0.946800 0.819756 0.964635 0.121013
H62   H     H_    0.590202 0.619231 0.582337 0.151358
H63   H     H_    0.554124 0.679921 0.535357 0.119817
H64   H     H_    0.495556 0.646305 0.584783 0.128472
H65   H     H_    0.534441 0.629826 0.401288 0.138518
H66   H     H_    0.500751 0.678427 0.455445 0.124495
H67   H     H_    0.397432 0.638599 0.046825 0.146845
H68   H     H_    0.595611 0.650327 0.452761 0.130988
H69   H     H_    0.465567 0.370122 0.598713 0.138706
H70   H     H_    0.404404 0.349612 0.547236 0.131652
H71   H     H_    0.499268 0.321520 0.544558 0.124843
H72   H     H_    0.409816 0.380704 0.417663 0.151664
H73   H     H_    0.504466 0.353643 0.415215 0.128761
H74   H     H_    0.445904 0.320016 0.464641 0.120385
H75   H     H_    0.396600 0.638450 0.954174 0.146557
H76   H     H_    0.261862 0.855430 0.190490 0.137980
O1    O     O_3   0.000000 0.000010 0.249960 -0.433933
O2    O     O_R   0.414520 0.646190 0.219700 -0.549909
O3    O     O_R   0.585480 0.646190 0.780300 -0.548476
O4    O     O_R   0.585480 0.646190 0.219700 -0.549021
O5    O     O_R   0.085460 0.853840 0.280340 -0.547190
O6    O     O_R   0.085460 0.853840 0.719660 -0.548386
O7    O     O_R   0.914540 0.853840 0.280340 -0.553922
O8    O     O_R   0.914540 0.853840 0.719660 -0.553463
O9    O     O_R   0.585460 0.353840 0.780340 -0.553904
O10   O     O_R   0.585460 0.353840 0.219660 -0.553923
O11   O     O_R   0.414540 0.353840 0.780340 -0.548452
O12   O     O_3   0.000000 0.000010 0.750040 -0.433171
O13   O     O_R   0.414540 0.353840 0.219660 -0.546827
O14   O     O_R   0.853820 0.914550 0.219610 -0.549550
O15   O     O_R   0.853820 0.914550 0.780390 -0.550497
O16   O     O_R   0.146180 0.914550 0.219610 -0.547748
O17   O     O_R   0.146180 0.914550 0.780390 -0.547839
O18   O     O_R   0.353820 0.414550 0.719610 -0.549824
O19   O     O_R   0.353820 0.414550 0.280390 -0.551126
O20   O     O_R   0.646180 0.414550 0.719610 -0.547089
O21   O     O_R   0.646180 0.414550 0.280390 -0.547526
O22   O     O_R   0.146170 0.085440 0.219600 -0.550899
O23   O     O_3   0.500000 0.500010 0.749960 -0.433155
O24   O     O_R   0.146170 0.085440 0.780400 -0.549815
O25   O     O_R   0.853830 0.085440 0.219600 -0.548483
O26   O     O_R   0.853830 0.085440 0.780400 -0.548199
O27   O     O_R   0.646170 0.585440 0.719600 -0.551538
O28   O     O_R   0.646170 0.585440 0.280400 -0.550441
O29   O     O_R   0.353830 0.585440 0.719600 -0.547808
O30   O     O_R   0.353830 0.585440 0.280400 -0.547499
O31   O     O_R   0.939270 0.999980 0.134160 -0.543301
O32   O     O_R   0.939270 0.999980 0.865840 -0.546984
O33   O     O_R   0.060730 0.999980 0.134160 -0.546897
O34   O     O_3   0.500000 0.500010 0.250040 -0.433916
O35   O     O_R   0.060730 0.999980 0.865840 -0.543380
O36   O     O_R   0.439270 0.499980 0.634160 -0.543424
O37   O     O_R   0.439270 0.499980 0.365840 -0.546921
O38   O     O_R   0.560730 0.499980 0.634160 -0.546821
O39   O     O_R   0.560730 0.499980 0.365840 -0.543161
O40   O     O_R   1.000000 0.060760 0.365760 -0.540385
O41   O     O_R   0.000000 0.060760 0.634240 -0.538493
O42   O     O_R   0.500000 0.560760 0.865760 -0.538628
O43   O     O_R   0.500000 0.560760 0.134240 -0.540421
O44   O     O_R   1.000000 0.939310 0.365770 -0.547551
O45   O     O_R   0.914520 0.146190 0.280300 -0.548944
O46   O     O_R   1.000000 0.939310 0.634230 -0.552855
O47   O     O_R   0.500000 0.439310 0.865770 -0.552925
O48   O     O_R   0.500000 0.439310 0.134230 -0.547719
O49   O     O_R   0.914520 0.146190 0.719700 -0.548831
O50   O     O_R   0.085480 0.146190 0.280300 -0.549503
O51   O     O_R   0.085480 0.146190 0.719700 -0.550125
O52   O     O_R   0.414520 0.646190 0.780300 -0.550094
Zn1   Zn    Zn3+2 1.000000 0.913260 0.293350 0.921857
Zn2   Zn    Zn3+2 0.413230 0.500000 0.293420 0.924311
Zn3   Zn    Zn3+2 0.586770 0.500000 0.706580 0.922894
Zn4   Zn    Zn3+2 0.586770 0.500000 0.293420 0.924016
Zn5   Zn    Zn3+2 0.000000 0.086780 0.293330 0.927662
Zn6   Zn    Zn3+2 1.000000 0.086780 0.706670 0.928575
Zn7   Zn    Zn3+2 0.500000 0.586780 0.793330 0.928854
Zn8   Zn    Zn3+2 0.500000 0.586780 0.206670 0.927121
Zn9   Zn    Zn3+2 1.000000 0.913260 0.706650 0.918954
Zn10  Zn    Zn3+2 0.500000 0.413260 0.793350 0.918375
Zn11  Zn    Zn3+2 0.500000 0.413260 0.206650 0.922095
Zn12  Zn    Zn3+2 0.913230 0.000000 0.206580 0.923854
Zn13  Zn    Zn3+2 0.913230 0.000000 0.793420 0.922734
Zn14  Zn    Zn3+2 0.086770 0.000000 0.206580 0.924256
Zn15  Zn    Zn3+2 0.086770 0.000000 0.793420 0.926262
Zn16  Zn    Zn3+2 0.413230 0.500000 0.706580 0.926325

loop_
_geom_bond_atom_site_label_1
_geom_bond_atom_site_label_2
_ccdc_geom_bond_type
C53   C110  A    
O28   Zn4   S    
O14   Zn12  S    
C15   H70   S    
C11   H59   S    
C55   C112  A    
C101  H1    S    
C32   C45   A    
O43   Zn8   S    
C78   O13   A    
O23   Zn16  S    
O18   Zn16  S    
C97   C98   A    
O34   Zn2   S    
C90   C95   A    
C7    H46   S    
C83   O39   A    
C10   H57   S    
C4    H37   S    
C82   O38   A    
C91   O28   A    
C5    H40   S    
O1    Zn12  S    
C17   C26   A    
C28   C37   A    
C108  H3    S    
C25   O26   A    
C38   C42   A    
C31   H18   S    
C52   C74   S    
C16   H73   S    
C44   H31   S    
C59   C66   A    
C72   O6    A    
C79   O31   A    
C13   H11   S    
C58   O29   A    
C87   O43   A    
C43   C52   A    
C57   C59   A    
C46   H33   S    
C7    H47   S    
C74   O15   A    
C94   C98   A    
C91   O4    A    
C40   C49   A    
C4    H36   S    
C48   H35   S    
C96   C100  A    
C92   C96   A    
C56   C78   S    
C62   C70   A    
O25   Zn12  S    
C3    C56   A    
C6    C99   S    
O23   Zn7   S    
C89   C94   A    
C50   C72   S    
C78   O19   A    
O22   Zn14  S    
C41   H28   S    
O27   Zn3   S    
C109  H4    S    
C63   C68   A    
O34   Zn8   S    
C44   C53   A    
C26   C34   A    
C2    H10   S    
C60   C67   A    
C1    O45   A    
C10   H55   S    
O13   Zn11  S    
C22   C25   S    
C15   H71   S    
C29   C38   A    
C30   C39   A    
O52   Zn7   S    
C15   C64   S    
O20   Zn3   S    
O1    Zn14  S    
C64   C70   A    
C102  H9    S    
C104  H45   S    
C69   O30   A    
C6    H43   S    
O17   Zn15  S    
O21   Zn4   S    
O12   Zn13  S    
C12   H64   S    
C30   C80   S    
O34   Zn11  S    
C75   O9    A    
O7    Zn1   S    
C39   H26   S    
C11   H60   S    
C101  C103  S    
C4    C97   S    
C87   C96   S    
O26   Zn13  S    
C33   C46   A    
C68   C83   S    
C53   C75   S    
C57   C67   A    
C58   O52   A    
C103  H12   S    
C61   C66   A    
C35   H22   S    
C104  C105  S    
C79   O33   A    
C80   O27   A    
C20   C29   A    
C101  H23   S    
O45   Zn5   S    
C36   O50   A    
C71   O16   A    
C81   O35   A    
C74   O8    A    
C2    C111  A    
C11   H61   S    
C40   H27   S    
C7    C100  S    
O1    Zn5   S    
C85   O46   A    
C86   O42   A    
O23   Zn3   S    
C85   O41   A    
O1    Zn1   S    
C31   C44   A    
O19   Zn2   S    
O12   Zn6   S    
O39   Zn4   S    
O34   Zn4   S    
C51   C108  A    
C39   C43   A    
O40   Zn5   S    
O10   Zn11  S    
C34   H21   S    
C27   C35   A    
O37   Zn2   S    
C81   O32   A    
C87   O48   A    
O44   Zn1   S    
C13   C24   A    
O15   Zn13  S    
C60   C61   A    
C9    C59   S    
O29   Zn16  S    
C46   C55   A    
C9    H52   S    
C10   C60   S    
C18   C106  A    
C107  H2    S    
C84   O44   A    
C62   C63   A    
C8    C57   S    
C45   H32   S    
O16   Zn14  S    
C85   C94   S    
O11   Zn10  S    
C90   C92   A    
C99   C100  A    
C25   O49   A    
C65   C68   A    
O32   Zn13  S    
C42   H29   S    
O6    Zn9   S    
C67   C79   S    
C6    H42   S    
C88   C89   A    
C19   C28   A    
C77   O11   A    
C14   H68   S    
C21   H17   S    
C14   H66   S    
C12   H63   S    
C54   C76   S    
O41   Zn6   S    
C33   H20   S    
C26   C36   S    
O8    Zn9   S    
C45   C54   A    
C1    C23   S    
O31   Zn12  S    
C111  H6    S    
C55   C77   S    
O12   Zn9   S    
C50   C107  A    
C80   O3    A    
C47   O51   A    
C102  C110  A    
C75   O20   A    
C34   C48   A    
O48   Zn11  S    
C84   O40   A    
C93   C97   A    
C41   C50   A    
C29   C91   S    
C88   C103  S    
O36   Zn16  S    
C12   H62   S    
C83   O37   A    
C48   C56   A    
C88   C93   A    
C9    H54   S    
C37   H24   S    
C76   O10   A    
C89   C101  S    
C22   C31   A    
C24   C47   S    
O5    Zn1   S    
O46   Zn9   S    
C18   C27   A    
C51   C73   S    
C90   C105  S    
C11   C61   S    
C8    H51   S    
C27   C69   S    
C69   O2    A    
C112  H7    S    
C21   C109  A    
C54   C111  A    
C16   H72   S    
C20   H16   S    
C49   C106  A    
C7    H48   S    
C28   C58   S    
C13   C112  A    
C12   C62   S    
C4    H38   S    
C21   C30   A    
C42   C51   A    
O2    Zn8   S    
C24   C33   A    
C5    H39   S    
C105  H56   S    
O4    Zn8   S    
C8    H49   S    
C23   C32   A    
C105  H75   S    
O24   Zn15  S    
C73   O7    A    
C35   C40   A    
C106  H76   S    
C16   H74   S    
C77   O18   A    
C64   C65   A    
C66   C81   S    
O51   Zn6   S    
C73   O14   A    
C17   H13   S    
O38   Zn3   S    
O33   Zn14  S    
C22   C102  A    
C52   C109  A    
C76   O21   A    
C5    H41   S    
C10   H58   S    
C15   H69   S    
O50   Zn5   S    
C9    H53   S    
C38   H25   S    
O49   Zn6   S    
C3    C17   A    
C95   C99   A    
C14   C63   S    
C84   C93   S    
O30   Zn2   S    
O23   Zn10  S    
C37   C41   A    
O3    Zn7   S    
C70   C82   S    
C6    H44   S    
C14   H65   S    
C71   O5    A    
C3    H8    S    
C92   C104  S    
O12   Zn15  S    
C110  H5    S    
C104  H67   S    
O35   Zn15  S    
C82   O36   A    
C5    C98   S    
C49   C71   S    
C72   O17   A    
C36   O22   A    
C2    C23   A    
C86   O47   A    
C43   H30   S    
C8    H50   S    
C16   C65   S    
C19   H15   S    
O47   Zn10  S    
C86   C95   S    
C47   O24   A    
C32   H19   S    
C18   H14   S    
O42   Zn7   S    
C103  H34   S    
O9    Zn10  S    
C20   C108  A    
C1    O25   A    
C19   C107  A    
