data_mof_unit_19827.cif
_audit_creation_date              2012-12-10T19:48:22-0500
_audit_creation_method            fapswitch 2.2
_symmetry_space_group_name_H-M    P1
_symmetry_Int_Tables_number       1
_space_group_crystal_system       orthorhombic
_cell_length_a                    18.240919
_cell_length_b                    18.24092
_cell_length_c                    30.311311
_cell_angle_alpha                 90.0
_cell_angle_beta                  90.0
_cell_angle_gamma                 90.0
_cell_volume                      10085.5171914

loop_
_atom_site_label
_atom_site_type_symbol
_atom_type_description
_atom_site_fract_x
_atom_site_fract_y
_atom_site_fract_z
_atom_type_partial_charge
C1    C     C_R   0.141289 0.500000 0.000000 0.907034
C2    C     C_1   0.500000 0.217831 0.000000 -0.211522
C3    C     C_R   0.101949 0.586996 0.772307 0.353272
C4    C     C_R   0.413004 0.898051 0.227693 0.353273
C5    C     C_R   0.898051 0.586996 0.227693 0.353274
C6    C     C_R   0.586996 0.101949 0.227693 0.353274
C7    C     C_R   0.101948 0.413004 0.227693 0.353274
C8    C     C_3   0.907566 0.727390 0.272629 0.126387
C9    C     C_3   0.876201 0.794248 0.295987 -0.859489
C10   C     C_3   0.272610 0.907566 0.272629 0.126387
C11   C     C_3   0.205752 0.876201 0.295987 -0.859488
C12   C     C_3   0.092430 0.272610 0.272630 0.126387
C13   C     C_1   0.782169 0.500000 0.000000 -0.211522
C14   C     C_3   0.123800 0.205751 0.295985 -0.859480
C15   C     C_3   0.727390 0.092435 0.272629 0.126388
C16   C     C_3   0.794248 0.123800 0.295987 -0.859487
C17   C     C_3   0.907566 0.272610 0.727371 0.126389
C18   C     C_3   0.876201 0.205752 0.704013 -0.859488
C19   C     C_3   0.272610 0.092436 0.727371 0.126389
C20   C     C_3   0.205752 0.123798 0.704012 -0.859496
C21   C     C_3   0.092434 0.727390 0.727371 0.126387
C22   C     C_3   0.123800 0.794248 0.704013 -0.859488
C23   C     C_3   0.727390 0.907568 0.727370 0.126388
C24   C     C_1   0.500000 0.782169 1.000000 -0.211522
C25   C     C_3   0.794248 0.876199 0.704015 -0.859481
C26   C     C_3   0.407566 0.227390 0.772629 0.126384
C27   C     C_3   0.376201 0.294248 0.795987 -0.859488
C28   C     C_3   0.772610 0.407565 0.772629 0.126388
C29   C     C_3   0.705753 0.376199 0.795987 -0.859489
C30   C     C_3   0.592437 0.772611 0.772629 0.126392
C31   C     C_3   0.623803 0.705753 0.795987 -0.859488
C32   C     C_3   0.227390 0.592435 0.772629 0.126388
C33   C     C_3   0.294248 0.623801 0.795987 -0.859487
C34   C     C_3   0.407565 0.772610 0.227371 0.126387
C35   C     C_1   0.717831 1.000000 0.500000 -0.211522
C36   C     C_3   0.376200 0.705752 0.204013 -0.859488
C37   C     C_3   0.772610 0.592435 0.227371 0.126386
C38   C     C_3   0.705753 0.623801 0.204013 -0.859488
C39   C     C_3   0.592435 0.227390 0.227371 0.126388
C40   C     C_3   0.623800 0.294248 0.204013 -0.859489
C41   C     C_3   0.227389 0.407562 0.227371 0.126393
C42   C     C_3   0.294246 0.376196 0.204013 -0.859490
C43   C     C_3   0.048638 0.339753 0.381617 0.189400
C44   C     C_3   0.101833 0.288542 0.405004 -0.779097
C45   C     C_3   0.660247 0.048637 0.381616 0.189400
C46   C     C_1   0.000000 0.717831 0.500000 -0.211522
C47   C     C_3   0.711459 0.101831 0.405003 -0.779097
C48   C     C_3   0.951363 0.660247 0.381616 0.189400
C49   C     C_3   0.898169 0.711459 0.405003 -0.779096
C50   C     C_3   0.339753 0.951363 0.381616 0.189399
C51   C     C_3   0.288541 0.898169 0.405003 -0.779096
C52   C     C_3   0.048638 0.660247 0.618384 0.189400
C53   C     C_3   0.101832 0.711459 0.594997 -0.779096
C54   C     C_3   0.660247 0.951362 0.618383 0.189400
C55   C     C_3   0.711458 0.898167 0.594996 -0.779097
C56   C     C_3   0.951363 0.339753 0.618384 0.189400
C57   C     C_1   0.282169 0.000000 0.500000 -0.211522
C58   C     C_3   0.898169 0.288541 0.594997 -0.779097
C59   C     C_3   0.339753 0.048637 0.618384 0.189399
C60   C     C_3   0.288541 0.101830 0.594997 -0.779095
C61   C     C_3   0.548638 0.839753 0.881616 0.189399
C62   C     C_3   0.601832 0.788542 0.905003 -0.779097
C63   C     C_3   0.160247 0.548638 0.881616 0.189400
C64   C     C_3   0.211458 0.601832 0.905003 -0.779098
C65   C     C_3   0.451362 0.160247 0.881616 0.189401
C66   C     C_3   0.398169 0.211459 0.905003 -0.779097
C67   C     C_3   0.839753 0.451362 0.881616 0.189400
C68   C     C_1   1.000000 0.282169 0.500000 -0.211522
C69   C     C_3   0.788541 0.398168 0.905003 -0.779097
C70   C     C_3   0.548638 0.160247 0.118384 0.189400
C71   C     C_3   0.601831 0.211459 0.094997 -0.779098
C72   C     C_3   0.160247 0.451362 0.118384 0.189399
C73   C     C_3   0.211458 0.398168 0.094996 -0.779098
C74   C     C_3   0.451362 0.839753 0.118384 0.189399
C75   C     C_3   0.398169 0.788541 0.094997 -0.779097
C76   C     C_3   0.839753 0.548638 0.118384 0.189400
C77   C     C_3   0.788542 0.601832 0.094997 -0.779097
C78   C     C_R   1.000000 0.500000 0.086878 0.933031
C79   C     C_R   0.500000 0.000000 0.086878 0.933032
C80   C     C_R   1.000000 0.500000 0.913122 0.933032
C81   C     C_R   0.500000 0.141289 0.000000 0.907033
C82   C     C_R   0.500000 1.000000 0.913122 0.933032
C83   C     C_R   0.500000 1.000000 0.586878 0.933031
C84   C     C_R   1.000000 0.500000 0.586878 0.933031
C85   C     C_R   0.500000 0.000000 0.413122 0.933032
C86   C     C_R   1.000000 0.500000 0.413122 0.933031
C87   C     C_1   0.282680 0.500000 0.000000 -0.207626
C88   C     C_1   0.500000 0.282680 0.000000 -0.207626
C89   C     C_1   0.717320 0.500000 0.000000 -0.207626
C90   C     C_1   0.500000 0.717320 1.000000 -0.207626
C91   C     C_1   0.782680 1.000000 0.500000 -0.207626
C92   C     C_R   0.858711 0.500000 0.000000 0.907034
C93   C     C_1   0.000000 0.782680 0.500000 -0.207627
C94   C     C_1   0.217320 0.000000 0.500000 -0.207627
C95   C     C_1   0.000000 0.217320 0.500000 -0.207626
C96   C     C_R   0.500000 0.359213 0.000000 0.929356
C97   C     C_R   0.640787 0.500000 0.000000 0.929355
C98   C     C_R   0.500000 0.640787 0.000000 0.929355
C99   C     C_R   0.359213 0.500000 0.000000 0.929356
C100  C     C_R   0.000000 0.859213 0.500000 0.929356
C101  C     C_R   0.140787 0.000000 0.500000 0.929355
C102  C     C_R   1.000000 0.140787 0.500000 0.929355
C103  C     C_R   0.500000 0.858711 0.000000 0.907034
C104  C     C_R   0.859213 0.000000 0.500000 0.929356
C105  C     C_R   0.041452 0.447003 0.342741 0.397858
C106  C     C_R   0.552997 0.041452 0.342741 0.397859
C107  C     C_R   0.958548 0.552997 0.342741 0.397859
C108  C     C_R   0.447003 0.958548 0.342741 0.397859
C109  C     C_R   0.041452 0.552997 0.657259 0.397859
C110  C     C_R   0.552997 0.958548 0.657259 0.397858
C111  C     C_R   0.958548 0.447003 0.657259 0.397859
C112  C     C_R   0.447003 0.041452 0.657259 0.397860
C113  C     C_R   0.541452 0.947003 0.842741 0.397859
C114  C     C_R   0.641289 0.000000 0.500000 0.907033
C115  C     C_R   0.052997 0.541452 0.842741 0.397859
C116  C     C_R   0.458548 0.052997 0.842741 0.397859
C117  C     C_R   0.947003 0.458548 0.842741 0.397859
C118  C     C_R   0.541452 0.052997 0.157259 0.397859
C119  C     C_R   0.052997 0.458547 0.157259 0.397859
C120  C     C_R   0.458548 0.947003 0.157259 0.397859
C121  C     C_R   0.947003 0.541452 0.157259 0.397859
C122  C     C_R   1.000000 0.500000 0.365301 -0.333824
C123  C     C_R   0.500000 0.000000 0.365301 -0.333824
C124  C     C_R   1.000000 0.500000 0.634699 -0.333824
C125  C     C_R   0.000000 0.641289 0.500000 0.907034
C126  C     C_R   0.500000 1.000000 0.634699 -0.333824
C127  C     C_R   0.500000 0.000000 0.865301 -0.333824
C128  C     C_R   1.000000 0.500000 0.865301 -0.333825
C129  C     C_R   0.500000 0.000000 0.134699 -0.333824
C130  C     C_R   1.000000 0.500000 0.134699 -0.333824
C131  C     C_R   0.957109 0.552375 0.296361 -0.106097
C132  C     C_R   0.447625 0.957109 0.296361 -0.106097
C133  C     C_R   0.042891 0.447625 0.296361 -0.106097
C134  C     C_R   0.552375 0.042891 0.296361 -0.106096
C135  C     C_R   0.957109 0.447625 0.703639 -0.106096
C136  C     C_R   0.358711 0.000000 0.500000 0.907034
C137  C     C_R   0.447625 0.042891 0.703639 -0.106096
C138  C     C_R   0.042891 0.552375 0.703639 -0.106097
C139  C     C_R   0.552375 0.957109 0.703639 -0.106097
C140  C     C_R   0.457109 0.052375 0.796361 -0.106095
C141  C     C_R   0.947625 0.457109 0.796361 -0.106097
C142  C     C_R   0.542892 0.947625 0.796361 -0.106098
C143  C     C_R   0.052375 0.542891 0.796361 -0.106096
C144  C     C_R   0.457109 0.947625 0.203639 -0.106096
C145  C     C_R   0.947625 0.542891 0.203639 -0.106096
C146  C     C_R   0.542891 0.052375 0.203639 -0.106097
C147  C     C_R   0.000000 0.358711 0.500000 0.907033
C148  C     C_R   0.052375 0.457108 0.203639 -0.106099
C149  C     C_R   1.000000 0.500000 0.273260 -0.150843
C150  C     C_R   0.500000 0.000000 0.273260 -0.150843
C151  C     C_R   1.000000 0.500000 0.726740 -0.150843
C152  C     C_R   0.500000 0.000000 0.726740 -0.150843
C153  C     C_R   0.500000 0.000000 0.773260 -0.150843
C154  C     C_R   1.000000 0.500000 0.773260 -0.150843
C155  C     C_R   0.500000 0.000000 0.226740 -0.150844
C156  C     C_R   1.000000 0.500000 0.226740 -0.150843
C157  C     C_R   0.913005 0.601949 0.272307 0.353273
C158  C     C_1   0.217831 0.500000 0.000000 -0.211522
C159  C     C_R   0.398051 0.913005 0.272307 0.353273
C160  C     C_R   0.086995 0.398050 0.272307 0.353273
C161  C     C_R   0.601949 0.086996 0.272307 0.353273
C162  C     C_R   0.913005 0.398051 0.727693 0.353273
C163  C     C_R   0.398051 0.086996 0.727693 0.353274
C164  C     C_R   0.086995 0.601949 0.727693 0.353274
C165  C     C_R   0.601950 0.913005 0.727693 0.353273
C166  C     C_R   0.413005 0.101949 0.772307 0.353273
C167  C     C_R   0.898051 0.413004 0.772307 0.353273
C168  C     C_R   0.586996 0.898051 0.772307 0.353274
H1    H     H_    0.890662 0.731366 0.237505 0.194531
H2    H     H_    0.211367 0.815892 0.299752 0.267518
H3    H     H_    0.275929 0.850850 0.383284 0.274051
H4    H     H_    0.022329 0.690460 0.646038 0.137502
H5    H     H_    0.005125 0.644247 0.594642 0.094198
H6    H     H_    0.123115 0.685078 0.564616 0.259732
H7    H     H_    0.073687 0.763342 0.586110 0.202091
H8    H     H_    0.149150 0.724071 0.616716 0.274051
H9    H     H_    0.690461 0.977670 0.646037 0.137501
H10   H     H_    0.644246 0.994875 0.594642 0.094198
H11   H     H_    0.685078 0.876884 0.564616 0.259732
H12   H     H_    0.763342 0.926312 0.586110 0.202091
H13   H     H_    0.109328 0.268635 0.237504 0.194525
H14   H     H_    0.724070 0.850849 0.616715 0.274050
H15   H     H_    0.977671 0.309540 0.646038 0.137502
H16   H     H_    0.994876 0.355753 0.594642 0.094198
H17   H     H_    0.876885 0.314921 0.564617 0.259732
H18   H     H_    0.926314 0.236658 0.586111 0.202091
H19   H     H_    0.850850 0.275929 0.616716 0.274051
H20   H     H_    0.309540 0.022328 0.646038 0.137504
H21   H     H_    0.355753 0.005124 0.594642 0.094198
H22   H     H_    0.314921 0.123114 0.564617 0.259732
H23   H     H_    0.236657 0.073685 0.586111 0.202091
H24   H     H_    0.031460 0.269920 0.274466 0.110241
H25   H     H_    0.275928 0.149149 0.616716 0.274051
H26   H     H_    0.522330 0.809539 0.853962 0.137502
H27   H     H_    0.505125 0.855753 0.905358 0.094199
H28   H     H_    0.649151 0.775930 0.883285 0.274050
H29   H     H_    0.623116 0.814922 0.935384 0.259732
H30   H     H_    0.573688 0.736658 0.913890 0.202091
H31   H     H_    0.190460 0.522330 0.853962 0.137502
H32   H     H_    0.144247 0.505125 0.905358 0.094198
H33   H     H_    0.224070 0.649150 0.883285 0.274051
H34   H     H_    0.185078 0.623116 0.935383 0.259733
H35   H     H_    0.098066 0.198959 0.328834 0.244830
H36   H     H_    0.263342 0.573687 0.913890 0.202092
H37   H     H_    0.477671 0.190460 0.853962 0.137502
H38   H     H_    0.494876 0.144247 0.905358 0.094198
H39   H     H_    0.350850 0.224071 0.883284 0.274051
H40   H     H_    0.376885 0.185079 0.935383 0.259732
H41   H     H_    0.426314 0.263342 0.913889 0.202092
H42   H     H_    0.809540 0.477670 0.853962 0.137502
H43   H     H_    0.855753 0.494875 0.905358 0.094198
H44   H     H_    0.775929 0.350850 0.883284 0.274051
H45   H     H_    0.814922 0.376885 0.935383 0.259732
H46   H     H_    0.112018 0.155721 0.276342 0.208649
H47   H     H_    0.736658 0.426313 0.913889 0.202092
H48   H     H_    0.522329 0.190460 0.146038 0.137503
H49   H     H_    0.505124 0.144247 0.094642 0.094198
H50   H     H_    0.649150 0.224071 0.116716 0.274051
H51   H     H_    0.623115 0.185078 0.064617 0.259732
H52   H     H_    0.573687 0.263342 0.086111 0.202092
H53   H     H_    0.190460 0.477669 0.146038 0.137502
H54   H     H_    0.144247 0.494875 0.094642 0.094198
H55   H     H_    0.224070 0.350849 0.116715 0.274051
H56   H     H_    0.185077 0.376884 0.064616 0.259733
H57   H     H_    0.184109 0.211365 0.299746 0.267516
H58   H     H_    0.263342 0.426312 0.086110 0.202092
H59   H     H_    0.477671 0.809540 0.146038 0.137503
H60   H     H_    0.494876 0.855753 0.094642 0.094198
H61   H     H_    0.350850 0.775929 0.116716 0.274051
H62   H     H_    0.376885 0.814922 0.064617 0.259732
H63   H     H_    0.426314 0.736658 0.086111 0.202091
H64   H     H_    0.809540 0.522330 0.146038 0.137502
H65   H     H_    0.855753 0.505125 0.094642 0.094198
H66   H     H_    0.775929 0.649150 0.116715 0.274051
H67   H     H_    0.814922 0.623116 0.064616 0.259732
H68   H     H_    0.731365 0.109338 0.237504 0.194530
H69   H     H_    0.736658 0.573687 0.086110 0.202091
H70   H     H_    0.730079 0.031464 0.274462 0.110242
H71   H     H_    0.801041 0.098060 0.328834 0.244828
H72   H     H_    0.844278 0.112023 0.276343 0.208650
H73   H     H_    0.968537 0.730079 0.274462 0.110242
H74   H     H_    0.788632 0.184109 0.299752 0.267518
H75   H     H_    0.890662 0.268634 0.762496 0.194530
H76   H     H_    0.968537 0.269921 0.725538 0.110242
H77   H     H_    0.901942 0.198959 0.671166 0.244829
H78   H     H_    0.887978 0.155722 0.723657 0.208651
H79   H     H_    0.815892 0.211367 0.700248 0.267518
H80   H     H_    0.268634 0.109344 0.762495 0.194533
H81   H     H_    0.269922 0.031465 0.725541 0.110243
H82   H     H_    0.198959 0.098053 0.671166 0.244828
H83   H     H_    0.155722 0.112025 0.723657 0.208652
H84   H     H_    0.901942 0.801041 0.328834 0.244828
H85   H     H_    0.211368 0.184106 0.700243 0.267519
H86   H     H_    0.109337 0.731365 0.762495 0.194530
H87   H     H_    0.031463 0.730079 0.725537 0.110242
H88   H     H_    0.098060 0.801041 0.671166 0.244829
H89   H     H_    0.112022 0.844278 0.723657 0.208651
H90   H     H_    0.184108 0.788633 0.700249 0.267518
H91   H     H_    0.731365 0.890670 0.762496 0.194526
H92   H     H_    0.730080 0.968539 0.725534 0.110241
H93   H     H_    0.801041 0.901934 0.671166 0.244829
H94   H     H_    0.844278 0.887980 0.723658 0.208650
H95   H     H_    0.887978 0.844278 0.276343 0.208651
H96   H     H_    0.788634 0.815890 0.700253 0.267517
H97   H     H_    0.390662 0.231366 0.737504 0.194530
H98   H     H_    0.468537 0.230079 0.774462 0.110244
H99   H     H_    0.315893 0.288633 0.799752 0.267518
H100  H     H_    0.401942 0.301041 0.828834 0.244829
H101  H     H_    0.387978 0.344278 0.776343 0.208651
H102  H     H_    0.768635 0.390661 0.737505 0.194530
H103  H     H_    0.769921 0.468536 0.774462 0.110242
H104  H     H_    0.711368 0.315891 0.799752 0.267518
H105  H     H_    0.698959 0.401940 0.828834 0.244829
H106  H     H_    0.815893 0.788633 0.299753 0.267518
H107  H     H_    0.655722 0.387976 0.776343 0.208651
H108  H     H_    0.609340 0.768635 0.737505 0.194530
H109  H     H_    0.531466 0.769921 0.774463 0.110241
H110  H     H_    0.684111 0.711369 0.799752 0.267519
H111  H     H_    0.598062 0.698960 0.828834 0.244828
H112  H     H_    0.612027 0.655723 0.776343 0.208650
H113  H     H_    0.231365 0.609339 0.737505 0.194530
H114  H     H_    0.230079 0.531464 0.774462 0.110242
H115  H     H_    0.288632 0.684109 0.799752 0.267518
H116  H     H_    0.301040 0.598060 0.828834 0.244829
H117  H     H_    0.268634 0.890662 0.237505 0.194530
H118  H     H_    0.344278 0.612024 0.776343 0.208650
H119  H     H_    0.390661 0.768635 0.262495 0.194530
H120  H     H_    0.468536 0.769921 0.225538 0.110242
H121  H     H_    0.315891 0.711368 0.200247 0.267518
H122  H     H_    0.401941 0.698959 0.171166 0.244828
H123  H     H_    0.387976 0.655722 0.223657 0.208651
H124  H     H_    0.768635 0.609339 0.262495 0.194530
H125  H     H_    0.769921 0.531464 0.225538 0.110243
H126  H     H_    0.711368 0.684109 0.200247 0.267518
H127  H     H_    0.698959 0.598060 0.171166 0.244829
H128  H     H_    0.269921 0.968537 0.274462 0.110242
H129  H     H_    0.655723 0.612024 0.223657 0.208651
H130  H     H_    0.609338 0.231365 0.262495 0.194530
H131  H     H_    0.531464 0.230079 0.225538 0.110242
H132  H     H_    0.684108 0.288633 0.200247 0.267518
H133  H     H_    0.598059 0.301041 0.171166 0.244829
H134  H     H_    0.612023 0.344278 0.223657 0.208651
H135  H     H_    0.231365 0.390658 0.262495 0.194530
H136  H     H_    0.230079 0.468533 0.225538 0.110241
H137  H     H_    0.288630 0.315888 0.200247 0.267519
H138  H     H_    0.301040 0.401937 0.171166 0.244828
H139  H     H_    0.198959 0.901941 0.328834 0.244828
H140  H     H_    0.344277 0.387971 0.223657 0.208651
H141  H     H_    0.022329 0.309539 0.353963 0.137501
H142  H     H_    0.005125 0.355754 0.405359 0.094199
H143  H     H_    0.123116 0.314922 0.435384 0.259732
H144  H     H_    0.073688 0.236658 0.413890 0.202091
H145  H     H_    0.149151 0.275930 0.383284 0.274050
H146  H     H_    0.690460 0.022329 0.353962 0.137502
H147  H     H_    0.644247 0.005124 0.405358 0.094198
H148  H     H_    0.685078 0.123115 0.435383 0.259732
H149  H     H_    0.763342 0.073687 0.413889 0.202091
H150  H     H_    0.155722 0.887978 0.276343 0.208651
H151  H     H_    0.724071 0.149150 0.383284 0.274051
H152  H     H_    0.977671 0.690460 0.353962 0.137502
H153  H     H_    0.994876 0.644247 0.405358 0.094198
H154  H     H_    0.876885 0.685079 0.435383 0.259732
H155  H     H_    0.926314 0.763342 0.413889 0.202091
H156  H     H_    0.850851 0.724071 0.383284 0.274051
H157  H     H_    0.309540 0.977671 0.353962 0.137502
H158  H     H_    0.355753 0.994876 0.405358 0.094198
H159  H     H_    0.314922 0.876885 0.435383 0.259732
H160  H     H_    0.236658 0.926314 0.413889 0.202091
O1    O     O_R   0.107310 0.560570 0.000010 -0.627114
O2    O     O_R   0.939430 0.607310 0.500010 -0.627113
O3    O     O_R   0.392690 0.939430 0.500010 -0.627113
O4    O     O_R   0.060570 0.392690 0.500010 -0.627114
O5    O     O_R   0.607310 0.939430 0.499990 -0.627114
O6    O     O_R   0.939430 0.392690 0.499990 -0.627113
O7    O     O_R   0.392690 0.060570 0.499990 -0.627113
O8    O     O_R   0.060570 0.607310 0.499990 -0.627114
O9    O     O_R   0.999950 0.560580 0.066080 -0.595353
O10   O     O_R   0.439420 0.999950 0.066080 -0.595353
O11   O     O_R   0.000050 0.439420 0.066080 -0.595353
O12   O     O_R   0.439430 0.107310 0.000010 -0.627113
O13   O     O_R   0.560580 0.000050 0.066080 -0.595353
O14   O     O_R   0.999950 0.439420 0.933920 -0.595353
O15   O     O_R   0.439420 0.000050 0.933920 -0.595353
O16   O     O_R   0.000050 0.560580 0.933920 -0.595353
O17   O     O_R   0.560580 0.999950 0.933920 -0.595353
O18   O     O_R   0.499950 0.060580 0.566080 -0.595353
O19   O     O_R   0.939420 0.499950 0.566080 -0.595353
O20   O     O_R   0.500050 0.939420 0.566080 -0.595353
O21   O     O_R   0.060580 0.500050 0.566080 -0.595353
O22   O     O_R   0.499950 0.939420 0.433920 -0.595353
O23   O     O_R   0.892690 0.439430 0.000010 -0.627113
O24   O     O_R   0.939420 0.500050 0.433920 -0.595353
O25   O     O_R   0.500050 0.060580 0.433920 -0.595353
O26   O     O_R   0.060580 0.499950 0.433920 -0.595353
O27   O     O_R   0.499980 0.392670 0.037330 -0.625606
O28   O     O_R   0.607330 0.499980 0.037330 -0.625606
O29   O     O_R   0.500020 0.607330 0.037330 -0.625606
O30   O     O_R   0.392670 0.500020 0.037330 -0.625606
O31   O     O_R   0.499980 0.607330 0.962670 -0.625606
O32   O     O_R   0.607330 0.500020 0.962670 -0.625606
O33   O     O_R   0.500020 0.392670 0.962670 -0.625606
O34   O     O_R   0.560570 0.892690 0.000010 -0.627114
O35   O     O_R   0.392670 0.499980 0.962670 -0.625606
O36   O     O_R   0.999980 0.892670 0.537330 -0.625606
O37   O     O_R   0.107330 0.999980 0.537330 -0.625606
O38   O     O_R   0.000020 0.107330 0.537330 -0.625606
O39   O     O_R   0.892670 0.000020 0.537330 -0.625606
O40   O     O_R   0.999980 0.107330 0.462670 -0.625606
O41   O     O_R   0.107330 0.000020 0.462670 -0.625606
O42   O     O_R   0.000020 0.892670 0.462670 -0.625606
O43   O     O_R   0.892670 0.999980 0.462670 -0.625606
O44   O     O_3   0.880914 0.662265 0.292606 -0.578797
O45   O     O_R   0.107310 0.439430 0.999990 -0.627114
O46   O     O_3   0.337736 0.880914 0.292606 -0.578797
O47   O     O_3   0.119085 0.337735 0.292605 -0.578797
O48   O     O_3   0.662264 0.119086 0.292606 -0.578797
O49   O     O_3   0.880914 0.337736 0.707394 -0.578797
O50   O     O_3   0.337736 0.119086 0.707394 -0.578798
O51   O     O_3   0.119086 0.662264 0.707394 -0.578797
O52   O     O_3   0.662265 0.880914 0.707395 -0.578797
O53   O     O_3   0.380914 0.162265 0.792606 -0.578799
O54   O     O_3   0.837736 0.380913 0.792606 -0.578797
O55   O     O_3   0.619088 0.837737 0.792606 -0.578794
O56   O     O_R   0.439430 0.892690 0.999990 -0.627113
O57   O     O_3   0.162264 0.619087 0.792606 -0.578796
O58   O     O_3   0.380914 0.837736 0.207394 -0.578797
O59   O     O_3   0.837736 0.619087 0.207394 -0.578797
O60   O     O_3   0.619086 0.162264 0.207394 -0.578797
O61   O     O_3   0.162263 0.380912 0.207394 -0.578794
O62   O     O_3   0.088019 0.401330 0.366195 -0.549719
O63   O     O_3   0.598669 0.088019 0.366195 -0.549718
O64   O     O_3   0.911981 0.598670 0.366195 -0.549719
O65   O     O_3   0.401330 0.911981 0.366195 -0.549718
O66   O     O_3   0.088019 0.598670 0.633805 -0.549719
O67   O     O_R   0.892690 0.560570 0.999990 -0.627114
O68   O     O_3   0.598669 0.911981 0.633805 -0.549719
O69   O     O_3   0.911981 0.401330 0.633805 -0.549718
O70   O     O_3   0.401330 0.088019 0.633805 -0.549718
O71   O     O_3   0.588019 0.901331 0.866195 -0.549718
O72   O     O_3   0.098669 0.588019 0.866195 -0.549718
O73   O     O_3   0.411981 0.098670 0.866195 -0.549719
O74   O     O_3   0.901330 0.411981 0.866195 -0.549718
O75   O     O_3   0.588019 0.098669 0.133805 -0.549718
O76   O     O_3   0.098669 0.411980 0.133805 -0.549718
O77   O     O_3   0.411981 0.901330 0.133805 -0.549718
O78   O     O_R   0.560570 0.107310 0.999990 -0.627114
O79   O     O_3   0.901331 0.588019 0.133805 -0.549718
O80   O     O_R   0.607310 0.060570 0.500010 -0.627114
Zn1   Zn    Zn3+2 1.000000 0.580890 0.000000 0.989939
Zn2   Zn    Zn3+2 0.500000 0.500000 0.950170 0.932933
Zn3   Zn    Zn3+2 0.000000 0.000000 0.549830 0.932933
Zn4   Zn    Zn3+2 0.000000 0.000000 0.450170 0.932933
Zn5   Zn    Zn3+2 0.419110 0.000000 0.000000 0.989939
Zn6   Zn    Zn3+2 1.000000 0.419110 0.000000 0.989939
Zn7   Zn    Zn3+2 0.580890 0.000000 0.000000 0.989939
Zn8   Zn    Zn3+2 0.500000 0.080890 0.500000 0.989939
Zn9   Zn    Zn3+2 0.919110 0.500000 0.500000 0.989939
Zn10  Zn    Zn3+2 0.500000 0.919110 0.500000 0.989939
Zn11  Zn    Zn3+2 0.080890 0.500000 0.500000 0.989938
Zn12  Zn    Zn3+2 0.500000 0.500000 0.049830 0.932933

loop_
_geom_bond_atom_site_label_1
_geom_bond_atom_site_label_2
_ccdc_geom_bond_type
C43   O62   S    
O80   Zn8   S    
C58   H18   S    
C12   O47   S    
C132  C150  A    
C55   H12   S    
C44   H144  S    
C19   C20   S    
C120  C144  A    
C62   H28   S    
C33   H115  S    
C41   H135  S    
C20   H85   S    
C86   O24   A    
C17   O49   S    
C67   H42   S    
C6    C146  A    
C141  C154  A    
C102  O38   A    
C51   H160  S    
O67   Zn1   S    
C139  C152  A    
C77   H67   S    
C97   O28   A    
O24   Zn9   S    
C75   H61   S    
C115  O72   S    
C125  O8    A    
C21   H86   S    
C48   O64   S    
C16   H71   S    
C53   H6    S    
C79   O10   A    
C67   H43   S    
C95   C102  S    
C1    O1    A    
O33   Zn2   S    
C64   H36   S    
C59   C60   S    
C21   C22   S    
C78   O9    A    
C45   C47   S    
C22   H89   S    
C86   O26   A    
C68   C95   T    
C28   H102  S    
C97   O32   A    
C40   H132  S    
C3    C143  A    
C14   H57   S    
O10   Zn5   S    
C143  C154  A    
C70   O75   S    
C56   H16   S    
C119  C148  A    
C71   H52   S    
C54   H10   S    
C25   H94   S    
C96   O33   A    
C37   C38   S    
C49   H156  S    
C147  O6    A    
C20   H82   S    
C27   H100  S    
C99   O30   A    
C50   O65   S    
O28   Zn12  S    
C93   C100  S    
C62   H30   S    
C3    C164  A    
C50   H157  S    
C47   H151  S    
C48   H152  S    
C83   C126  S    
C32   H113  S    
C39   C40   S    
C8    H1    S    
C105  C133  A    
O20   Zn10  S    
C98   O31   A    
C110  C139  A    
C37   H125  S    
C106  O63   S    
C111  C124  A    
O29   Zn12  S    
C72   C73   S    
C24   C90   T    
C4    C144  A    
O2    Zn9   S    
C74   O77   S    
C138  C151  A    
C133  C160  A    
O16   Zn1   S    
C118  C129  A    
C66   H39   S    
C1    C158  S    
C30   C31   S    
C37   H124  S    
C85   C123  S    
C39   H130  S    
C40   H133  S    
O37   Zn3   S    
C117  C128  A    
O35   Zn2   S    
C142  C168  A    
O27   Zn12  S    
C17   H75   S    
C60   H22   S    
O1    Zn1   S    
C109  C138  A    
C2    C81   S    
O13   Zn7   S    
C107  C122  A    
C92   O23   A    
C113  O71   S    
C26   H98   S    
C16   H74   S    
C10   O46   S    
C104  O43   A    
C85   O22   A    
C114  O5    A    
C121  C130  A    
C52   H4    S    
C67   O74   S    
O9    Zn1   S    
O8    Zn11  S    
C113  C142  A    
C103  O56   A    
C71   H50   S    
C65   H37   S    
C139  C165  A    
C74   H60   S    
C18   H79   S    
C34   H120  S    
C15   H68   S    
C76   H64   S    
C98   O29   A    
C99   O35   A    
O22   Zn10  S    
C119  C130  A    
C110  O68   S    
C34   H119  S    
O42   Zn4   S    
C147  O4    A    
C19   H80   S    
C103  O34   A    
C29   H105  S    
C36   H121  S    
C132  C159  A    
C5    C145  A    
O78   Zn7   S    
C73   H55   S    
C42   H137  S    
C120  C129  A    
C5    O59   S    
C12   H24   S    
C34   O58   S    
C11   H139  S    
O7    Zn8   S    
C137  C163  A    
C25   H96   S    
C80   C128  S    
C115  C128  A    
C105  O62   S    
C19   O50   S    
C31   H112  S    
C101  O41   A    
C6    C161  A    
C11   H150  S    
C31   H110  S    
C17   C18   S    
C83   O20   A    
O14   Zn6   S    
C23   O52   S    
C110  C126  A    
C27   H101  S    
C23   H92   S    
C57   C94   T    
C39   O60   S    
C81   O78   A    
C164  O51   S    
C52   C53   S    
C53   H7    S    
C10   H128  S    
C112  O70   S    
C54   C55   S    
C47   H148  S    
C55   H11   S    
C54   O68   S    
C62   H29   S    
O12   Zn5   S    
C159  O46   S    
C84   O19   A    
C134  C161  A    
C150  C155  A    
C24   C103  S    
C78   C130  S    
C18   H77   S    
C38   H127  S    
O36   Zn3   S    
C51   H159  S    
C8    H73   S    
C72   H53   S    
C45   O63   S    
C77   H66   S    
C55   H14   S    
C56   C58   S    
C105  C122  A    
C34   C36   S    
C50   H158  S    
C61   C62   S    
C108  C132  A    
C10   C11   S    
C160  O47   S    
C63   C64   S    
C106  C134  A    
C152  C153  A    
C16   H72   S    
C38   H126  S    
C39   H131  S    
C76   O79   S    
C119  O76   S    
C72   O76   S    
C117  O74   S    
C29   H107  S    
C36   H123  S    
C64   H33   S    
C88   C96   S    
C30   H108  S    
O23   Zn6   S    
C41   C42   S    
C43   H142  S    
C10   H117  S    
C44   H145  S    
C22   H90   S    
C26   C27   S    
O3    Zn10  S    
C28   C29   S    
C73   H58   S    
C4    C159  A    
C65   O73   S    
O34   Zn7   S    
C79   C129  S    
C81   O12   A    
C71   H51   S    
C63   H32   S    
C14   H46   S    
C161  O48   S    
C131  C157  A    
C83   O18   A    
C45   H147  S    
C49   H155  S    
C3    O57   S    
C145  C156  A    
C27   H99   S    
C146  C155  A    
C116  C127  A    
C86   C122  S    
C104  O39   A    
C61   H26   S    
C137  C152  A    
C70   C71   S    
C82   O17   A    
C61   H27   S    
C112  C126  A    
C140  C153  A    
C58   H19   S    
C33   H116  S    
C58   H17   S    
C77   H69   S    
C44   H143  S    
C32   H114  S    
C41   H136  S    
C61   O71   S    
O17   Zn7   S    
C84   O21   A    
C140  C166  A    
C141  C167  A    
C70   H49   S    
C85   O25   A    
C8    O44   S    
C131  C149  A    
C163  C166  A    
C69   H45   S    
C59   O70   S    
C19   H81   S    
C7    C160  A    
C92   O67   A    
O15   Zn5   S    
C42   H140  S    
C136  O7    A    
C117  C141  A    
C21   H87   S    
C66   H40   S    
C114  O80   A    
C9    H84   S    
C50   C51   S    
C69   H44   S    
C40   H134  S    
C120  O77   S    
C48   C49   S    
C7    O61   S    
C5    C157  A    
C13   C92   S    
C116  O73   S    
C125  O2    A    
C108  C123  A    
C82   O15   A    
C96   O27   A    
C15   O48   S    
O5    Zn10  S    
C80   O14   A    
C168  O55   S    
C112  C137  A    
C63   O72   S    
C56   H15   S    
C48   H153  S    
C165  O52   S    
C54   H9    S    
C32   C33   S    
C111  C135  A    
C135  C151  A    
C157  O44   S    
C100  O36   A    
C166  O53   S    
C100  O42   A    
C33   H118  S    
C11   H2    S    
C6    O60   S    
O40   Zn4   S    
C4    O58   S    
C148  C156  A    
O39   Zn3   S    
C109  O66   S    
C21   O51   S    
C107  O64   S    
O43   Zn4   S    
C75   H62   S    
C69   H47   S    
C91   C104  S    
C43   C44   S    
O26   Zn11  S    
C1    O45   A    
C36   H122  S    
O11   Zn6   S    
C15   H70   S    
C42   H138  S    
C56   O69   S    
C149  C156  A    
O21   Zn11  S    
C15   C16   S    
C134  C150  A    
C79   O13   A    
C25   H93   S    
C35   C114  S    
C151  C154  A    
C30   O55   S    
O38   Zn3   S    
C12   H13   S    
C17   H76   S    
C63   H31   S    
C8    C9    S    
C106  C123  A    
C57   C136  S    
C2    C88   T    
C76   H65   S    
C31   H111  S    
C22   H88   S    
C26   H97   S    
C23   H91   S    
C80   O16   A    
C28   H103  S    
O56   Zn5   S    
C87   C99   S    
C45   H146  S    
C115  C143  A    
C74   C75   S    
C111  O69   S    
O25   Zn8   S    
C9    H106  S    
C118  C146  A    
C133  C149  A    
C76   C77   S    
C94   C101  S    
C107  C131  A    
C167  O54   S    
C20   H83   S    
C65   H38   S    
C89   C97   S    
C67   C69   S    
C47   H149  S    
C74   H59   S    
C18   H78   S    
O31   Zn2   S    
C102  O40   A    
C72   H54   S    
C14   H35   S    
C41   O61   S    
C59   H20   S    
C60   H25   S    
C66   H41   S    
C75   H63   S    
C68   C147  S    
O6    Zn9   S    
C12   C14   S    
C165  C168  A    
C46   C125  S    
C108  O65   S    
C135  C162  A    
C121  C145  A    
O41   Zn4   S    
C101  O37   A    
C7    C148  A    
C64   H34   S    
C118  O75   S    
C30   H109  S    
C73   H56   S    
C13   C89   T    
O45   Zn6   S    
C29   H104  S    
C78   O11   A    
C43   H141  S    
C136  O3    A    
C52   O66   S    
C109  C124  A    
C113  C127  A    
C84   C124  S    
C87   C158  T    
C70   H48   S    
C144  C155  A    
C51   H3    S    
C46   C93   T    
C60   H23   S    
C9    H95   S    
C32   O57   S    
C28   O54   S    
C162  O49   S    
C23   C25   S    
C142  C153  A    
O18   Zn8   S    
C82   C127  S    
C59   H21   S    
C49   H154  S    
C162  C167  A    
C37   O59   S    
C38   H129  S    
O30   Zn12  S    
C65   C66   S    
O19   Zn9   S    
O4    Zn11  S    
C138  C164  A    
O32   Zn2   S    
C52   H5    S    
C90   C98   S    
C163  O50   S    
C121  O79   S    
C53   H8    S    
C116  C140  A    
C26   O53   S    
C35   C91   T    
