data_mof_unit_55138.cif
_audit_creation_date              2012-12-11T14:03:56-0500
_audit_creation_method            fapswitch 2.2
_symmetry_space_group_name_H-M    P1
_symmetry_Int_Tables_number       1
_space_group_crystal_system       triclinic
_cell_length_a                    19.04568
_cell_length_b                    11.016739
_cell_length_c                    18.843371
_cell_angle_alpha                 89.929089
_cell_angle_beta                  88.779578
_cell_angle_gamma                 90.153521
_cell_volume                      3952.8259404

loop_
_atom_site_label
_atom_site_type_symbol
_atom_type_description
_atom_site_fract_x
_atom_site_fract_y
_atom_site_fract_z
_atom_type_partial_charge
C1    C     C_R   0.240964 0.465971 0.647427 0.544079
C2    C     C_R   0.759252 0.466705 0.352826 0.543544
C3    C     C_R   0.740964 0.965972 0.647426 0.544093
C4    C     C_R   0.259251 0.966703 0.352825 0.543535
C5    C     C_2   0.276722 0.820678 0.531438 -0.155577
C6    C     C_2   0.727979 0.813639 0.469531 -0.147432
C7    C     C_2   0.776727 0.320683 0.531440 -0.155583
C8    C     C_2   0.227986 0.313629 0.469534 -0.147443
C9    C     C_R   0.001200 0.660871 0.423441 -0.005389
C10   C     C_R   0.046933 0.661333 0.562707 -0.011627
C11   C     C_R   0.501189 0.160861 0.423452 -0.005382
C12   C     C_R   0.546937 0.161316 0.562722 -0.011593
C13   C     C_R   0.023136 0.881314 0.417201 -0.089026
C14   C     C_R   0.003781 0.878254 0.563481 -0.087572
C15   C     C_R   0.523196 0.381273 0.417191 -0.089013
C16   C     C_R   0.503826 0.378260 0.563471 -0.087527
C17   C     C_R   0.000823 0.985954 0.451742 0.264418
C18   C     C_R   0.985261 0.980819 0.524944 0.223856
C19   C     C_R   0.500947 0.485955 0.451730 0.264429
C20   C     C_R   0.485346 0.480832 0.524925 0.223875
C21   C     C_R   0.028312 0.772500 0.528541 -0.045608
C22   C     C_R   0.022827 0.770868 0.454271 -0.062319
C23   C     C_R   0.528336 0.272485 0.528543 -0.045617
C24   C     C_R   0.522844 0.270839 0.454272 -0.062331
C25   C     C_R   0.042338 0.552589 0.523561 0.000264
C26   C     C_R   0.999839 0.555338 0.465683 0.022646
C27   C     C_R   0.542313 0.052573 0.523579 0.000302
C28   C     C_R   0.499812 0.055337 0.465700 0.022643
C29   C     C_R   0.063675 0.438059 0.547597 -0.100053
C30   C     C_R   0.952812 0.457283 0.458140 -0.074081
C31   C     C_R   0.563647 0.938040 0.547606 -0.100050
C32   C     C_R   0.452790 0.957285 0.458143 -0.074106
C33   C     C_R   0.026239 0.334603 0.530430 -0.057068
C34   C     C_R   0.965912 0.347723 0.491152 -0.036377
C35   C     C_R   0.526217 0.834590 0.530421 -0.056929
C36   C     C_R   0.465894 0.847712 0.491137 -0.036282
C37   C     C_2   0.205165 0.807161 0.935123 -0.108613
C38   C     C_2   0.794999 0.806891 0.064935 -0.108778
C39   C     C_2   0.705165 0.307161 0.935123 -0.108612
C40   C     C_2   0.294999 0.306891 0.064935 -0.108776
C41   C     C_2   0.250168 0.903538 0.080655 -0.013978
C42   C     C_2   0.749768 0.903114 0.919371 -0.013787
C43   C     C_2   0.750168 0.403538 0.080655 -0.013977
C44   C     C_2   0.249768 0.403113 0.919371 -0.013787
C45   C     C_R   0.227078 0.872432 0.646770 0.553796
C46   C     C_R   0.773008 0.872044 0.353353 0.562792
C47   C     C_R   0.727078 0.372433 0.646771 0.553791
C48   C     C_R   0.273008 0.372043 0.353354 0.562768
C49   C     C_2   0.184734 0.902823 0.053105 -0.163625
C50   C     C_2   0.815240 0.902909 0.946866 -0.163039
C51   C     C_2   0.684734 0.402822 0.053106 -0.163624
C52   C     C_2   0.315240 0.402909 0.946866 -0.163037
C53   C     C_2   0.169010 0.883144 0.977431 -0.175285
C54   C     C_2   0.831047 0.883368 0.022542 -0.175932
C55   C     C_2   0.669010 0.383143 0.977431 -0.175286
C56   C     C_2   0.331047 0.383368 0.022542 -0.175933
C57   C     C_2   0.999699 0.658894 0.921483 -0.118122
C58   C     C_2   0.000952 0.659616 0.078750 -0.117258
C59   C     C_2   0.499698 0.158894 0.921483 -0.118120
C60   C     C_2   0.500951 0.159615 0.078750 -0.117258
C61   C     C_2   0.991589 0.563501 0.037045 -0.159028
C62   C     C_2   0.010598 0.563697 0.963546 -0.160922
C63   C     C_2   0.491588 0.063501 0.037044 -0.159030
C64   C     C_2   0.510597 0.063697 0.963545 -0.160922
C65   C     C_R   0.061810 0.651771 0.638263 0.554861
C66   C     C_R   0.969404 0.654622 0.354370 0.536657
C67   C     C_R   0.561830 0.151765 0.638276 0.554913
C68   C     C_R   0.469400 0.154620 0.354376 0.536655
C69   C     C_R   0.238529 0.464858 0.851118 0.532392
C70   C     C_R   0.761428 0.465050 0.148907 0.529322
C71   C     C_R   0.738529 0.964857 0.851118 0.532392
C72   C     C_R   0.261428 0.965050 0.148907 0.529325
C73   C     C_R   0.204324 0.817541 0.857769 0.579729
C74   C     C_R   0.795724 0.817409 0.142269 0.576936
C75   C     C_R   0.704324 0.317541 0.857769 0.579730
C76   C     C_R   0.295724 0.317408 0.142269 0.576950
C77   C     C_R   0.029223 0.652166 0.850747 0.552313
C78   C     C_R   0.970830 0.652423 0.149268 0.538783
C79   C     C_R   0.529222 0.152166 0.850747 0.552316
C80   C     C_R   0.470830 0.152423 0.149268 0.538793
C81   C     C_2   0.247483 0.905511 0.574446 -0.103750
C82   C     C_2   0.753339 0.902249 0.426203 -0.093287
C83   C     C_2   0.747486 0.405515 0.574447 -0.103761
C84   C     C_2   0.253341 0.402244 0.426205 -0.093305
C85   C     C_2   0.240280 0.908402 0.419764 -0.122221
C86   C     C_2   0.760746 0.907994 0.580508 -0.112304
C87   C     C_2   0.740284 0.408404 0.419766 -0.122220
C88   C     C_2   0.260750 0.407990 0.580511 -0.112304
C89   C     C_2   0.284947 0.838787 0.454555 -0.184170
C90   C     C_2   0.720056 0.829603 0.546689 -0.192201
C91   C     C_2   0.784956 0.338796 0.454557 -0.184161
C92   C     C_2   0.220062 0.329593 0.546691 -0.192198
Cr1   Cr    Cr6+3 0.113970 0.508630 0.747920 1.007900
Cr2   Cr    Cr6+3 0.886030 0.508630 0.252080 1.036483
Cr3   Cr    Cr6+3 0.613970 0.008630 0.747920 1.007882
Cr4   Cr    Cr6+3 0.386030 0.008630 0.252080 1.036471
Cr5   Cr    Cr6+3 0.269200 0.666740 0.749850 1.055680
Cr6   Cr    Cr6+3 0.730800 0.666740 0.250150 1.045449
Cr7   Cr    Cr6+3 0.769200 0.166740 0.749850 1.055703
Cr8   Cr    Cr6+3 0.230800 0.166740 0.250150 1.045343
Cr9   Cr    Cr6+3 0.112300 0.820070 0.749800 1.014139
Cr10  Cr    Cr6+3 0.887700 0.820070 0.250200 1.043389
Cr11  Cr    Cr6+3 0.612300 0.320070 0.749800 1.014124
Cr12  Cr    Cr6+3 0.387700 0.320070 0.250200 1.043351
H1    H     H_    0.329090 0.797733 0.426575 0.168110
H2    H     H_    0.678995 0.779706 0.574954 0.135034
H3    H     H_    0.829103 0.297748 0.426580 0.168239
H4    H     H_    0.179000 0.279697 0.574956 0.135022
H5    H     H_    0.129458 0.941672 0.955071 0.144093
H6    H     H_    0.870505 0.942454 0.044827 0.144072
H7    H     H_    0.629458 0.441671 0.955071 0.144093
H8    H     H_    0.370505 0.442453 0.044827 0.144072
H9    H     H_    0.239949 0.739959 0.957246 0.123358
H10   H     H_    0.760259 0.739310 0.042883 0.124053
H11   H     H_    0.739949 0.239959 0.957246 0.123357
H12   H     H_    0.260259 0.239310 0.042883 0.124054
H13   H     H_    0.970734 0.477960 0.057183 0.179280
H14   H     H_    0.032218 0.478894 0.943558 0.178716
H15   H     H_    0.470733 0.977960 0.057183 0.179281
H16   H     H_    0.532216 0.978894 0.943557 0.178715
H17   H     H_    0.022194 0.744888 0.058569 0.099804
H18   H     H_    0.977633 0.743425 0.941428 0.099685
H19   H     H_    0.522194 0.244888 0.058569 0.099804
H20   H     H_    0.477633 0.243425 0.941428 0.099685
H21   H     H_    0.294706 0.734762 0.552662 0.199204
H22   H     H_    0.712727 0.726068 0.448220 0.165871
H23   H     H_    0.794709 0.234765 0.552663 0.199245
H24   H     H_    0.212738 0.226057 0.448222 0.165815
H25   H     H_    0.191612 0.937695 0.445600 0.122764
H26   H     H_    0.807446 0.943678 0.553719 0.174698
H27   H     H_    0.691613 0.437692 0.445601 0.122799
H28   H     H_    0.307450 0.443677 0.553722 0.174682
H29   H     H_    0.229699 0.992008 0.553885 0.102525
H30   H     H_    0.768487 0.990552 0.446398 0.119073
H31   H     H_    0.729702 0.492014 0.553887 0.102535
H32   H     H_    0.268486 0.490549 0.446401 0.119008
H33   H     H_    0.032594 0.884708 0.360435 0.169397
H34   H     H_    0.988161 0.879615 0.618575 0.195695
H35   H     H_    0.532656 0.384637 0.360426 0.169387
H36   H     H_    0.488190 0.379636 0.618562 0.195709
H37   H     H_    0.904912 0.466107 0.429482 0.157111
H38   H     H_    0.103401 0.429802 0.585319 0.162971
H39   H     H_    0.404897 0.966114 0.429478 0.157107
H40   H     H_    0.603373 0.929765 0.585326 0.162945
H41   H     H_    0.040777 0.248251 0.552865 0.176416
H42   H     H_    0.929459 0.274567 0.485239 0.215701
H43   H     H_    0.540765 0.748234 0.552840 0.176507
H44   H     H_    0.429457 0.774539 0.485188 0.215647
H45   H     H_    0.141056 0.937850 0.084874 0.145173
H46   H     H_    0.858900 0.938399 0.915044 0.145650
H47   H     H_    0.641056 0.437847 0.084874 0.145176
H48   H     H_    0.358900 0.438401 0.915044 0.145650
O1    O     O_R   0.043230 0.549300 0.667990 -0.506332
O2    O     O_R   0.956770 0.549300 0.332010 -0.512076
O3    O     O_R   0.543230 0.049300 0.667990 -0.506363
O4    O     O_R   0.456770 0.049300 0.332010 -0.512054
O5    O     O_R   0.262920 0.788600 0.824420 -0.490719
O6    O     O_R   0.737080 0.788600 0.175580 -0.492536
O7    O     O_R   0.762920 0.288600 0.824420 -0.490716
O8    O     O_R   0.237080 0.288600 0.175580 -0.492541
O9    O     O_R   0.167530 0.905110 0.830340 -0.518750
O10   O     O_R   0.832470 0.905110 0.169660 -0.516188
O11   O     O_R   0.667530 0.405110 0.830340 -0.518750
O12   O     O_R   0.332470 0.405110 0.169660 -0.516199
O13   O     O_R   0.054010 0.748440 0.822860 -0.511933
O14   O     O_R   0.945990 0.748440 0.177140 -0.519179
O15   O     O_R   0.554010 0.248440 0.822860 -0.511934
O16   O     O_R   0.445990 0.248440 0.177140 -0.519173
O17   O     O_3   0.165160 0.665150 0.749190 -0.302710
O18   O     O_3   0.834840 0.665150 0.250810 -0.288995
O19   O     O_3   0.665160 0.165150 0.749190 -0.302737
O20   O     O_3   0.334840 0.165150 0.250810 -0.288969
O21   O     O_R   0.178620 0.457600 0.674100 -0.535141
O22   O     O_R   0.821380 0.457600 0.325900 -0.499177
O23   O     O_R   0.678620 0.957600 0.674100 -0.535154
O24   O     O_R   0.321380 0.957600 0.325900 -0.499193
O25   O     O_R   0.284680 0.542100 0.669460 -0.467650
O26   O     O_R   0.715320 0.542100 0.330540 -0.506125
O27   O     O_R   0.784680 0.042100 0.669460 -0.467604
O28   O     O_R   0.215320 0.042100 0.330540 -0.506211
O29   O     O_R   0.262860 0.790390 0.676650 -0.478603
O30   O     O_R   0.737140 0.790390 0.323350 -0.489568
O31   O     O_R   0.762860 0.290390 0.676650 -0.478590
O32   O     O_R   0.237140 0.290390 0.323350 -0.489588
O33   O     O_R   0.167460 0.907030 0.670940 -0.513678
O34   O     O_R   0.832540 0.907030 0.329060 -0.471524
O35   O     O_R   0.667460 0.407030 0.670940 -0.513687
O36   O     O_R   0.332540 0.407030 0.329060 -0.471647
O37   O     O_R   0.053950 0.750220 0.675100 -0.514000
O38   O     O_R   0.946050 0.750220 0.324900 -0.503814
O39   O     O_R   0.553950 0.250220 0.675100 -0.514024
O40   O     O_R   0.446050 0.250220 0.324900 -0.503810
O41   O     O_R   0.043300 0.547370 0.827390 -0.513850
O42   O     O_R   0.956700 0.547370 0.172610 -0.515595
O43   O     O_R   0.543300 0.047370 0.827390 -0.513852
O44   O     O_R   0.456700 0.047370 0.172610 -0.515588
O45   O     O_R   0.178690 0.455820 0.821860 -0.498646
O46   O     O_R   0.821310 0.455820 0.178140 -0.496376
O47   O     O_R   0.678690 0.955820 0.821860 -0.498647
O48   O     O_R   0.321310 0.955820 0.178140 -0.496379
O49   O     O_R   0.284750 0.540170 0.828860 -0.523904
O50   O     O_R   0.715250 0.540170 0.171140 -0.526398
O51   O     O_R   0.784750 0.040170 0.828860 -0.523899
O52   O     O_R   0.215250 0.040170 0.171140 -0.526407
C93   C     C_R   0.313602 0.867011 0.038905 0.028135
C94   C     C_R   0.348564 0.758896 0.055434 -0.095082
C95   C     C_R   0.402385 0.715951 0.010565 -0.129313
C96   C     C_R   0.420862 0.779600 0.948727 -0.102122
C97   C     C_R   0.387183 0.888446 0.932810 -0.092010
C98   C     C_R   0.335408 0.934443 0.978942 -0.090579
H49   H     H_    0.332649 0.706172 0.101618 0.128891
H50   H     H_    0.429116 0.632387 0.023058 0.096472
H51   H     H_    0.461485 0.744951 0.913275 0.118724
H52   H     H_    0.401465 0.937586 0.884855 0.140491
H53   H     H_    0.309336 0.018551 0.965776 0.117830
C99   C     C_R   0.686369 0.865794 0.961170 0.027713
C100  C     C_R   0.651240 0.757670 0.944471 -0.096532
C101  C     C_R   0.597494 0.713882 0.989385 -0.130120
C102  C     C_R   0.579313 0.776622 0.051472 -0.101486
C103  C     C_R   0.613154 0.885475 0.067568 -0.092252
C104  C     C_R   0.664792 0.932392 0.021364 -0.091452
H54   H     H_    0.666956 0.705593 0.898104 0.126657
H55   H     H_    0.570588 0.630367 0.976729 0.095809
H56   H     H_    0.538778 0.741282 0.086971 0.121268
H57   H     H_    0.599070 0.933955 0.115695 0.139405
H58   H     H_    0.690966 0.016531 0.034653 0.117970
C105  C     C_R   0.813602 0.367014 0.038904 0.028134
C106  C     C_R   0.848564 0.258898 0.055431 -0.095083
C107  C     C_R   0.902384 0.215955 0.010560 -0.129314
C108  C     C_R   0.920860 0.279608 0.948723 -0.102118
C109  C     C_R   0.887181 0.388455 0.932809 -0.092008
C110  C     C_R   0.835407 0.434449 0.978942 -0.090579
H59   H     H_    0.832649 0.206171 0.101613 0.128899
H60   H     H_    0.929115 0.132390 0.023051 0.096471
H61   H     H_    0.961484 0.244961 0.913270 0.118727
H62   H     H_    0.901463 0.437597 0.884854 0.140491
H63   H     H_    0.809335 0.518557 0.965778 0.117828
C111  C     C_R   0.186369 0.365792 0.961169 0.027712
C112  C     C_R   0.151240 0.257669 0.944469 -0.096529
C113  C     C_R   0.097493 0.213880 0.989381 -0.130118
C114  C     C_R   0.079312 0.276617 0.051469 -0.101492
C115  C     C_R   0.113153 0.385469 0.067567 -0.092257
C116  C     C_R   0.164792 0.432387 0.021364 -0.091452
H64   H     H_    0.166956 0.205594 0.898100 0.126658
H65   H     H_    0.070587 0.130367 0.976723 0.095809
H66   H     H_    0.038777 0.241276 0.086967 0.121261
H67   H     H_    0.099068 0.433947 0.115695 0.139398
H68   H     H_    0.190966 0.516526 0.034655 0.117970
Cl1   Cl    Cl    0.983306 0.111945 0.398313 -0.636988
Cl2   Cl    Cl    0.933736 0.088921 0.569858 -0.697392
Cl3   Cl    Cl    0.483622 0.612035 0.398314 -0.636988
Cl4   Cl    Cl    0.433784 0.588913 0.569806 -0.697482

loop_
_geom_bond_atom_site_label_1
_geom_bond_atom_site_label_2
_ccdc_geom_bond_type
Cr6   O6    S    
Cr10  O18   S    
C7    C83   D    
C69   O49   A    
C96   H51   S    
C6    C82   D    
C87   C91   D    
Cr8   O20   S    
Cr8   O52   S    
C14   C18   A    
C35   C36   A    
C8    H24   S    
C30   C34   A    
C19   Cl3   S    
C79   O43   A    
C57   C62   D    
C40   H12   S    
C93   C94   A    
C11   C68   S    
C15   C19   A    
C12   C23   A    
Cr1   O17   S    
C59   C64   D    
C50   C54   S    
C30   H37   S    
C60   C63   D    
C32   C36   A    
C14   C21   A    
C67   O3    A    
C112  C113  A    
C18   Cl2   S    
C48   O36   A    
Cr7   O7    S    
C38   H10   S    
C67   O39   A    
C9    C22   A    
C20   Cl4   S    
C37   H9    S    
C68   O40   A    
C77   O13   A    
C98   H53   S    
Cr12  O40   S    
C73   O5    A    
C11   C24   A    
C31   H40   S    
Cr5   O17   S    
Cr5   O29   S    
C54   H6    S    
C75   O11   A    
C114  C115  A    
C78   O42   A    
C87   H27   S    
C107  H60   S    
Cr3   O23   S    
C99   C104  A    
C106  C107  A    
C32   H39   S    
C65   O1    A    
C85   H25   S    
C57   H18   S    
C46   C82   S    
C1    O25   A    
C94   H49   S    
C36   H44   S    
C39   C55   D    
C14   H34   S    
C29   C33   A    
C43   C105  S    
C96   C97   A    
C40   C56   D    
C71   O51   A    
C17   C18   A    
C103  H57   S    
C73   O9    A    
C23   C24   A    
Cr9   O17   S    
C109  H62   S    
C8    C92   S    
C39   C75   S    
Cr6   O26   S    
Cr7   O31   S    
C61   C62   S    
C2    O22   A    
C52   H48   S    
C72   O52   A    
Cr12  O20   S    
C37   C53   D    
Cr6   O50   S    
C44   C52   D    
C58   C61   D    
C105  C110  A    
C102  H56   S    
C48   O32   A    
C70   O46   A    
C8    C84   D    
C21   C22   A    
C63   C64   S    
C3    C86   S    
C69   O45   A    
C16   H36   S    
C58   C78   S    
C101  H55   S    
C4    O28   A    
Cr9   O33   S    
C1    O21   A    
C41   C49   D    
C103  C104  A    
Cr1   O21   S    
C92   H4    S    
C9    C26   A    
C33   C34   A    
C15   H35   S    
C10   C21   A    
C25   C29   A    
Cr12  O36   S    
C12   C67   S    
C45   C81   S    
C78   O14   A    
C76   O8    A    
C74   O6    A    
C12   C27   A    
C45   O29   A    
C95   C96   A    
C88   C92   D    
C2    C87   S    
Cr11  O35   S    
C99   C100  A    
C90   H2    S    
C47   O31   A    
C86   C90   D    
C59   C79   S    
C102  C103  A    
C74   O10   A    
C85   C89   D    
C94   C95   A    
C86   H26   S    
C35   H43   S    
C4    C85   S    
C51   C55   S    
C100  C101  A    
C6    C90   S    
C27   C31   A    
C70   O50   A    
C3    O27   A    
Cr11  O11   S    
Cr2   O46   S    
Cr5   O5    S    
C82   H30   S    
C60   H19   S    
Cr1   O45   S    
C48   C84   S    
Cr7   O27   S    
C107  C108  A    
C57   C77   S    
C72   O48   A    
C5    C81   D    
C50   H46   S    
C114  H66   S    
Cr5   O25   S    
C105  C106  A    
C38   C54   D    
C28   C32   A    
C16   C20   A    
C116  H68   S    
C7    C91   S    
C97   C98   A    
C108  H61   S    
Cr10  O34   S    
Cr11  O15   S    
C46   O34   A    
Cr9   O13   S    
C6    H22   S    
C106  H59   S    
C112  H64   S    
C33   H41   S    
C42   C50   D    
C41   C72   S    
C100  H54   S    
C10   C25   A    
C3    O23   A    
C15   C24   A    
C65   O37   A    
C26   C30   A    
C43   C70   S    
C39   H11   S    
Cr7   O51   S    
C4    O24   A    
C95   H50   S    
C31   C35   A    
C76   O12   A    
Cr11  O39   S    
C88   H28   S    
C47   O35   A    
Cr8   O28   S    
C27   C28   A    
Cr10  O10   S    
C66   O2    A    
C38   C74   S    
C10   C65   S    
C75   O7    A    
C59   H20   S    
Cr4   O48   S    
C37   C73   S    
C111  C112  A    
C60   C80   S    
C58   H17   S    
Cr3   O43   S    
Cr4   O24   S    
C55   H7    S    
C77   O41   A    
Cr2   O42   S    
C83   H31   S    
C81   H29   S    
Cr2   O22   S    
Cr1   O41   S    
C115  H67   S    
Cr5   O49   S    
Cr8   O8    S    
C68   O4    A    
C44   C111  S    
C113  H65   S    
Cr12  O12   S    
C13   H33   S    
Cr12  O16   S    
C104  H58   S    
C71   O47   A    
C49   H45   S    
Cr6   O30   S    
C16   C23   A    
Cr10  O14   S    
C45   O33   A    
Cr9   O37   S    
C97   H52   S    
C64   H16   S    
C13   C17   A    
C80   O44   A    
C79   O15   A    
C89   H1    S    
C46   O30   A    
C19   C20   A    
Cr9   O9    S    
C25   C26   A    
C115  C116  A    
C61   H13   S    
Cr2   O18   S    
Cr2   O2    S    
C34   H42   S    
Cr11  O19   S    
C43   C51   D    
C101  C102  A    
Cr4   O4    S    
C11   C28   A    
C1    C88   S    
C66   O38   A    
C49   C53   S    
C29   H38   S    
C111  C116  A    
C17   Cl1   S    
C113  C114  A    
Cr10  O38   S    
C56   H8    S    
C13   C22   A    
Cr1   O1    S    
Cr3   O3    S    
C9    C66   S    
C41   C93   S    
C108  C109  A    
Cr8   O32   S    
C62   H14   S    
C42   C99   S    
C110  H63   S    
C93   C98   A    
C51   H47   S    
C47   C83   S    
Cr6   O18   S    
C40   C76   S    
Cr4   O44   S    
Cr7   O19   S    
Cr3   O47   S    
C63   H15   S    
Cr4   O20   S    
C5    H21   S    
C109  C110  A    
C44   C69   S    
C53   H5    S    
C2    O26   A    
C7    H23   S    
Cr3   O19   S    
C80   O16   A    
C5    C89   S    
C52   C56   S    
C42   C71   S    
C84   H32   S    
C91   H3    S    
