data_mof_unit_52899.cif
_audit_creation_date              2012-10-26T19:17:58-0400
_audit_creation_method            fapswitch 2.2
_symmetry_space_group_name_H-M    P1
_symmetry_Int_Tables_number       1
_space_group_crystal_system       triclinic
_cell_length_a                    10.814426
_cell_length_b                    12.303808
_cell_length_c                    13.204816
_cell_angle_alpha                 116.744783
_cell_angle_beta                  77.396503
_cell_angle_gamma                 101.223872
_cell_volume                      1521.83448025

loop_
_atom_site_label
_atom_site_type_symbol
_atom_type_description
_atom_site_fract_x
_atom_site_fract_y
_atom_site_fract_z
_atom_type_partial_charge
C1    C     C_R   0.514116 0.854789 0.286558 0.513808
C2    C     C_R   0.321822 0.228984 0.289837 -0.024484
C3    C     C_R   0.390053 0.142356 0.194793 0.285591
C4    C     C_R   0.737627 0.997403 0.497035 0.521056
C5    C     C_R   0.358281 0.017517 0.167802 -0.037045
C6    C     C_R   0.259535 0.979399 0.236944 -0.082958
C7    C     C_R   0.192008 0.066312 0.333432 0.088111
C8    C     C_R   0.299492 0.283408 0.009865 0.262524
C9    C     C_R   0.448902 0.227984 0.833755 -0.041047
C10   C     C_R   0.625803 0.809520 0.091109 -0.136565
C11   C     C_R   0.662354 0.727088 0.979319 -0.130692
C12   C     C_R   0.626936 0.844394 0.793039 -0.103395
C13   C     C_R   0.607682 0.606043 0.939275 -0.108547
C14   C     C_R   0.511967 0.564906 0.010641 0.047148
C15   C     C_R   0.467173 0.652235 0.121437 0.029568
C16   C     C_R   0.480135 0.145129 0.713287 0.539750
C17   C     C_R   0.458832 0.440325 0.975477 0.012492
C18   C     C_R   0.353959 0.406821 0.046258 0.074965
C19   C     C_R   0.304087 0.497498 0.150259 -0.104244
C20   C     C_R   0.358969 0.617935 0.186746 -0.131139
C21   C     C_R   0.506974 0.347863 0.871452 -0.130379
C22   C     C_R   0.347447 0.194998 0.903911 -0.063313
C23   C     C_R   0.039506 0.959147 0.565678 -0.147074
C24   C     C_R   0.531152 0.772505 0.163899 -0.011811
C25   C     C_R   0.704523 0.346725 0.329116 -0.083714
C26   C     C_R   0.328646 0.761030 0.646958 0.080793
C27   C     C_R   0.292736 0.665658 0.680476 0.203814
C28   C     C_R   0.263141 0.998885 0.497352 0.543503
C29   C     C_R   0.357678 0.561761 0.625335 -0.119269
C30   C     C_R   0.460235 0.552489 0.536097 -0.057163
C31   C     C_R   0.494060 0.653140 0.505498 0.169568
C32   C     C_R   0.530943 0.448052 0.476695 -0.025494
C33   C     C_R   0.634041 0.447305 0.389199 0.041520
C34   C     C_R   0.130283 0.996266 0.491476 -0.026672
C35   C     C_R   0.666157 0.546654 0.361666 -0.157818
C36   C     C_R   0.597831 0.647115 0.418458 -0.079202
C37   C     C_R   0.503790 0.343012 0.499177 0.028597
C38   C     C_R   0.672225 0.246242 0.354787 0.089385
C39   C     C_R   0.646387 0.967131 0.811521 -0.064209
C40   C     C_R   0.743029 0.006323 0.741881 -0.036227
C41   C     C_R   0.819591 0.921921 0.651687 0.052549
C42   C     C_R   0.801508 0.799170 0.635189 -0.074443
C43   C     C_R   0.705352 0.760703 0.705739 -0.107649
C44   C     C_2   0.919734 0.029074 0.312721 0.247520
C45   C     C_R   0.093772 0.028109 0.412602 -0.020462
C46   C     C_R   0.963136 0.020211 0.408583 -0.014138
C47   C     C_R   0.872426 0.991974 0.491208 -0.034669
C48   C     C_R   0.911138 0.958915 0.568315 -0.040791
C49   C     C_R   0.223619 0.191355 0.359365 -0.048320
Cl1   Cl    Cl    0.516586 0.190966 0.111028 -0.675427
Cl2   Cl    Cl    0.166342 0.235852 0.090468 -0.577876
Cl3   Cl    Cl    0.166418 0.676803 0.792432 -0.618017
Cu1   Cu    Cu3+1 0.529370 0.098270 0.475420 0.938343
Cu2   Cu    Cu3+1 0.470630 0.901730 0.524580 0.921744
H1    H     H_    0.550766 0.814092 0.846066 0.132835
H2    H     H_    0.584781 0.031387 0.878131 0.179726
H3    H     H_    0.313255 0.684405 0.265952 0.143796
H4    H     H_    0.725150 0.167646 0.307922 0.155278
H5    H     H_    0.745207 0.546852 0.295118 0.124956
H6    H     H_    0.783343 0.345391 0.262002 0.149615
H7    H     H_    0.426934 0.335180 0.563652 0.123704
H8    H     H_    0.278404 0.841675 0.690071 0.154568
H9    H     H_    0.326440 0.490555 0.654494 0.136488
H10   H     H_    0.630762 0.718462 0.391337 0.182548
H11   H     H_    0.755106 0.101113 0.755305 0.114601
H12   H     H_    0.410982 0.950200 0.094259 0.135385
H13   H     H_    0.858997 0.732703 0.565476 0.116483
H14   H     H_    0.690064 0.665573 0.691380 0.117020
H15   H     H_    0.068998 0.934250 0.625233 0.144995
H16   H     H_    0.173264 0.259483 0.434221 0.124171
H17   H     H_    0.345728 0.325558 0.310584 0.145457
H18   H     H_    0.832204 0.976062 0.281686 0.102634
H19   H     H_    0.237255 0.882791 0.216745 0.103563
H20   H     H_    0.301087 0.101924 0.873839 0.160573
H21   H     H_    0.222192 0.476462 0.204821 0.171126
H22   H     H_    0.588540 0.366257 0.815766 0.127311
H23   H     H_    0.675159 0.901391 0.121958 0.148074
H24   H     H_    0.641185 0.548114 0.851384 0.109365
H25   H     H_    0.736493 0.756327 0.924168 0.154807
N1    N     N_R   0.573890 0.246290 0.438210 -0.243681
N2    N     N_R   0.426890 0.754320 0.561170 -0.264669
O1    O     O_R   0.536940 0.972510 0.318130 -0.510247
O2    O     O_R   0.487330 0.806530 0.359650 -0.522607
O3    O     O_R   0.705160 0.082990 0.479250 -0.502715
O4    O     O_R   0.655550 0.917010 0.520760 -0.508990
O5    O     O_R   0.512670 0.193470 0.640350 -0.499506
O6    O     O_R   0.463060 0.027490 0.681870 -0.506654
O7    O     O_R   0.344450 0.082990 0.479240 -0.502603
O8    O     O_R   0.294840 0.917010 0.520750 -0.514571
O9    O     O_2   0.978878 0.095809 0.268478 -0.460930

loop_
_geom_bond_atom_site_label_1
_geom_bond_atom_site_label_2
_ccdc_geom_bond_type
C29   H9    S    
C27   C29   A    
C41   C42   A    
C23   H15   S    
C19   C20   A    
Cu1   Cu2   S    
C21   H22   S    
C26   C27   A    
Cu1   O3    S    
C7    C45   S    
C9    C16   S    
C12   C43   A    
C5    C6    A    
C9    C22   A    
C35   H5    S    
C18   C19   A    
C38   H4    S    
C3    Cl1   S    
C47   C48   A    
C43   H14   S    
C28   O7    A    
C16   O6    A    
C8    C22   A    
Cu1   O5    S    
C25   H6    S    
C28   C34   S    
C13   C14   A    
C16   O5    A    
C14   C17   A    
Cu2   O2    S    
C10   H23   S    
C44   C46   S    
C15   C20   A    
C37   N1    A    
Cu1   N1    S    
C7    C49   A    
Cu2   O8    S    
C39   C40   A    
C4    O4    A    
C10   C24   A    
C1    O1    A    
C45   C46   A    
C8    C18   A    
Cu1   O1    S    
C35   C36   A    
C29   C30   A    
C2    C49   A    
C25   C38   A    
C39   H2    S    
C4    O3    A    
C23   C34   A    
C17   C18   A    
C34   C45   A    
C32   C37   A    
C8    Cl2   S    
C28   O8    A    
C11   H25   S    
Cu2   O6    S    
C40   C41   A    
C26   N2    A    
C49   H16   S    
C42   H13   S    
C42   C43   A    
C22   H20   S    
C2    H17   S    
C44   O9    D    
C27   Cl3   S    
C6    H19   S    
C46   C47   A    
C15   C24   A    
C23   C48   A    
C14   C15   A    
C5    H12   S    
C3    C5    A    
Cu2   O4    S    
C37   H7    S    
C6    C7    A    
C1    O2    A    
C31   N2    A    
C40   H11   S    
C32   C33   A    
C12   C39   A    
C19   H21   S    
C2    C3    A    
C26   H8    S    
C30   C32   A    
C11   C13   A    
C9    C21   A    
C30   C31   A    
C38   N1    A    
C33   C35   A    
C41   C48   S    
C44   H18   S    
Cu1   O7    S    
C17   C21   A    
C12   H1    S    
C10   C11   A    
C13   H24   S    
C1    C24   S    
C31   C36   A    
C20   H3    S    
C36   H10   S    
Cu2   N2    S    
C25   C33   A    
C4    C47   S    
