data_mof_unit_50616.cif
_audit_creation_date              2012-12-11T17:09:29-0500
_audit_creation_method            fapswitch 2.2
_symmetry_space_group_name_H-M    P1
_symmetry_Int_Tables_number       1
_space_group_crystal_system       triclinic
_cell_length_a                    14.80832
_cell_length_b                    6.933556
_cell_length_c                    13.500498
_cell_angle_alpha                 89.999976
_cell_angle_beta                  99.795471
_cell_angle_gamma                 89.99999
_cell_volume                      1365.9461375

loop_
_atom_site_label
_atom_site_type_symbol
_atom_type_description
_atom_site_fract_x
_atom_site_fract_y
_atom_site_fract_z
_atom_type_partial_charge
O1    O     O_R   0.586930 0.505770 0.416350 -0.541074
O2    O     O_R   0.413070 0.005770 0.583650 -0.541074
O3    O     O_R   0.397900 0.173100 0.389630 -0.535065
O4    O     O_R   0.602100 0.673100 0.610370 -0.535066
C1    C     C_R   0.364295 0.345420 0.362828 0.727811
C2    C     C_R   0.635704 0.845420 0.637172 0.727810
O5    O     O_R   0.585280 0.175870 0.404330 -0.540968
O6    O     O_R   0.414720 0.675870 0.595670 -0.540968
O7    O     O_R   0.601790 0.008380 0.598460 -0.536251
O8    O     O_R   0.398210 0.508380 0.401540 -0.536251
C3    C     C_R   0.614649 0.344747 0.382770 0.708499
C4    C     C_R   0.385351 0.844747 0.617230 0.708498
O9    O     O_3   0.505200 0.340120 0.563670 -0.367438
O10   O     O_3   0.494800 0.840120 0.436330 -0.367438
V1    V     V_3+5 0.499040 0.064180 0.488190 1.438835
V2    V     V_3+5 0.500960 0.564180 0.511810 1.438835
C5    C     C_R   0.318766 0.004722 0.756174 0.070805
C6    C     C_R   0.681236 0.504724 0.243828 0.070811
C7    C     C_R   0.319096 0.852519 0.687973 -0.106191
C8    C     C_R   0.680903 0.352520 0.312027 -0.106193
C9    C     C_R   0.255393 0.702638 0.691299 -0.160272
C10   C     C_R   0.744605 0.202636 0.308700 -0.160271
H1    H     H_    0.253384 0.581388 0.640663 0.110808
H2    H     H_    0.746614 0.081385 0.359334 0.110811
C11   C     C_R   0.189135 0.714704 0.754737 -0.114990
C12   C     C_R   0.810864 0.214703 0.245262 -0.114983
H3    H     H_    0.138406 0.601692 0.751718 0.120518
H4    H     H_    0.861592 0.101690 0.248280 0.120521
C13   C     C_R   0.184754 0.876806 0.816739 -0.148772
C14   C     C_R   0.815245 0.376806 0.183261 -0.148774
C15   C     C_R   0.253456 0.016297 0.819084 0.134787
C16   C     C_R   0.746545 0.516299 0.180918 0.134790
C17   C     C_3   0.245553 0.229436 0.807108 0.231584
C18   C     C_3   0.754452 0.729437 0.192896 0.231580
C19   C     C_3   0.317244 0.216991 0.738746 -0.427628
C20   C     C_3   0.682762 0.716992 0.261259 -0.427634
H5    H     H_    0.176705 0.275012 0.768173 0.060436
H6    H     H_    0.823300 0.775007 0.231832 0.060435
H7    H     H_    0.383837 0.285831 0.769857 0.225204
H8    H     H_    0.616169 0.785839 0.230151 0.225205
H9    H     H_    0.289937 0.253554 0.659155 0.123778
H10   H     H_    0.710070 0.753548 0.340850 0.123776
C21   C     C_1   0.783430 0.877122 0.782929 -0.154746
C22   C     C_1   0.216570 0.377122 0.217071 -0.154744
C23   C     C_1   0.716151 0.860126 0.716865 -0.166820
C24   C     C_1   0.283849 0.360126 0.283135 -0.166818
O11   O     O_R   0.101720 0.231700 0.098560 -0.533920
O12   O     O_R   0.898280 0.731700 0.901440 -0.533920
O13   O     O_R   0.914700 0.558980 0.095690 -0.540562
O14   O     O_R   0.085300 0.058980 0.904310 -0.540562
C25   C     C_R   0.885495 0.389739 0.117391 0.713202
C26   C     C_R   0.114505 0.889739 0.882609 0.713202
O15   O     O_R   0.102080 0.561590 0.110390 -0.539925
O16   O     O_R   0.897920 0.061590 0.889610 -0.539925
O17   O     O_R   0.086950 0.728940 0.916330 -0.527503
O18   O     O_R   0.913050 0.228940 0.083670 -0.527502
C27   C     C_R   0.136093 0.391919 0.137431 0.770686
C28   C     C_R   0.863907 0.891919 0.862568 0.770686
O19   O     O_3   0.994770 0.394510 0.936380 -0.373300
O20   O     O_3   0.005230 0.894510 0.063620 -0.373300
V3    V     V_3+5 0.000970 0.670520 0.011800 1.493871
V4    V     V_3+5 0.999030 0.170520 0.988200 1.493871
Cl1   Cl    Cl    0.285442 0.350925 0.922867 -0.615402
Cl2   Cl    Cl    0.714562 0.850934 0.077139 -0.615403

loop_
_geom_bond_atom_site_label_1
_geom_bond_atom_site_label_2
_ccdc_geom_bond_type
O4    V2    S    
O5    C3    A    
C14   C25   S    
C15   C17   S    
O9    V2    S    
O12   C28   A    
C7    C9    A    
C2    C23   S    
O11   C27   A    
O16   V4    S    
C1    C24   S    
C20   H10   S    
O1    C3    A    
C26   O17   A    
O6    C4    A    
C22   C27   S    
C17   Cl1   S    
O2    C4    A    
C2    O7    A    
O5    V1    S    
O7    V1    S    
O3    V1    S    
C1    O8    A    
C13   C15   A    
O1    V2    S    
O8    V2    S    
O20   V4    S    
C14   C16   A    
O2    V1    S    
C21   C23   T    
O12   V3    S    
C6    C20   S    
O11   V4    S    
C19   H9    S    
O17   V3    S    
C4    C7    S    
C18   Cl2   S    
C12   H4    S    
C17   C19   S    
C18   C20   S    
C8    C10   A    
C12   C14   A    
O18   V4    S    
O9    V1    S    
C9    H1    S    
C11   C13   A    
C19   H7    S    
C5    C15   A    
O10   V2    S    
C3    C8    S    
O19   V3    S    
O14   V4    S    
O13   V3    S    
C20   H8    S    
C6    C16   A    
C6    C8    A    
O4    C2    A    
C25   O18   A    
C10   C12   A    
C10   H2    S    
O16   C28   A    
O14   C26   A    
C9    C11   A    
O10   V1    S    
O19   V4    S    
O15   C27   A    
O6    V2    S    
C5    C19   S    
C21   C28   S    
C5    C7    A    
C18   H6    S    
O15   V3    S    
C13   C26   S    
C17   H5    S    
O13   C25   A    
C22   C24   T    
O20   V3    S    
O3    C1    A    
C11   H3    S    
C16   C18   S    
