data_mof_unit_9447.cif
_audit_creation_date              2012-12-10T17:01:28-0500
_audit_creation_method            fapswitch 2.2
_symmetry_space_group_name_H-M    P1
_symmetry_Int_Tables_number       1
_space_group_crystal_system       triclinic
_cell_length_a                    12.790713
_cell_length_b                    10.028827
_cell_length_c                    10.064992
_cell_angle_alpha                 88.636258
_cell_angle_beta                  99.70714
_cell_angle_gamma                 93.105944
_cell_volume                      1270.59964458

loop_
_atom_site_label
_atom_site_type_symbol
_atom_type_description
_atom_site_fract_x
_atom_site_fract_y
_atom_site_fract_z
_atom_type_partial_charge
C1    C     C_R   0.495752 0.255432 0.501422 0.914385
C2    C     C_2   0.494364 0.107590 0.511706 0.172064
C3    C     C_2   0.491162 0.605640 0.921345 0.418871
C4    C     C_R   0.297635 0.501360 0.470115 1.068437
C5    C     C_2   0.521480 0.604127 0.073989 0.418927
C6    C     C_R   0.522804 0.739839 0.503690 0.842269
C7    C     C_R   0.702899 0.499247 0.529802 0.882545
C8    C     C_R   0.818144 0.501805 0.552236 -0.357065
C9    C     C_R   0.183303 0.502067 0.443010 -0.365749
C10   C     C_R   0.019374 0.590949 0.332457 0.435790
C11   C     C_R   0.130492 0.595115 0.351217 0.164718
C12   C     C_R   0.023950 0.441327 0.529934 -0.201473
C13   C     C_R   0.125863 0.409576 0.512428 0.419579
C14   C     C_R   0.969283 0.532720 0.436933 -0.196769
C15   C     C_R   0.868286 0.567331 0.453014 0.472235
C16   C     C_R   0.876336 0.424870 0.655834 0.285519
C17   C     C_R   0.978484 0.390044 0.640617 0.424354
C18   C     C_2   0.617874 0.955936 0.451794 0.428928
C19   C     C_2   0.615323 0.839516 0.521758 0.193859
C20   C     C_2   0.523724 0.035888 0.413483 -0.362556
H1    H     H_    0.545970 0.428406 0.903544 0.184111
H2    H     H_    0.992276 0.233007 0.752295 0.408329
H3    H     H_    0.220851 0.571223 0.129253 0.396572
H4    H     H_    0.258798 0.109732 0.456297 0.413402
H5    H     H_    0.792890 0.239283 0.377752 0.378675
H6    H     H_    0.689407 0.737743 0.672570 0.367717
H7    H     H_    0.521204 0.084010 0.315230 0.234394
H8    H     H_    0.765584 0.706657 0.417512 0.370062
H9    H     H_    0.490123 0.177442 0.821963 0.400685
H10   H     H_    0.436022 0.781322 0.922013 0.370013
H11   H     H_    0.593158 0.778923 0.070045 0.359191
H12   H     H_    0.296635 0.233234 0.152748 0.405913
H13   H     H_    0.882287 0.301593 0.007335 0.412088
H14   H     H_    0.976107 0.645693 0.966314 0.417024
N1    N     N_2   0.501130 0.501330 0.852280 -0.141774
N2    N     N_2   0.501160 0.501360 0.147950 0.039396
O1    O     O_R   0.499980 0.319060 0.613040 -0.579507
O2    O     O_2   0.392340 0.915356 0.637426 -0.201583
O3    O     O_2   0.574309 0.978843 0.743841 -0.254520
O4    O     O_3   0.425875 0.135483 0.767061 -0.416948
O5    O     O_3   0.449774 0.717317 0.854236 -0.632189
O6    O     O_3   0.572253 0.715291 0.138903 -0.711599
O7    O     O_2   0.333554 0.417732 0.960744 -0.260336
O8    O     O_2   0.471110 0.259250 0.044047 -0.312620
O9    O     O_3   0.336848 0.312940 0.194867 -0.481309
O10   O     O_2   0.782563 0.503260 0.858861 -0.266848
O11   O     O_2   0.739139 0.274816 0.778765 -0.251763
O12   O     O_R   0.500020 0.319100 0.386900 -0.546542
O13   O     O_3   0.920431 0.327286 0.931997 -0.461654
O14   O     O_2   0.845747 0.542196 0.145034 -0.235596
O15   O     O_2   0.915804 0.774386 0.167147 -0.146440
O16   O     O_3   0.017301 0.607254 0.049217 -0.492576
O17   O     O_3   0.037439 0.313799 0.737810 -0.596072
O18   O     O_2   0.132014 0.832879 0.214286 -0.159018
O19   O     O_2   0.289388 0.783592 0.375584 -0.274336
O20   O     O_3   0.257214 0.660070 0.148177 -0.457829
O21   O     O_2   0.237490 0.252034 0.696813 -0.129117
O22   O     O_2   0.085422 0.145741 0.548188 -0.219561
O23   O     O_R   0.346340 0.499960 0.594380 -0.546695
O24   O     O_3   0.255462 0.208087 0.448194 -0.585186
O25   O     O_2   0.795337 0.072236 0.591775 -0.198240
O26   O     O_2   0.811198 0.964891 0.380625 -0.178328
O27   O     O_3   0.721836 0.192379 0.366598 -0.561469
O28   O     O_3   0.706605 0.809999 0.610180 -0.693925
O29   O     O_R   0.346380 0.500000 0.368250 -0.537378
O30   O     O_R   0.499980 0.680900 0.613100 -0.525363
O31   O     O_R   0.500020 0.680940 0.386960 -0.555474
O32   O     O_R   0.653620 0.500000 0.631750 -0.583918
O33   O     O_R   0.653660 0.500040 0.405620 -0.577540
O34   O     O_3   0.821758 0.670467 0.374940 -0.612497
S1    S     S_3+6 0.472774 0.029938 0.667227 0.096768
S2    S     S_3+6 0.410345 0.372635 0.081370 0.118546
S3    S     S_3+6 0.826440 0.381821 0.808120 0.092554
S4    S     S_3+6 0.945313 0.631062 0.171082 0.159725
S5    S     S_3+6 0.202351 0.723374 0.272166 0.140047
S6    S     S_3+6 0.175844 0.249176 0.556019 0.127169
S7    S     S_3+6 0.741300 0.045856 0.449633 0.111660
Zn1   Zn    Zn3+2 0.499980 0.499970 0.650990 1.148215
Zn2   Zn    Zn3+2 0.500020 0.500030 0.349010 1.174622

loop_
_geom_bond_atom_site_label_1
_geom_bond_atom_site_label_2
_ccdc_geom_bond_type
C5    O6    S    
O7    S2    D    
O29   Zn2   S    
O4    S1    S    
H12   O9    S    
O26   S7    D    
O15   S4    D    
O22   S6    D    
C7    C8    S    
C6    C19   S    
O21   S6    D    
H11   O6    S    
C18   C19   D    
O16   S4    S    
O14   S4    D    
C4    O29   A    
H13   O13   S    
C5    N2    D    
C4    O23   A    
C1    C2    S    
H5    O27   S    
H6    O28   S    
C9    C13   A    
C7    O32   A    
O25   S7    D    
C16   C17   A    
C12   C17   A    
H10   O5    S    
C1    O1    A    
O19   S5    D    
C8    C16   A    
O20   S5    S    
O9    S2    S    
O23   Zn1   S    
H2    O17   S    
O32   Zn1   S    
O30   Zn1   S    
C2    C20   D    
C16   S3    S    
H3    O20   S    
O31   Zn2   S    
O11   S3    D    
C10   C14   A    
O24   S6    S    
C13   S6    S    
C3    N1    D    
C19   O28   S    
H4    O24   S    
C9    C11   A    
C6    O31   A    
C12   C14   A    
C8    C15   A    
O13   S3    S    
O33   Zn2   S    
C2    S1    S    
C17   O17   S    
O12   Zn2   S    
O27   S7    S    
C15   O34   S    
O2    S1    D    
C3    O5    S    
H8    O34   S    
C3    C5    S    
N2    Zn2   S    
C7    O33   A    
C1    O12   A    
H1    N1    S    
C20   H7    S    
O1    Zn1   S    
N1    Zn1   S    
H14   O16   S    
C11   S5    S    
C10   S4    S    
C18   S7    S    
H9    O4    S    
O8    S2    D    
C18   C20   S    
C10   C11   A    
O18   S5    D    
C6    O30   A    
C12   C13   A    
O3    S1    D    
C14   C15   A    
C4    C9    S    
O10   S3    D    
N2    S2    S    
