data_mof_unit_63740.cif
_audit_creation_date              2012-12-10T19:04:15-0500
_audit_creation_method            fapswitch 2.2
_symmetry_space_group_name_H-M    P1
_symmetry_Int_Tables_number       1
_space_group_crystal_system       triclinic
_cell_length_a                    30.359225
_cell_length_b                    30.185215
_cell_length_c                    47.223297
_cell_angle_alpha                 89.960438
_cell_angle_beta                  89.965017
_cell_angle_gamma                 89.903881
_cell_volume                      43275.3375552

loop_
_atom_site_label
_atom_site_type_symbol
_atom_type_description
_atom_site_fract_x
_atom_site_fract_y
_atom_site_fract_z
_atom_type_partial_charge
C1    C     C_R   0.086247 0.499962 0.999933 0.982095
C2    C     C_R   0.499951 0.086074 0.999930 0.926453
C3    C     C_R   0.913735 0.500040 0.999984 0.977903
C4    C     C_R   0.500048 0.913921 0.999934 0.926906
C5    C     C_R   0.586268 0.999971 0.499921 0.947293
C6    C     C_R   0.999969 0.586072 0.500016 0.958867
C7    C     C_R   0.413754 0.000020 0.499947 0.947379
C8    C     C_R   0.000036 0.413922 0.499993 0.960002
C9    C     C_R   0.002702 0.501242 0.145473 0.143030
C10   C     C_R   0.500194 0.999709 0.145531 0.139291
C11   C     C_R   0.001751 0.498839 0.854526 0.142830
C12   C     C_R   0.499017 0.999469 0.853961 0.140526
C13   C     C_R   0.499375 0.998912 0.646188 0.140452
C14   C     C_R   0.001158 0.498387 0.645551 0.137321
C15   C     C_R   0.500210 0.999902 0.354481 0.141833
C16   C     C_R   0.001017 0.501205 0.354368 0.136951
C17   C     C_R   0.500022 0.413956 0.000007 0.982939
C18   C     C_R   0.586329 0.500081 0.999976 0.991236
C19   C     C_R   0.499981 0.586047 0.999990 0.982371
C20   C     C_R   0.413663 0.500035 0.000020 0.990705
C21   C     C_R   0.999997 0.913964 0.500011 0.983146
C22   C     C_R   0.086387 0.000090 0.499982 0.987846
C23   C     C_R   0.999990 0.086040 0.499990 0.983549
C24   C     C_R   0.913665 0.999977 0.500018 0.990407
C25   C     C_R   0.202746 0.459083 0.997871 0.380474
C26   C     C_R   0.519879 0.202504 0.977381 0.392300
C27   C     C_R   0.797312 0.541061 0.996876 0.381717
C28   C     C_R   0.479713 0.797557 0.977491 0.392552
C29   C     C_R   0.202568 0.539665 0.003610 0.382291
C30   C     C_R   0.520894 0.797374 0.021947 0.386025
C31   C     C_R   0.797254 0.459759 0.001539 0.380879
C32   C     C_R   0.479537 0.202519 0.022197 0.385901
C33   C     C_R   0.702771 0.959197 0.498441 0.378075
C34   C     C_R   0.019944 0.702498 0.477602 0.388653
C35   C     C_R   0.297268 0.039889 0.496211 0.380397
C36   C     C_R   0.980120 0.297594 0.477566 0.389286
C37   C     C_R   0.702695 0.040365 0.502139 0.382972
C38   C     C_R   0.020549 0.297412 0.522104 0.389109
C39   C     C_R   0.297463 0.959815 0.502650 0.383943
C40   C     C_R   0.979879 0.702454 0.522549 0.388957
C41   C     C_R   0.157129 0.459754 0.996975 -0.167733
C42   C     C_R   0.520598 0.156504 0.977903 -0.204767
C43   C     C_R   0.842958 0.540625 0.996777 -0.167350
C44   C     C_R   0.479050 0.843556 0.978035 -0.205486
C45   C     C_R   0.156891 0.539557 0.003668 -0.163797
C46   C     C_R   0.521600 0.843349 0.021438 -0.154570
C47   C     C_R   0.842900 0.459914 0.002283 -0.166376
C48   C     C_R   0.478741 0.156548 0.021634 -0.154540
C49   C     C_R   0.657122 0.959510 0.497870 -0.173757
C50   C     C_R   0.020960 0.656541 0.478239 -0.163679
C51   C     C_R   0.342931 0.039703 0.496201 -0.172390
C52   C     C_R   0.978864 0.343534 0.478309 -0.164618
C53   C     C_R   0.657037 0.040245 0.502198 -0.185220
C54   C     C_R   0.021568 0.343365 0.521475 -0.162537
C55   C     C_R   0.343099 0.960185 0.503002 -0.188844
C56   C     C_R   0.978883 0.656493 0.521873 -0.164662
C57   C     C_R   0.134068 0.499840 0.000074 -0.142019
C58   C     C_R   0.499794 0.133776 0.999829 -0.151421
C59   C     C_R   0.865878 0.500177 0.999766 -0.143057
C60   C     C_R   0.500199 0.866210 0.999812 -0.151522
C61   C     C_R   0.634130 0.999937 0.499881 -0.157953
C62   C     C_R   0.999911 0.633767 0.500035 -0.158909
C63   C     C_R   0.365936 0.999992 0.499738 -0.160270
C64   C     C_R   0.000131 0.366214 0.499934 -0.159180
C65   C     C_R   0.225777 0.499319 0.000837 -0.077444
C66   C     C_R   0.499767 0.225907 0.999815 -0.085763
C67   C     C_R   0.774172 0.500462 0.999168 -0.078680
C68   C     C_R   0.500263 0.774085 0.999721 -0.086123
C69   C     C_R   0.725831 0.999754 0.500341 -0.079675
C70   C     C_R   0.999912 0.725911 0.500086 -0.090609
C71   C     C_R   0.274311 0.999800 0.499374 -0.078959
C72   C     C_R   0.000365 0.274086 0.499814 -0.089286
C73   C     C_R   0.296579 0.516902 0.023623 -0.091308
C74   C     C_R   0.459819 0.297483 0.001624 -0.084265
C75   C     C_R   0.703794 0.482102 0.022302 -0.094221
C76   C     C_R   0.540317 0.702532 0.000830 -0.084495
C77   C     C_R   0.296337 0.481992 0.977517 -0.094155
C78   C     C_R   0.460009 0.702772 0.998729 -0.079422
C79   C     C_R   0.703228 0.518669 0.976651 -0.091298
C80   C     C_R   0.539934 0.297254 0.998170 -0.079400
C81   C     C_R   0.796481 0.017792 0.523145 -0.097244
C82   C     C_R   0.960208 0.797517 0.502463 -0.081590
C83   C     C_R   0.203904 0.984274 0.523139 -0.098379
C84   C     C_R   0.039832 0.202467 0.501857 -0.080457
C85   C     C_R   0.796436 0.981405 0.477462 -0.090377
C86   C     C_R   0.960661 0.202764 0.497807 -0.081659
C87   C     C_R   0.203639 0.015294 0.475887 -0.088619
C88   C     C_R   0.039688 0.797350 0.497760 -0.081846
C89   C     C_R   0.342160 0.518590 0.023212 0.378863
C90   C     C_R   0.459732 0.343459 0.002344 0.342161
C91   C     C_R   0.658155 0.480852 0.022432 0.378137
C92   C     C_R   0.540432 0.656554 0.001548 0.343017
C93   C     C_R   0.342028 0.480948 0.977361 0.378415
C94   C     C_R   0.459719 0.656772 0.998253 0.340097
C95   C     C_R   0.657576 0.519887 0.977013 0.379325
C96   C     C_R   0.540166 0.343248 0.997603 0.340512
C97   C     C_R   0.842115 0.019084 0.522953 0.379952
C98   C     C_R   0.960174 0.843479 0.503126 0.340841
C99   C     C_R   0.158255 0.983141 0.523385 0.379304
C100  C     C_R   0.039867 0.156489 0.502445 0.339228
C101  C     C_R   0.842091 0.980400 0.477401 0.376368
C102  C     C_R   0.960416 0.156792 0.497363 0.340403
C103  C     C_R   0.158034 0.016903 0.476114 0.378828
C104  C     C_R   0.039772 0.843313 0.497041 0.339268
C105  C     C_R   0.365560 0.499939 0.000139 -0.230118
C106  C     C_R   0.499987 0.366286 0.000012 -0.221796
C107  C     C_R   0.634417 0.500324 0.999840 -0.230436
C108  C     C_R   0.500032 0.633726 0.999954 -0.222124
C109  C     C_R   0.865563 0.999854 0.500104 -0.229298
C110  C     C_R   0.999982 0.866323 0.500049 -0.218373
C111  C     C_R   0.134586 0.000127 0.499877 -0.229194
C112  C     C_R   0.000085 0.133708 0.499957 -0.217297
C113  C     C_R   0.273707 0.499358 0.000688 0.024810
C114  C     C_R   0.499841 0.274303 0.999863 0.022978
C115  C     C_R   0.726250 0.500465 0.999371 0.023793
C116  C     C_R   0.500201 0.725704 0.999735 0.023795
C117  C     C_R   0.773733 0.999639 0.500334 0.026232
C118  C     C_R   0.999936 0.774333 0.500110 0.021817
C119  C     C_R   0.226456 0.999721 0.499432 0.027700
C120  C     C_R   0.000294 0.225686 0.499810 0.021017
C121  C     C_R   0.000029 0.499989 0.055290 1.005442
C122  C     C_R   0.499990 0.999991 0.055257 0.989440
C123  C     C_R   0.000006 0.500008 0.944717 1.002997
C124  C     C_R   0.499991 0.000127 0.944562 0.929079
C125  C     C_R   0.500117 0.999962 0.555508 0.938422
C126  C     C_R   0.999990 0.499993 0.555259 0.990023
C127  C     C_R   0.500043 0.000010 0.444712 1.007398
C128  C     C_R   0.000014 0.500021 0.444732 0.990799
C129  C     C_R   0.032170 0.476346 0.309472 0.539820
C130  C     C_R   0.525868 0.029463 0.309395 0.541020
C131  C     C_R   0.972149 0.527506 0.309122 0.540326
C132  C     C_R   0.474694 0.969938 0.309489 0.540020
C133  C     C_R   0.031128 0.524399 0.690477 0.539257
C134  C     C_R   0.529657 0.973728 0.691097 0.536466
C135  C     C_R   0.973005 0.471047 0.690691 0.539879
C136  C     C_R   0.467649 0.023049 0.690949 0.536114
C137  C     C_R   0.520679 0.965922 0.809233 0.537607
C138  C     C_R   0.025817 0.529976 0.809424 0.538148
C139  C     C_R   0.476241 0.031648 0.809066 0.537663
C140  C     C_R   0.979208 0.466040 0.809631 0.537731
C141  C     C_R   0.531419 0.023807 0.190458 0.539535
C142  C     C_R   0.027023 0.470467 0.190564 0.540786
C143  C     C_R   0.469148 0.975440 0.190547 0.539489
C144  C     C_R   0.980664 0.534007 0.190319 0.540414
C145  C     C_R   0.974205 0.530391 0.279527 -0.028939
C146  C     C_R   0.472293 0.971094 0.279847 -0.029454
C147  C     C_R   0.031479 0.474138 0.279818 -0.029162
C148  C     C_R   0.528366 0.028171 0.279762 -0.029204
C149  C     C_R   0.974460 0.468720 0.720333 -0.028603
C150  C     C_R   0.469160 0.026012 0.720400 -0.025845
C151  C     C_R   0.030418 0.526380 0.720137 -0.028546
C152  C     C_R   0.527552 0.970495 0.720532 -0.026025
C153  C     C_R   0.472839 0.029748 0.779639 -0.026376
C154  C     C_R   0.977135 0.466616 0.779966 -0.029028
C155  C     C_R   0.523680 0.967168 0.779778 -0.026212
C156  C     C_R   0.028205 0.528772 0.779773 -0.028985
C157  C     C_R   0.469950 0.973443 0.220214 -0.029896
C158  C     C_R   0.978072 0.533262 0.219956 -0.029658
C159  C     C_R   0.530716 0.025730 0.220131 -0.030175
C160  C     C_R   0.029434 0.471660 0.220201 -0.029350
C161  C     C_R   0.003122 0.502368 0.264795 -0.011186
C162  C     C_R   0.500348 0.999605 0.264913 -0.011684
C163  C     C_R   0.002548 0.497538 0.735122 -0.012646
C164  C     C_R   0.498279 0.998255 0.735251 -0.014364
C165  C     C_R   0.498230 0.998358 0.764923 -0.014382
C166  C     C_R   0.002663 0.497611 0.764983 -0.011781
C167  C     C_R   0.500351 0.999578 0.235053 -0.010685
C168  C     C_R   0.003578 0.502463 0.234953 -0.011835
C169  C     C_R   0.947839 0.560250 0.264357 -0.122783
C170  C     C_R   0.442772 0.944286 0.264849 -0.123541
C171  C     C_R   0.058511 0.444568 0.264895 -0.123076
C172  C     C_R   0.557894 0.054936 0.264682 -0.123514
C173  C     C_R   0.948243 0.438588 0.735487 -0.122055
C174  C     C_R   0.442214 0.055844 0.735270 -0.123741
C175  C     C_R   0.056953 0.556398 0.735105 -0.122236
C176  C     C_R   0.554261 0.940588 0.735522 -0.123735
C177  C     C_R   0.445099 0.058690 0.764652 -0.123102
C178  C     C_R   0.950275 0.436901 0.764993 -0.123213
C179  C     C_R   0.551277 0.937948 0.764909 -0.123003
C180  C     C_R   0.055153 0.558230 0.764613 -0.123163
C181  C     C_R   0.440935 0.946163 0.235342 -0.122783
C182  C     C_R   0.950638 0.562454 0.234890 -0.124067
C183  C     C_R   0.559729 0.053023 0.235180 -0.122950
C184  C     C_R   0.056636 0.442569 0.235394 -0.123410
C185  C     C_R   0.041852 0.497039 0.129979 -0.101029
C186  C     C_R   0.502563 0.040105 0.130479 -0.097563
C187  C     C_R   0.962535 0.504692 0.130863 -0.104497
C188  C     C_R   0.497653 0.959443 0.130448 -0.097905
C189  C     C_R   0.041380 0.503305 0.869890 -0.102561
C190  C     C_R   0.538351 0.991116 0.868722 -0.116798
C191  C     C_R   0.961514 0.495001 0.869321 -0.103781
C192  C     C_R   0.460124 0.008380 0.869099 -0.116627
C193  C     C_R   0.505823 0.959226 0.631044 -0.119230
C194  C     C_R   0.001806 0.539129 0.630731 -0.097887
C195  C     C_R   0.493519 0.039030 0.631407 -0.119577
C196  C     C_R   0.999811 0.458195 0.630179 -0.097095
C197  C     C_R   0.539940 0.001474 0.369591 -0.102556
C198  C     C_R   0.003258 0.460870 0.369317 -0.098929
C199  C     C_R   0.460432 0.998419 0.369557 -0.102525
C200  C     C_R   0.998234 0.541118 0.369647 -0.097350
C201  C     C_R   0.041048 0.495472 0.100487 0.309176
C202  C     C_R   0.503662 0.040357 0.100970 0.311184
C203  C     C_R   0.961467 0.505099 0.101347 0.309959
C204  C     C_R   0.496365 0.959395 0.100942 0.311458
C205  C     C_R   0.040904 0.504961 0.899386 0.309499
C206  C     C_R   0.538536 0.988712 0.898035 0.335284
C207  C     C_R   0.960775 0.494455 0.898833 0.309859
C208  C     C_R   0.460781 0.011678 0.898355 0.335460
C209  C     C_R   0.509331 0.959717 0.601791 0.334471
C210  C     C_R   0.002791 0.539846 0.601223 0.310719
C211  C     C_R   0.490947 0.039388 0.602102 0.334351
C212  C     C_R   0.997660 0.458606 0.600698 0.310656
C213  C     C_R   0.540041 0.002668 0.399097 0.308999
C214  C     C_R   0.004132 0.460334 0.398845 0.310414
C215  C     C_R   0.460229 0.997350 0.399066 0.309136
C216  C     C_R   0.996427 0.540780 0.399141 0.310160
C217  C     C_R   0.000803 0.500018 0.086089 -0.219319
C218  C     C_R   0.499986 0.999918 0.086093 -0.220369
C219  C     C_R   0.000530 0.499966 0.913930 -0.222251
C220  C     C_R   0.499827 0.000251 0.913444 -0.264599
C221  C     C_R   0.500202 0.999734 0.586664 -0.268385
C222  C     C_R   0.000022 0.499504 0.586095 -0.219778
C223  C     C_R   0.500113 0.000018 0.413912 -0.220193
C224  C     C_R   0.000083 0.500332 0.413875 -0.217228
H1    H     H_    0.925608 0.582516 0.275213 0.206579
H2    H     H_    0.420428 0.922419 0.275859 0.206306
H3    H     H_    0.080392 0.422209 0.275967 0.206556
H4    H     H_    0.580215 0.076837 0.275626 0.206272
H5    H     H_    0.926583 0.415777 0.724611 0.206687
H6    H     H_    0.419829 0.077877 0.724245 0.206421
H7    H     H_    0.078539 0.579145 0.724079 0.206683
H8    H     H_    0.576683 0.918477 0.724591 0.206415
H9    H     H_    0.424825 0.082804 0.775582 0.206508
H10   H     H_    0.930094 0.412861 0.776016 0.206453
H11   H     H_    0.571512 0.913908 0.775937 0.206667
H12   H     H_    0.075425 0.582315 0.775488 0.206405
H13   H     H_    0.417233 0.925666 0.224446 0.207042
H14   H     H_    0.930490 0.586353 0.223842 0.206103
H15   H     H_    0.583412 0.073523 0.224221 0.207094
H16   H     H_    0.077112 0.418718 0.224545 0.206285
H17   H     H_    0.139740 0.428754 0.994091 0.211096
H18   H     H_    0.536292 0.138406 0.960830 0.193959
H19   H     H_    0.860453 0.571998 0.994519 0.211272
H20   H     H_    0.463088 0.861708 0.961096 0.194030
H21   H     H_    0.139298 0.570669 0.006293 0.211274
H22   H     H_    0.537822 0.861311 0.038302 0.221939
H23   H     H_    0.860341 0.428428 0.004599 0.211334
H24   H     H_    0.462760 0.138515 0.038597 0.222480
H25   H     H_    0.639687 0.928044 0.496110 0.215320
H26   H     H_    0.037042 0.638516 0.461308 0.222871
H27   H     H_    0.360353 0.070661 0.493548 0.214869
H28   H     H_    0.962511 0.361617 0.461572 0.221718
H29   H     H_    0.639540 0.071682 0.503999 0.213561
H30   H     H_    0.037860 0.361317 0.538249 0.223933
H31   H     H_    0.360640 0.929278 0.505784 0.213385
H32   H     H_    0.962880 0.638422 0.538815 0.224157
H33   H     H_    0.278826 0.530332 0.041612 0.210486
H34   H     H_    0.428755 0.279766 0.002718 0.210877
H35   H     H_    0.721955 0.467749 0.039852 0.209628
H36   H     H_    0.571432 0.720267 0.001443 0.210464
H37   H     H_    0.278303 0.468364 0.959728 0.209296
H38   H     H_    0.428955 0.720690 0.998058 0.211606
H39   H     H_    0.720937 0.532879 0.958851 0.210553
H40   H     H_    0.570940 0.279354 0.997016 0.212005
H41   H     H_    0.778585 0.031830 0.540895 0.206450
H42   H     H_    0.929286 0.779852 0.504027 0.211650
H43   H     H_    0.221991 0.972276 0.541373 0.205572
H44   H     H_    0.070583 0.220133 0.503206 0.211385
H45   H     H_    0.778477 0.967190 0.459829 0.209748
H46   H     H_    0.929999 0.220669 0.496388 0.211209
H47   H     H_    0.221534 0.027240 0.457534 0.209840
H48   H     H_    0.070581 0.779549 0.496222 0.211316
N1    N     N_R   0.001767 0.501686 0.323745 -0.334561
N2    N     N_R   0.500259 0.999763 0.323873 -0.334208
N3    N     N_R   0.001818 0.497880 0.676160 -0.334877
N4    N     N_R   0.498857 0.998520 0.676650 -0.334290
N5    N     N_R   0.498613 0.998987 0.823512 -0.334739
N6    N     N_R   0.002328 0.498238 0.823936 -0.335771
N7    N     N_R   0.500277 0.999621 0.176113 -0.335920
N8    N     N_R   0.003623 0.501982 0.176046 -0.334767
O1    O     O_R   0.065440 0.536920 0.000020 -0.616958
O2    O     O_R   0.463080 0.065440 0.000020 -0.602302
O3    O     O_R   0.934560 0.463080 0.000020 -0.617216
O4    O     O_R   0.536920 0.934560 0.000020 -0.602837
O5    O     O_R   0.065440 0.463080 0.999980 -0.617066
O6    O     O_R   0.463080 0.934560 0.999980 -0.601034
O7    O     O_R   0.934560 0.536920 0.999980 -0.617922
O8    O     O_R   0.536920 0.065440 0.999980 -0.601018
O9    O     O_R   0.565440 0.036920 0.500020 -0.617938
O10   O     O_R   0.963080 0.565440 0.500020 -0.603521
O11   O     O_R   0.434560 0.963080 0.500020 -0.617389
O12   O     O_R   0.036920 0.434560 0.500020 -0.604218
O13   O     O_R   0.565440 0.963080 0.499980 -0.612974
O14   O     O_R   0.963080 0.434560 0.499980 -0.604614
O15   O     O_R   0.434560 0.036920 0.499980 -0.613170
O16   O     O_R   0.036920 0.565440 0.499980 -0.605196
O17   O     O_R   0.999940 0.536930 0.041940 -0.596381
O18   O     O_R   0.463070 0.999940 0.041940 -0.595000
O19   O     O_R   0.000060 0.463070 0.041940 -0.595898
O20   O     O_R   0.536930 0.000060 0.041940 -0.595157
O21   O     O_R   0.999940 0.463070 0.958060 -0.596767
O22   O     O_R   0.463070 0.000060 0.958060 -0.571743
O23   O     O_R   0.000060 0.536930 0.958060 -0.596025
O24   O     O_R   0.536930 0.999940 0.958060 -0.571076
O25   O     O_R   0.499940 0.036930 0.541940 -0.570363
O26   O     O_R   0.963070 0.499940 0.541940 -0.596608
O27   O     O_R   0.500060 0.963070 0.541940 -0.571359
O28   O     O_R   0.036930 0.500060 0.541940 -0.597610
O29   O     O_R   0.499940 0.963070 0.458060 -0.594344
O30   O     O_R   0.963070 0.500060 0.458060 -0.596508
O31   O     O_R   0.500060 0.036930 0.458060 -0.594578
O32   O     O_R   0.036930 0.499940 0.458060 -0.596800
O33   O     O_R   0.499970 0.434520 0.023700 -0.588720
O34   O     O_R   0.565480 0.499970 0.023700 -0.574767
O35   O     O_R   0.500030 0.565480 0.023700 -0.588980
O36   O     O_R   0.434520 0.500030 0.023700 -0.574358
O37   O     O_R   0.499970 0.565480 0.976300 -0.588992
O38   O     O_R   0.565480 0.500030 0.976300 -0.574784
O39   O     O_R   0.500030 0.434520 0.976300 -0.588887
O40   O     O_R   0.434520 0.499970 0.976300 -0.574456
O41   O     O_R   0.999970 0.934520 0.523700 -0.589384
O42   O     O_R   0.065480 0.999970 0.523700 -0.572662
O43   O     O_R   0.000030 0.065480 0.523700 -0.587904
O44   O     O_R   0.934520 0.000030 0.523700 -0.574067
O45   O     O_R   0.999970 0.065480 0.476300 -0.589328
O46   O     O_R   0.065480 0.000030 0.476300 -0.572947
O47   O     O_R   0.000030 0.934520 0.476300 -0.587551
O48   O     O_R   0.934520 0.999970 0.476300 -0.574456
O49   O     O_2   0.063466 0.453781 0.323818 -0.523218
O50   O     O_2   0.548318 0.060680 0.323518 -0.525849
O51   O     O_2   0.940264 0.549787 0.323037 -0.523663
O52   O     O_2   0.452153 0.938721 0.323717 -0.525087
O53   O     O_2   0.061265 0.548522 0.676138 -0.524018
O54   O     O_2   0.562701 0.952662 0.677134 -0.524268
O55   O     O_2   0.942508 0.447098 0.676604 -0.524097
O56   O     O_2   0.434890 0.044251 0.676809 -0.524291
O57   O     O_2   0.539338 0.931594 0.823399 -0.521530
O58   O     O_2   0.046298 0.563139 0.823547 -0.523119
O59   O     O_2   0.457795 0.066306 0.823025 -0.521483
O60   O     O_2   0.958638 0.433147 0.823993 -0.522673
O61   O     O_2   0.563352 0.045675 0.176118 -0.521811
O62   O     O_2   0.047330 0.437584 0.176476 -0.525282
O63   O     O_2   0.437080 0.953721 0.176306 -0.521848
O64   O     O_2   0.960758 0.566780 0.175937 -0.524624
Zn1   Zn    Zn3+2 0.000000 0.549320 0.000000 1.097153
Zn2   Zn    Zn3+2 0.450680 0.000000 0.000000 1.119511
Zn3   Zn    Zn3+2 0.000000 0.450680 0.000000 1.097108
Zn4   Zn    Zn3+2 0.549320 0.000000 0.000000 1.119340
Zn5   Zn    Zn3+2 0.500000 0.049320 0.500000 1.115435
Zn6   Zn    Zn3+2 0.950680 0.500000 0.500000 1.098991
Zn7   Zn    Zn3+2 0.500000 0.950680 0.500000 1.115618
Zn8   Zn    Zn3+2 0.049320 0.500000 0.500000 1.097918
Zn9   Zn    Zn3+2 0.500000 0.500000 0.031630 1.181468
Zn10  Zn    Zn3+2 0.500000 0.500000 0.968370 1.181296
Zn11  Zn    Zn3+2 0.000000 0.000000 0.531630 1.183829
Zn12  Zn    Zn3+2 0.000000 0.000000 0.468370 1.184054
H49   H     H_    0.073103 0.494916 0.140841 0.211137
H50   H     H_    0.503774 0.071519 0.141717 0.212637
H51   H     H_    0.932035 0.507378 0.142500 0.209514
H52   H     H_    0.496421 0.927990 0.141651 0.212619
H53   H     H_    0.072777 0.505589 0.858928 0.211085
H54   H     H_    0.569036 0.985174 0.857365 0.214977
H55   H     H_    0.930590 0.492240 0.857899 0.210566
H56   H     H_    0.429131 0.014008 0.858069 0.215336
H57   H     H_    0.509398 0.927662 0.642071 0.216212
H58   H     H_    0.001930 0.570451 0.642158 0.214802
H59   H     H_    0.489621 0.070285 0.642747 0.215679
H60   H     H_    0.000139 0.426455 0.641156 0.215371
H61   H     H_    0.570944 0.001924 0.358410 0.211626
H62   H     H_    0.004653 0.429707 0.358023 0.214213
H63   H     H_    0.429436 0.997934 0.358367 0.211534
H64   H     H_    0.997343 0.572673 0.358623 0.214467
Cl1   Cl    Cl    0.091120 0.488330 0.082111 -0.552589
Cl2   Cl    Cl    0.509560 0.091833 0.083245 -0.557799
Cl3   Cl    Cl    0.910372 0.511819 0.084050 -0.549247
Cl4   Cl    Cl    0.490291 0.908075 0.083183 -0.557888
Cl5   Cl    Cl    0.091458 0.512761 0.917590 -0.550219
Cl6   Cl    Cl    0.587942 0.968705 0.913616 -0.490312
Cl7   Cl    Cl    0.909526 0.487185 0.916350 -0.547350
Cl8   Cl    Cl    0.411991 0.032652 0.914239 -0.490528
Cl9   Cl    Cl    0.527610 0.909300 0.586031 -0.491213
Cl10  Cl    Cl    0.007542 0.591742 0.583824 -0.559289
Cl11  Cl    Cl    0.473702 0.090417 0.586642 -0.491259
Cl12  Cl    Cl    0.992013 0.407432 0.582675 -0.560961
Cl13  Cl    Cl    0.590746 0.007217 0.416947 -0.547317
Cl14  Cl    Cl    0.010386 0.409021 0.416372 -0.558196
Cl15  Cl    Cl    0.409428 0.992885 0.416885 -0.546867
Cl16  Cl    Cl    0.989853 0.591667 0.417014 -0.561273
Cl17  Cl    Cl    0.229577 0.406956 0.996527 -0.483634
Cl18  Cl    Cl    0.542781 0.229304 0.947627 -0.505100
Cl19  Cl    Cl    0.770594 0.593226 0.995012 -0.485270
Cl20  Cl    Cl    0.456095 0.770817 0.947976 -0.505328
Cl21  Cl    Cl    0.229217 0.591378 0.005754 -0.486594
Cl22  Cl    Cl    0.544468 0.770464 0.051468 -0.485562
Cl23  Cl    Cl    0.770396 0.407735 0.002319 -0.484454
Cl24  Cl    Cl    0.456650 0.229256 0.051990 -0.485139
Cl25  Cl    Cl    0.729664 0.907183 0.498053 -0.486359
Cl26  Cl    Cl    0.042255 0.729075 0.447580 -0.485432
Cl27  Cl    Cl    0.270140 0.091228 0.493287 -0.487806
Cl28  Cl    Cl    0.958151 0.271125 0.447665 -0.486643
Cl29  Cl    Cl    0.729476 0.092150 0.503454 -0.489265
Cl30  Cl    Cl    0.042769 0.270716 0.551920 -0.486201
Cl31  Cl    Cl    0.270644 0.908434 0.505529 -0.490453
Cl32  Cl    Cl    0.957566 0.728981 0.552594 -0.484034
Cl33  Cl    Cl    0.367540 0.546783 0.051544 -0.445377
Cl34  Cl    Cl    0.408872 0.371564 0.006127 -0.490031
Cl35  Cl    Cl    0.633032 0.452299 0.050763 -0.447196
Cl36  Cl    Cl    0.591455 0.628463 0.004583 -0.488526
Cl37  Cl    Cl    0.367436 0.453271 0.948714 -0.447459
Cl38  Cl    Cl    0.408591 0.628928 0.995433 -0.488043
Cl39  Cl    Cl    0.631728 0.548532 0.948933 -0.445518
Cl40  Cl    Cl    0.591086 0.371106 0.993862 -0.487823
Cl41  Cl    Cl    0.867541 0.047355 0.551285 -0.449014
Cl42  Cl    Cl    0.909825 0.871579 0.507751 -0.491956
Cl43  Cl    Cl    0.133237 0.958056 0.553329 -0.450298
Cl44  Cl    Cl    0.090242 0.128359 0.506148 -0.495245
Cl45  Cl    Cl    0.867562 0.952351 0.448912 -0.448462
Cl46  Cl    Cl    0.909931 0.129065 0.493694 -0.491088
Cl47  Cl    Cl    0.132832 0.042703 0.446621 -0.446405
Cl48  Cl    Cl    0.090161 0.871206 0.492471 -0.494803

loop_
_geom_bond_atom_site_label_1
_geom_bond_atom_site_label_2
_ccdc_geom_bond_type
C124  C220  S    
C190  H54   S    
C37   C69   A    
C54   H30   S    
C189  C205  A    
C133  C151  A    
C102  Cl46  S    
C128  C224  S    
C47   H23   S    
C21   C110  S    
C136  N4    A    
C31   C67   A    
C23   C112  S    
C76   H36   S    
C45   C57   A    
C77   H37   S    
C98   C110  A    
C32   C66   A    
C123  O21   A    
C131  N1    A    
C17   O33   A    
C21   O47   A    
C15   C197  A    
C73   H33   S    
C197  H61   S    
C74   C114  A    
C81   C117  A    
C209  C221  A    
C186  C202  A    
C83   C119  A    
C136  O56   S    
C34   Cl26  S    
C43   H19   S    
O38   Zn10  S    
C102  C112  A    
C190  C206  A    
C176  C179  A    
C137  O57   S    
C122  O18   A    
C33   C69   A    
C46   C60   A    
C19   C108  S    
C14   C194  A    
C35   C71   A    
O23   Zn1   S    
C42   C58   A    
C77   C113  A    
C38   C72   A    
C127  O29   A    
C203  C217  A    
C84   C100  A    
C91   C107  A    
C141  N7    A    
O36   Zn9   S    
C25   C41   A    
C42   H18   S    
C35   Cl27  S    
O42   Zn11  S    
C216  C224  A    
C131  O51   S    
C156  C166  A    
O14   Zn6   S    
C85   C117  A    
C174  C177  A    
O41   Zn11  S    
C68   C116  S    
C87   C103  A    
C87   H47   S    
C13   C193  A    
C32   Cl24  S    
C170  H2    S    
C35   C51   A    
C56   C62   A    
C75   C115  A    
C82   C118  A    
C198  C214  A    
C16   C198  A    
O48   Zn12  S    
C206  C220  A    
C65   C113  S    
C139  N5    A    
C98   Cl42  S    
O9    Zn5   S    
C92   Cl36  S    
O11   Zn7   S    
C20   O36   A    
C23   O43   A    
O1    Zn1   S    
C71   C119  S    
C148  C162  A    
C74   C90   A    
C89   Cl33  S    
C73   C89   A    
C48   H24   S    
C194  H58   S    
C104  C110  A    
C156  C180  A    
C145  C161  A    
C155  C165  A    
C55   H31   S    
C135  N3    A    
C160  C168  A    
O21   Zn3   S    
C169  C182  A    
C129  C147  A    
C40   Cl32  S    
C47   C59   A    
C196  C212  A    
C180  H12   S    
C135  O55   S    
C204  C218  A    
C39   C71   A    
C209  Cl9   S    
C33   C49   A    
C184  H16   S    
C6    O10   A    
C176  H8    S    
C1    O1    A    
C210  C222  A    
C79   C115  A    
C213  C223  A    
C100  Cl44  S    
C10   C186  A    
C94   Cl38  S    
C212  C222  A    
C76   C116  A    
C137  N5    A    
C40   C70   A    
C199  C215  A    
C28   C68   A    
C78   C94   A    
O39   Zn10  S    
C205  Cl5   S    
C185  C201  A    
C211  C221  A    
C189  H53   S    
C137  C155  A    
C195  H59   S    
C23   O45   A    
C21   O41   A    
C188  H52   S    
C53   C61   A    
C141  C159  A    
C159  C167  A    
C55   C63   A    
C212  Cl12  S    
C10   C188  A    
C9    N8    S    
C10   N7    S    
C29   Cl21  S    
C11   N6    S    
C103  Cl47  S    
C36   C52   A    
C43   C59   A    
C37   C53   A    
C101  Cl45  S    
C99   C111  A    
C28   Cl20  S    
C138  N6    A    
C81   H41   S    
C78   H38   S    
C72   C120  S    
C204  Cl4   S    
O34   Zn9   S    
C88   C104  A    
O46   Zn12  S    
C95   Cl39  S    
C74   H34   S    
C153  C177  A    
C134  O54   S    
O30   Zn6   S    
C82   C98   A    
C26   C66   A    
C46   H22   S    
C196  H60   S    
C142  N8    A    
C178  H10   S    
C188  C204  A    
O19   Zn3   S    
C41   H17   S    
C127  O31   A    
C87   C119  A    
C1    C57   S    
C194  C210  A    
C97   C109  A    
O12   Zn8   S    
O33   Zn9   S    
C4    C60   S    
C5    C61   S    
O4    Zn4   S    
C191  C207  A    
C52   H28   S    
C7    C63   S    
C173  H5    S    
C8    C64   S    
C29   C65   A    
C75   H35   S    
C192  H56   S    
C205  C219  A    
C56   H32   S    
C13   C195  A    
C202  Cl2   S    
C50   H26   S    
C88   C118  A    
C86   C102  A    
O5    Zn3   S    
C142  O62   S    
C140  O60   S    
C181  H13   S    
C123  C219  S    
C22   O42   A    
C139  O59   S    
C121  C217  S    
C30   C46   A    
C78   C116  A    
C175  C180  A    
O43   Zn11  S    
C25   Cl17  S    
C19   O35   A    
C202  C218  A    
O13   Zn7   S    
O44   Zn11  S    
C17   C106  S    
C172  C183  A    
O8    Zn4   S    
C8    O14   A    
C173  C178  A    
C70   C118  S    
O35   Zn9   S    
C200  C216  A    
O28   Zn8   S    
C11   C191  A    
C125  O25   A    
C27   C67   A    
C31   C47   A    
C208  Cl8   S    
C153  C165  A    
C150  C164  A    
C86   C120  A    
O25   Zn5   S    
C144  C158  A    
C12   N5    S    
C198  H62   S    
C36   C72   A    
C211  Cl11  S    
C97   Cl41  S    
C20   O40   A    
O17   Zn1   S    
C133  N3    A    
O29   Zn7   S    
C79   H39   S    
C200  H64   S    
C129  N1    A    
C80   H40   S    
C187  H51   S    
C157  C167  A    
C1    O5    A    
C158  C168  A    
C2    O2    A    
C3    O7    A    
C146  C162  A    
C44   H20   S    
C157  C181  A    
C164  C165  A    
C139  C153  A    
C101  C109  A    
C187  C203  A    
C73   C113  A    
C84   H44   S    
C103  C111  A    
C85   H45   S    
C85   C101  A    
C14   C196  A    
C7    O11   A    
C39   C55   A    
C155  C179  A    
C40   C56   A    
C121  O17   A    
C215  Cl15  S    
C130  N2    A    
C34   C70   A    
O20   Zn4   S    
O31   Zn5   S    
C49   H25   S    
C93   Cl37  S    
C36   Cl28  S    
C83   C99   A    
C17   O39   A    
C91   Cl35  S    
C32   C48   A    
C53   H29   S    
C19   O37   A    
C12   C192  A    
C18   O34   A    
C145  C169  A    
C49   C61   A    
C171  C184  A    
C163  C166  A    
C151  C175  A    
C90   C106  A    
C52   C64   A    
C31   Cl23  S    
C39   Cl31  S    
C216  Cl16  S    
C210  Cl10  S    
C37   Cl29  S    
C4    O6    A    
C5    O9    A    
C11   C189  A    
C125  O27   A    
C18   O38   A    
C79   C95   A    
C186  H50   S    
C5    O13   A    
C38   C54   A    
C84   C120  A    
C134  C152  A    
C51   C63   A    
C82   H42   S    
C95   C107  A    
C171  H3    S    
C100  C112  A    
C125  C221  S    
C154  C178  A    
C147  C161  A    
C169  H1    S    
C45   H21   S    
C197  C213  A    
C2    O8    A    
C20   C105  S    
C66   C114  S    
C207  Cl7   S    
C24   C109  S    
O10   Zn6   S    
C2    C58   S    
C48   C58   A    
C201  C217  A    
O2    Zn2   S    
C16   C200  A    
C132  C146  A    
C6    C62   S    
C41   C57   A    
C172  H4    S    
C193  H57   S    
C44   C60   A    
C77   C93   A    
C121  O19   A    
C140  N6    A    
C22   O46   A    
C147  C171  A    
C122  O20   A    
C26   C42   A    
C124  O22   A    
C191  H55   S    
O45   Zn12  S    
C27   C43   A    
O24   Zn4   S    
C29   C45   A    
C154  C166  A    
C141  O61   S    
C33   Cl25  S    
C30   C68   A    
O27   Zn7   S    
C208  C220  A    
C26   Cl18  S    
C24   O44   A    
C134  N4    A    
O37   Zn10  S    
O6    Zn2   S    
C129  O49   S    
C126  O28   A    
C94   C108  A    
C54   C64   A    
C30   Cl22  S    
C126  O26   A    
C9    C185  A    
C206  Cl6   S    
C6    O16   A    
C132  O52   S    
C128  O30   A    
C24   O48   A    
C144  O64   S    
C67   C115  S    
C18   C107  S    
O15   Zn5   S    
C13   N4    S    
C93   C105  A    
C14   N3    S    
C88   H48   S    
C214  Cl14  S    
O7    Zn1   S    
C130  O50   S    
C104  Cl48  S    
C28   C44   A    
O3    Zn3   S    
C149  C163  A    
C80   C96   A    
C51   H27   S    
C127  C223  S    
C183  H15   S    
O40   Zn10  S    
C192  C208  A    
C96   Cl40  S    
O16   Zn8   S    
C92   C108  A    
C143  C157  A    
C4    O4    A    
C34   C50   A    
C175  H7    S    
C130  C148  A    
C25   C65   A    
C86   H46   S    
C179  H11   S    
C7    O15   A    
C185  H49   S    
O26   Zn6   S    
C177  H9    S    
C135  C149  A    
O18   Zn2   S    
C15   N2    S    
C123  O23   A    
C195  C211  A    
C124  O24   A    
C99   Cl43  S    
C15   C199  A    
C193  C209  A    
C90   Cl34  S    
C132  N2    A    
C143  N7    A    
C144  N8    A    
C158  C182  A    
C152  C164  A    
C214  C224  A    
C76   C92   A    
C150  C174  A    
C80   C114  A    
C151  C163  A    
C146  C170  A    
C170  C181  A    
C50   C62   A    
C201  Cl1   S    
C89   C105  A    
C203  Cl3   S    
C182  H14   S    
C8    O12   A    
C138  C156  A    
O32   Zn8   S    
C96   C106  A    
C38   Cl30  S    
C122  C218  S    
C138  O58   S    
C142  C160  A    
C16   N1    S    
C9    C187  A    
C215  C223  A    
C136  C150  A    
C126  C222  S    
O22   Zn2   S    
C75   C91   A    
C199  H63   S    
C12   C190  A    
O47   Zn12  S    
C207  C219  A    
C128  O32   A    
C213  Cl13  S    
C83   H43   S    
C27   Cl19  S    
C81   C97   A    
C69   C117  S    
C148  C172  A    
C149  C173  A    
C161  C168  A    
C133  O53   S    
C162  C167  A    
C152  C176  A    
C3    O3    A    
C143  O63   S    
C22   C111  S    
C174  H6    S    
C159  C183  A    
C160  C184  A    
C140  C154  A    
C131  C145  A    
C3    C59   S    
