data_mof_unit_58800.cif
_audit_creation_date              2013-03-05T15:43:08-0500
_audit_creation_method            fapswitch 2.2
_symmetry_space_group_name_H-M    P1
_symmetry_Int_Tables_number       1
_space_group_crystal_system       triclinic
_cell_length_a                    6.941947
_cell_length_b                    14.004342
_cell_length_c                    17.91417
_cell_angle_alpha                 113.363691
_cell_angle_beta                  95.527653
_cell_angle_gamma                 90.303088
_cell_volume                      1589.53300213

loop_
_atom_site_label
_atom_site_type_symbol
_atom_site_description
_atom_site_fract_x
_atom_site_fract_y
_atom_site_fract_z
_atom_type_partial_charge
O1    O     O_R   0.484560 0.544530 0.414330 -0.567867
O2    O     O_R   0.197040 0.638810 0.585080 -0.552719
O3    O     O_R   0.026800 0.455470 0.585670 -0.549554
C1    C     C_R   0.373341 0.681412 0.607019 0.853860
O4    O     O_R   0.155000 0.556150 0.414940 -0.571752
O5    O     O_R   0.984450 0.372220 0.414320 -0.561921
C2    C     C_R   0.317804 0.564701 0.386839 0.807795
O6    O     O_R   0.526900 0.627780 0.585680 -0.559597
O7    O     O_3   0.339170 0.439750 0.499990 -0.266099
V1    V     V_3+5 0.064350 0.511180 0.500000 1.146292
O8    O     O_R   0.654880 0.361190 0.414920 -0.546867
C3    C     C_R   0.816875 0.324523 0.386377 0.892791
O9    O     O_R   0.696930 0.443850 0.585060 -0.554612
C4    C     C_R   0.873438 0.430897 0.610684 0.913615
V2    V     V_3+5 0.564340 0.488820 0.500000 1.159591
O10   O     O_3   0.839390 0.560250 0.500010 -0.300339
C5    C     C_R   0.039909 0.862339 0.823390 -0.097489
C6    C     C_R   0.906842 0.389430 0.675083 -0.173751
C7    C     C_R   0.915033 0.818534 0.682380 -0.093577
C8    C     C_R   0.971774 0.788403 0.745998 -0.013686
C9    C     C_R   0.050085 0.968628 0.836401 -0.150975
C10   C     C_R   0.991360 0.001836 0.771866 0.067975
C11   C     C_R   0.922974 0.923707 0.694604 0.044861
C12   C     C_R   0.995424 0.108968 0.780999 0.036428
C13   C     C_R   0.933692 0.135737 0.712545 0.029144
C14   C     C_R   0.855205 0.053703 0.639607 -0.054934
C15   C     C_R   0.855328 0.950606 0.630261 -0.122237
C16   C     C_R   0.055455 0.190062 0.856894 -0.092039
C17   C     C_R   0.058500 0.292974 0.866529 -0.097131
C18   C     C_R   0.006724 0.320634 0.800897 0.020021
C19   C     C_R   0.945451 0.243610 0.721352 -0.020226
C20   C     C_R   0.018901 0.426561 0.815780 -0.063751
C21   C     C_R   0.968928 0.460350 0.753991 -0.127937
C22   C     C_R   0.901027 0.280711 0.656686 0.287171
H1    H     H_    0.794369 0.891096 0.572330 0.080327
H2    H     H_    0.980026 0.542945 0.767811 0.134117
H3    H     H_    0.105449 0.352254 0.926678 0.083991
H4    H     H_    0.861079 0.759168 0.623369 0.110389
H5    H     H_    0.959569 0.706678 0.734875 0.123437
H6    H     H_    0.100995 0.022690 0.897420 0.039733
H7    H     H_    0.780171 0.065517 0.589226 0.158728
H8    H     H_    0.100702 0.176818 0.911016 0.069744
H9    H     H_    0.067588 0.484328 0.876295 0.114554
H10   H     H_    0.113845 0.224305 0.308343 0.115613
H11   H     H_    0.833726 0.035239 0.192697 0.112780
C23   C     C_2   0.135621 0.037834 0.183717 -0.207910
C24   C     C_2   0.972314 0.078329 0.216367 -0.083042
H12   H     H_    0.674284 0.177602 0.294271 0.068096
C25   C     C_2   0.812429 0.221077 0.318128 -0.182328
C26   C     C_2   0.975395 0.181009 0.284925 -0.077666
H13   H     H_    0.273862 0.081147 0.207791 0.064063
C27   C     C_R   0.406031 0.789025 0.675125 -0.185977
C28   C     C_R   0.540352 0.468539 0.827276 -0.114319
C29   C     C_R   0.521129 0.891941 0.817546 -0.115493
C30   C     C_R   0.467373 0.797004 0.753602 0.354417
C31   C     C_R   0.395988 0.882854 0.662770 -0.176394
C32   C     C_R   0.446832 0.983367 0.728926 0.060981
C33   C     C_R   0.510398 0.986072 0.807675 -0.024127
C34   C     C_R   0.439856 0.080608 0.719535 0.022848
C35   C     C_R   0.492296 0.177874 0.788326 0.010091
C36   C     C_R   0.551997 0.175060 0.864344 -0.081584
C37   C     C_R   0.562594 0.081713 0.875598 0.053519
C38   C     C_R   0.386713 0.083565 0.642832 -0.099397
C39   C     C_R   0.390759 0.176257 0.632656 -0.029780
C40   C     C_R   0.438494 0.270771 0.698595 0.021663
C41   C     C_R   0.488390 0.275297 0.778375 0.062407
C42   C     C_R   0.441697 0.360730 0.683662 -0.080931
C43   C     C_R   0.499747 0.456055 0.745755 -0.044387
C44   C     C_R   0.533212 0.377092 0.843410 -0.137280
H14   H     H_    0.561931 0.388234 0.906553 0.041248
H15   H     H_    0.518876 0.517819 0.726673 0.182782
H16   H     H_    0.358828 0.173708 0.571524 0.166307
H17   H     H_    0.569147 0.889659 0.875907 0.127635
H18   H     H_    0.350168 0.874462 0.601279 0.068433
H19   H     H_    0.594816 0.246162 0.915689 0.080681
H20   H     H_    0.346708 0.014906 0.588256 0.097254
H21   H     H_    0.406104 0.356813 0.622245 0.141938
H22   H     H_    0.613053 0.590379 0.306646 0.090098
C45   C     C_2   0.313069 0.601333 0.319862 -0.187611
C46   C     C_2   0.473384 0.609890 0.284878 -0.155544
H23   H     H_    0.767505 0.639437 0.208349 0.092376
C47   C     C_2   0.629112 0.656885 0.183890 -0.276688
C48   C     C_2   0.464802 0.645537 0.216584 0.336311
H24   H     H_    0.173047 0.620820 0.298582 0.128502
O11   O     O_R   0.421600 0.630430 0.917010 -0.519465
O12   O     O_R   0.793840 0.702190 0.087630 -0.520568
O13   O     O_R   0.964010 0.886170 0.088190 -0.565988
C49   C     C_R   0.630218 0.693379 0.116064 0.853722
O14   O     O_R   0.751460 0.619510 0.917500 -0.545528
O15   O     O_R   0.921330 0.802900 0.916840 -0.537711
C50   C     C_R   0.574530 0.577109 0.894322 0.902111
O16   O     O_R   0.464290 0.713700 0.088350 -0.524252
O17   O     O_3   0.609200 0.818520 0.002630 -0.292297
V3    V     V_3+5 0.884140 0.747190 0.002530 1.212245
O18   O     O_R   0.251150 0.814630 0.917340 -0.543114
C51   C     C_R   0.074619 0.827621 0.891626 0.838257
O19   O     O_R   0.293530 0.897310 0.087470 -0.568998
C52   C     C_R   0.131446 0.934092 0.115855 0.871587
V4    V     V_3+5 0.384070 0.769710 0.002370 1.205300
O20   O     O_3   0.109180 0.698190 0.002460 -0.249191
C53   C     C_3   0.629720 0.082432 0.959978 -0.201398
C54   C     C_3   0.686257 0.188343 0.029652 -0.437203
H25   H     H_    0.810110 0.226531 0.015491 0.134878
H26   H     H_    0.560643 0.239156 0.041005 0.132728
H27   H     H_    0.732038 0.176921 0.086584 0.125503
H28   H     H_    0.511474 0.046363 0.979242 0.105910
H29   H     H_    0.758445 0.034252 0.954665 0.103085
N1    N     N_R   0.864893 0.212026 0.572007 0.040822
O21   O     O_R   0.002668 0.156752 0.534252 -0.400963
O22   O     O_R   0.705017 0.216422 0.529430 -0.406475
N2    N     N_R   0.478034 0.706859 0.769973 0.045298
O23   O     O_R   0.319084 0.656381 0.768673 -0.442804
O24   O     O_R   0.643187 0.686728 0.799558 -0.432787
N3    N     N_R   0.278540 0.667090 0.185997 0.100678
O25   O     O_R   0.162467 0.590664 0.135667 -0.392912
O26   O     O_R   0.214926 0.760490 0.217560 -0.365557

loop_
_geom_bond_atom_site_label_1
_geom_bond_atom_site_label_2
_geom_bond_distance
_ccdc_geom_bond_type
C33   C37   1.422373 A    
C53   H29   1.111157 S    
O17   V3    2.158727 S    
C4    C6    1.484321 S    
O2    C1    1.312213 A    
O18   C51   1.306578 A    
C42   H21   1.083610 S    
C1    O6    1.306088 A    
C28   C44   1.421866 A    
C21   H2    1.083247 S    
N3    O25   1.301258 A    
O11   C50   1.304087 A    
C36   H19   1.069419 S    
C14   C15   1.385977 A    
C53   C54   1.530690 S    
C1    C27   1.515238 S    
C16   C17   1.381674 A    
O5    C3    1.290120 A    
C45   H24   1.085616 S    
O18   V4    2.015636 S    
C32   C34   1.437342 A    
C41   C44   1.447277 A    
C38   H20   1.075538 S    
V2    O10   2.150811 S    
O13   V3    1.976411 S    
O19   C52   1.303279 A    
C5    C8    1.395664 A    
N1    O21   1.299464 A    
C54   H27   1.110958 S    
O14   V3    1.979363 S    
C28   C43   1.400151 A    
O12   V3    2.013976 S    
C23   C24   1.349214 D    
O8    V2    1.987090 S    
C49   O16   1.288258 A    
C40   C42   1.388285 A    
C28   C50   1.517743 S    
O1    V2    2.015245 S    
C11   C15   1.390333 A    
O14   C50   1.316076 A    
O7    V1    2.158802 S    
O17   V4    1.701324 S    
C36   C37   1.400768 A    
C27   C30   1.389179 A    
C37   C53   1.534397 S    
C23   C52   1.476962 S    
C35   C41   1.444395 A    
C34   C35   1.443468 A    
O9    C4    1.305769 A    
C48   N3    1.435986 S    
C54   H25   1.111017 S    
C46   C48   1.490057 S    
O19   V4    1.986998 S    
O15   V3    2.013915 S    
C24   C26   1.473253 S    
H11   C24   1.087132 S    
C31   H18   1.076030 S    
O12   C49   1.313271 A    
C42   C43   1.382759 A    
C12   C13   1.446737 A    
O4    C2    1.304239 A    
C8    H5    1.082414 S    
C15   H1    1.084577 S    
C13   C14   1.410536 A    
C23   H13   1.086972 S    
H23   C47   1.086727 S    
C45   C46   1.355794 D    
C35   C36   1.400657 A    
C7    C11   1.400484 A    
C3    C25   1.477136 S    
C17   C18   1.393879 A    
O11   V4    1.981722 S    
C7    H4    1.082753 S    
C29   H17   1.079192 S    
V4    O20   2.150895 S    
V3    O20   1.709516 S    
C19   C22   1.455092 A    
N2    O24   1.296015 A    
C5    C51   1.484776 S    
C54   H26   1.110892 S    
C6    C22   1.423780 A    
O3    C4    1.289570 A    
H12   C25   1.086963 S    
C47   C48   1.367457 D    
O6    V2    1.980823 S    
O9    V2    2.015631 S    
C10   C12   1.443075 A    
C31   C32   1.449673 A    
O2    V1    1.979301 S    
C2    C45   1.478058 S    
C29   C33   1.399270 A    
H10   C26   1.087099 S    
C53   H28   1.111976 S    
C29   C30   1.386926 A    
N2    O23   1.300589 A    
C30   N2    1.405571 S    
O1    C2    1.290872 A    
C13   C19   1.456342 A    
C12   C16   1.404681 A    
O5    V1    1.976393 S    
N3    O26   1.301241 A    
O8    C3    1.303227 A    
O15   C51   1.291883 A    
C34   C38   1.404816 A    
C22   N1    1.433928 S    
C20   C21   1.383000 A    
O13   C52   1.289964 A    
C7    C8    1.388797 A    
O7    V2    1.704129 S    
O4    V1    2.013996 S    
C40   C41   1.413904 A    
O3    V1    2.014083 S    
V1    O10   1.709482 S    
C39   C40   1.391745 A    
C18   C20   1.399807 A    
C32   C33   1.422603 A    
C18   C19   1.426289 A    
C9    H6    1.076721 S    
C43   H15   1.060512 S    
C47   C49   1.493943 S    
C16   H8    1.075935 S    
C20   H9    1.083905 S    
N1    O22   1.300839 A    
H22   C46   1.086862 S    
C39   H16   1.082540 S    
C44   H14   1.076959 S    
C6    C21   1.391025 A    
C5    C9    1.412635 A    
C38   C39   1.381068 A    
C14   H7    1.068657 S    
C25   C26   1.349125 D    
C17   H3    1.084654 S    
C10   C11   1.415985 A    
C9    C10   1.434093 A    
C27   C31   1.417453 A    
O16   V4    2.023705 S    
