data_mof_unit_32552.cif
_audit_creation_date              2012-12-11T15:55:46-0500
_audit_creation_method            fapswitch 2.2
_symmetry_space_group_name_H-M    P1
_symmetry_Int_Tables_number       1
_space_group_crystal_system       triclinic
_cell_length_a                    6.949973
_cell_length_b                    14.536916
_cell_length_c                    16.09625
_cell_angle_alpha                 89.999905
_cell_angle_beta                  89.960682
_cell_angle_gamma                 90.11007
_cell_volume                      1626.21964597

loop_
_atom_site_label
_atom_site_type_symbol
_atom_type_description
_atom_site_fract_x
_atom_site_fract_y
_atom_site_fract_z
_atom_type_partial_charge
O1    O     O_R   0.505680 0.583900 0.413320 -0.511887
O2    O     O_R   0.176010 0.594950 0.586080 -0.550801
O3    O     O_R   0.005680 0.416100 0.586680 -0.514916
C1    C     C_R   0.345075 0.617125 0.615006 0.703032
O4    O     O_R   0.175960 0.594930 0.413930 -0.505984
O5    O     O_R   0.005640 0.416080 0.413300 -0.545705
C2    C     C_R   0.345116 0.617183 0.385060 0.814439
O6    O     O_R   0.505720 0.583920 0.586700 -0.550798
O7    O     O_3   0.339190 0.441320 0.500000 -0.359923
V1    V     V_3+5 0.064350 0.510890 0.500000 1.612476
O8    O     O_R   0.675920 0.405050 0.413920 -0.550736
C3    C     C_R   0.844849 0.382744 0.385157 0.738892
O9    O     O_R   0.675960 0.405070 0.586070 -0.526789
C4    C     C_R   0.844662 0.383159 0.614974 0.731192
V2    V     V_3+5 0.564340 0.489110 0.500000 1.598112
O10   O     O_3   0.839370 0.558680 0.500000 -0.360542
C5    C     C_R   0.011021 0.253808 0.690054 -0.121186
C6    C     C_R   0.853328 0.313005 0.681847 -0.073749
C7    C     C_R   0.704246 0.304477 0.740474 -0.070492
C8    C     C_R   0.716380 0.240843 0.806287 -0.063408
H1    H     H_    0.604585 0.239446 0.852767 0.200328
C9    C     C_R   0.878071 0.183911 0.815771 -0.078191
C10   C     C_R   0.023136 0.190633 0.755702 -0.119455
C11   C     C_3   0.230407 0.211551 0.769254 0.961305
C12   C     C_3   0.217848 0.279216 0.697874 0.968832
C13   C     C_R   0.045785 0.210899 0.229484 0.630095
C14   C     C_R   0.033368 0.274850 0.294312 -0.202787
H2    H     H_    0.163479 0.292883 0.327595 0.148207
C15   C     C_R   0.855891 0.314147 0.316648 -0.137080
C16   C     C_R   0.690570 0.287972 0.272206 -0.109353
H3    H     H_    0.551601 0.317141 0.287307 0.149746
C17   C     C_R   0.702899 0.224709 0.206763 -0.188230
H4    H     H_    0.573119 0.207215 0.173195 0.215598
C18   C     C_R   0.880302 0.185186 0.184327 -0.181397
C19   C     C_R   0.188472 0.724507 0.717595 -0.128653
C20   C     C_R   0.199531 0.788091 0.782802 -0.121133
C21   C     C_R   0.378668 0.814377 0.816212 -0.036854
C22   C     C_R   0.546432 0.775301 0.782499 -0.130131
H5    H     H_    0.686850 0.793826 0.806396 0.117893
C23   C     C_R   0.535373 0.711719 0.717291 -0.128208
C24   C     C_R   0.356238 0.685443 0.683873 -0.038678
C25   C     C_R   0.196010 0.701008 0.264018 0.528413
C26   C     C_R   0.206483 0.764438 0.198657 0.552909
C27   C     C_R   0.378019 0.813401 0.182766 -0.361425
C28   C     C_R   0.538077 0.797086 0.233882 -0.255953
H6    H     H_    0.671396 0.834179 0.223806 0.223765
C29   C     C_R   0.527479 0.734496 0.299866 0.626545
C30   C     C_R   0.356008 0.685344 0.315914 -0.418749
O11   O     O_R   0.229200 0.915950 0.913350 -0.547713
O12   O     O_R   0.559090 0.905000 0.086080 -0.544185
O13   O     O_R   0.729280 0.083880 0.086680 -0.553104
C31   C     C_R   0.389730 0.882253 0.114473 0.819673
O14   O     O_R   0.558920 0.904980 0.913920 -0.551381
O15   O     O_R   0.729110 0.083860 0.913300 -0.540458
C32   C     C_R   0.389842 0.882743 0.885043 0.702999
O16   O     O_R   0.229360 0.915970 0.086730 -0.507273
O17   O     O_3   0.395680 0.058580 0.000030 -0.356709
V3    V     V_3+5 0.670570 0.989070 0.999990 1.541897
O18   O     O_R   0.058820 0.094950 0.913870 -0.513771
C33   C     C_R   0.889962 0.117294 0.885397 0.724311
O19   O     O_R   0.058990 0.094970 0.086020 -0.504411
C34   C     C_R   0.890309 0.116957 0.115180 0.735868
V4    V     V_3+5 0.170560 0.010930 0.999930 1.638768
O20   O     O_3   0.895590 0.941310 0.999960 -0.370498
H7    H     H_    0.584134 0.351142 0.738377 0.193171
H8    H     H_    0.048054 0.705983 0.693697 0.116395
H9    H     H_    0.067088 0.816729 0.806930 0.118011
H10   H     H_    0.667817 0.683086 0.693160 0.117087
F1    F     F_    0.029886 0.653197 0.274834 -0.595201
F2    F     F_    0.049072 0.776065 0.149858 -0.641173
F3    F     F_    0.684498 0.723915 0.349011 -0.609344
F4    F     F_    0.347114 0.136414 0.753762 -0.677226
F5    F     F_    0.263092 0.252683 0.845582 -0.699514
F6    F     F_    0.324317 0.254316 0.628757 -0.663777
F7    F     F_    0.243465 0.370142 0.721325 -0.703641
F8    F     F_    0.219706 0.173189 0.212402 -0.707390

loop_
_geom_bond_atom_site_label_1
_geom_bond_atom_site_label_2
_ccdc_geom_bond_type
C16   C17   A    
O11   V4    S    
C3    C15   S    
C14   C15   A    
C4    C6    S    
C7    C8    A    
C1    O6    A    
C9    C33   S    
C20   H9    S    
O15   C33   A    
C28   H6    S    
C13   C14   A    
C5    C10   A    
C20   C21   A    
C21   C22   A    
C6    C7    A    
O5    C3    A    
C16   H3    S    
C11   F5    S    
C1    C24   S    
V2    O10   S    
C18   C34   S    
C12   F6    S    
O19   V4    S    
O8    V2    S    
C13   C18   A    
C19   C20   A    
O12   C31   A    
C10   C11   S    
O1    V2    S    
O7    V1    S    
C27   C31   S    
O14   C32   A    
O18   C33   A    
O9    C4    A    
O13   C34   A    
O17   V4    S    
C28   C29   A    
V3    O20   S    
O12   V3    S    
C11   C12   S    
O4    C2    A    
C19   H8    S    
O11   C32   A    
C25   F1    S    
C12   F7    S    
C17   C18   A    
O2    C1    A    
C26   C27   A    
C15   C16   A    
C13   F8    S    
C29   C30   A    
O8    C3    A    
C5    C6    A    
O16   V4    S    
O13   V3    S    
C25   C30   A    
C29   F3    S    
O3    C4    A    
C23   C24   A    
C8    C9    A    
C26   F2    S    
O9    V2    S    
C25   C26   A    
O2    V1    S    
C27   C28   A    
C11   F4    S    
O15   V3    S    
O1    C2    A    
O5    V1    S    
O14   V3    S    
O6    V2    S    
O18   V4    S    
C5    C12   S    
C2    C30   S    
O7    V2    S    
O4    V1    S    
O3    V1    S    
V1    O10   S    
C17   H4    S    
C22   C23   A    
O17   V3    S    
C22   H5    S    
C7    H7    S    
O19   C34   A    
C19   C24   A    
V4    O20   S    
C21   C32   S    
C8    H1    S    
C23   H10   S    
C14   H2    S    
C9    C10   A    
C31   O16   A    
