data_mof_unit_31394.cif
_audit_creation_date              2013-03-05T16:02:00-0500
_audit_creation_method            fapswitch 2.2
_symmetry_space_group_name_H-M    P1
_symmetry_Int_Tables_number       1
_space_group_crystal_system       triclinic
_cell_length_a                    14.900598
_cell_length_b                    14.170136
_cell_length_c                    14.135132
_cell_angle_alpha                 89.966089
_cell_angle_beta                  90.53507
_cell_angle_gamma                 90.134938
_cell_volume                      2984.40234134

loop_
_atom_site_label
_atom_site_type_symbol
_atom_site_description
_atom_site_fract_x
_atom_site_fract_y
_atom_site_fract_z
_atom_type_partial_charge
O1    O     O_R   0.367850 0.580280 0.500020 -0.554664
O2    O     O_R   0.632150 0.419720 0.499980 -0.537686
O3    O     O_R   0.632150 0.580280 0.499980 -0.581459
O4    O     O_R   0.367850 0.419720 0.500020 -0.591626
C1    C     C_R   0.327236 0.499579 0.497699 0.915653
C2    C     C_R   0.672818 0.499966 0.501385 0.949913
O5    O     O_R   0.500000 0.580290 0.373720 -0.582290
O6    O     O_R   0.500000 0.419710 0.626280 -0.616475
O7    O     O_R   0.500000 0.580290 0.626280 -0.594111
O8    O     O_R   0.500000 0.419710 0.373720 -0.617204
C3    C     C_R   0.500577 0.499983 0.329317 0.863206
C4    C     C_R   0.498717 0.499878 0.670667 0.879811
Zn1   Zn    Zn3+2 0.500000 0.607200 0.500000 1.010027
Zn2   Zn    Zn3+2 0.500000 0.392800 0.500000 0.993875
C5    C     C_1   0.501231 0.499704 0.227846 -0.193952
C6    C     C_1   0.496512 0.499332 0.772143 -0.199690
C7    C     C_1   0.500868 0.499196 0.142553 -0.009060
C8    C     C_1   0.496155 0.498902 0.857441 -0.000153
C9    C     C_1   0.499142 0.498799 0.042647 0.021482
C10   C     C_1   0.497464 0.498705 0.957354 0.026822
C11   C     C_R   0.811196 0.519896 0.416751 -0.297682
C12   C     C_R   0.188196 0.461338 0.573249 -0.248000
C13   C     C_R   0.768195 0.498622 0.500795 -0.165085
C14   C     C_R   0.231903 0.496799 0.494623 -0.172760
C15   C     C_R   0.815154 0.473014 0.582623 0.448758
C16   C     C_R   0.185669 0.522502 0.412189 0.406552
C17   C     C_R   0.907941 0.460638 0.577411 -0.044842
C18   C     C_R   0.092020 0.519784 0.411865 -0.028251
C19   C     C_R   0.953000 0.487501 0.493998 -0.008175
C20   C     C_R   0.046708 0.487804 0.493365 -0.014176
C21   C     C_R   0.904308 0.516449 0.412324 0.005956
C22   C     C_R   0.095176 0.457779 0.574811 0.000926
C23   C     C_R   0.956147 0.423991 0.654494 -0.262751
C24   C     C_R   0.043376 0.547901 0.331413 -0.259076
C25   C     C_R   0.049429 0.423894 0.654978 0.319010
C26   C     C_R   0.950001 0.544046 0.329737 0.310811
H1    H     H_    0.771038 0.542597 0.356768 0.210199
H2    H     H_    0.228017 0.437371 0.632906 0.199210
H3    H     H_    0.921506 0.397311 0.716016 0.213675
H4    H     H_    0.077805 0.571261 0.268433 0.221863
C27   C     C_R   0.577514 0.800254 0.480991 0.453781
C28   C     C_R   0.428500 0.201085 0.537149 0.459319
C29   C     C_R   0.422469 0.799673 0.519567 0.449735
C30   C     C_R   0.570941 0.201945 0.461558 0.462423
N1    N     N_R   0.500000 0.750030 0.500000 -0.180584
N2    N     N_R   0.500000 0.249970 0.500000 -0.185882
C31   C     C_R   0.423411 0.900105 0.526838 -0.090485
C32   C     C_R   0.574577 0.101669 0.465812 -0.096143
C33   C     C_R   0.576235 0.900494 0.471910 -0.094029
C34   C     C_R   0.424995 0.101148 0.532075 -0.068175
C35   C     C_R   0.499673 0.950542 0.498791 0.021570
C36   C     C_R   0.499761 0.051215 0.498861 0.016194
C37   C     C_R   0.348660 0.951159 0.559236 -0.173511
C38   C     C_R   0.650625 0.050664 0.437326 -0.171155
C39   C     C_R   0.651479 0.951794 0.440497 -0.153486
C40   C     C_R   0.349078 0.049883 0.560745 -0.161708
H5    H     H_    0.289178 0.915121 0.583688 0.182466
H6    H     H_    0.710418 0.086874 0.413699 0.177212
H7    H     H_    0.711406 0.915687 0.417765 0.183759
H8    H     H_    0.289032 0.085695 0.583536 0.190588
O9    O     O_3   0.769800 0.465676 0.667683 -0.617984
C41   C     C_3   0.791509 0.544825 0.725203 0.066521
H9    H     H_    0.807345 0.609733 0.683794 0.125666
H10   H     H_    0.850104 0.528414 0.771319 0.179711
C42   C     C_3   0.713157 0.567875 0.788820 -0.788138
H11   H     H_    0.692538 0.504083 0.828842 0.274320
H12   H     H_    0.732954 0.623966 0.839781 0.222863
H13   H     H_    0.656246 0.594126 0.745266 0.234320
O10   O     O_3   0.231799 0.554311 0.333748 -0.642072
C43   C     C_3   0.250153 0.476869 0.274062 0.055429
H14   H     H_    0.193285 0.425567 0.269295 0.153210
H15   H     H_    0.310814 0.439185 0.300249 0.152173
C44   C     C_3   0.267700 0.513308 0.174705 -0.762418
H16   H     H_    0.321239 0.567905 0.176458 0.259235
H17   H     H_    0.288967 0.454220 0.128495 0.218243
H18   H     H_    0.205596 0.545082 0.144727 0.263479
N3    N     N_R   0.095996 0.391980 0.738452 0.194576
O11   O     O_R   0.070231 0.314836 0.780264 -0.386725
O12   O     O_R   0.150710 0.448638 0.782991 -0.403002
N4    N     N_R   0.903184 0.568116 0.243733 0.206756
O13   O     O_R   0.930582 0.638939 0.192870 -0.377449
O14   O     O_R   0.844931 0.509596 0.207391 -0.402241
O15   O     O_3   0.658385 0.753909 0.472185 -0.569684
C45   C     C_3   0.708932 0.765972 0.557102 0.111717
H19   H     H_    0.690396 0.710219 0.608608 0.161823
H20   H     H_    0.698419 0.835496 0.592334 0.121477
C46   C     C_3   0.808653 0.758722 0.535990 -0.832193
H21   H     H_    0.828876 0.815249 0.486115 0.255223
H22   H     H_    0.848220 0.766534 0.602488 0.206661
H23   H     H_    0.824129 0.689485 0.504197 0.267365
O16   O     O_3   0.357186 0.249520 0.575802 -0.598263
C47   C     C_3   0.374125 0.268371 0.672907 0.155593
H24   H     H_    0.359356 0.343941 0.685670 0.179723
H25   H     H_    0.444834 0.255791 0.696716 0.127203
C48   C     C_3   0.310872 0.211784 0.735306 -0.842141
H26   H     H_    0.331602 0.136700 0.737725 0.236914
H27   H     H_    0.313420 0.239976 0.808581 0.242596
H28   H     H_    0.240887 0.217190 0.708115 0.292464
O17   O     O_3   0.343508 0.751944 0.537263 -0.577615
C49   C     C_3   0.283925 0.762807 0.458992 0.119398
H29   H     H_    0.299658 0.709772 0.403928 0.210764
H30   H     H_    0.287335 0.833405 0.424357 0.112353
C50   C     C_3   0.187816 0.748493 0.491965 -0.778383
H31   H     H_    0.166882 0.808826 0.536594 0.231564
H32   H     H_    0.141880 0.743640 0.429825 0.225348
H33   H     H_    0.182243 0.682950 0.534400 0.269643
O18   O     O_3   0.640430 0.252330 0.421623 -0.571488
C51   C     C_3   0.629564 0.251935 0.322114 0.070084
H34   H     H_    0.559948 0.270893 0.299947 0.149569
H35   H     H_    0.645419 0.181317 0.292549 0.129644
C52   C     C_3   0.693826 0.323303 0.279072 -0.689068
H36   H     H_    0.687228 0.322236 0.200768 0.210131
H37   H     H_    0.678049 0.395319 0.304674 0.245412
H38   H     H_    0.764085 0.305795 0.299149 0.259225

loop_
_geom_bond_atom_site_label_1
_geom_bond_atom_site_label_2
_geom_bond_distance
_ccdc_geom_bond_type
Zn1   N1    2.023921 S    
C46   H21   1.109761 S    
C39   H7    1.081698 S    
C17   C19   1.413818 A    
C48   H26   1.109002 S    
C44   H16   1.110096 S    
C52   H36   1.110393 S    
C45   C46   1.522026 S    
O3    C2    1.290650 A    
C48   H28   1.110816 S    
Zn2   N2    2.023922 S    
N3    O11   1.301217 A    
C17   C23   1.399747 A    
C32   C38   1.407568 A    
C11   C21   1.390391 A    
C19   C20   1.396421 A    
C12   C22   1.387237 A    
O1    C1    1.292840 A    
C45   H20   1.116182 S    
O10   C43   1.413364 S    
C30   O18   1.381116 S    
C27   O15   1.380406 S    
C51   H34   1.114238 S    
C28   O16   1.383274 S    
C28   N2    1.377375 A    
O7    Zn1   1.825039 S    
C47   H24   1.108948 S    
C41   H10   1.109696 S    
C23   C25   1.389925 A    
C3    C5    1.434434 S    
C23   H3    1.082906 S    
C52   H37   1.109387 S    
C4    C6    1.435081 S    
C33   C35   1.400365 A    
C46   H22   1.110334 S    
C34   C36   1.405713 A    
O18   C51   1.414368 S    
C43   H14   1.116748 S    
C52   H38   1.110718 S    
C8    C10   1.412239 S    
O3    Zn1   2.006605 S    
C31   C37   1.409767 A    
C13   C15   1.394528 A    
C18   C24   1.400987 A    
C44   H17   1.110793 S    
O2    C2    1.287312 A    
C27   C33   1.426278 A    
C30   N2    1.374880 A    
N3    O12   1.301354 A    
C35   C36   1.426546 A    
C22   C25   1.411207 A    
C45   H19   1.110198 S    
N4    O14   1.301436 A    
C26   N4    1.437234 S    
O16   C47   1.418694 S    
C37   H5    1.081285 S    
N4    O13   1.301317 A    
C31   C35   1.401258 A    
C42   H12   1.110515 S    
C33   C39   1.409868 A    
C25   N3    1.436562 S    
C47   C48   1.523273 S    
C34   C40   1.405667 A    
C40   H8    1.081463 S    
O5    C3    1.299986 A    
C41   H9    1.115865 S    
O15   C45   1.421271 S    
C32   C36   1.406316 A    
O6    C4    1.298327 A    
C42   H13   1.108143 S    
C43   C44   1.520772 S    
C47   H25   1.117730 S    
C50   H32   1.110567 S    
C15   O9    1.388455 S    
C29   N1    1.384187 A    
C28   C34   1.418800 A    
C11   C13   1.387652 A    
O8    Zn2   1.825040 S    
C44   H18   1.110412 S    
C12   C14   1.386765 A    
O1    Zn1   2.004843 S    
C49   H30   1.114749 S    
C38   H6    1.082505 S    
C37   C40   1.399097 A    
C5    C7    1.205624 T    
C38   C39   1.401771 A    
O6    Zn2   1.825480 S    
C41   C42   1.516606 S    
C14   C16   1.396660 A    
O4    C1    1.284781 A    
C48   H27   1.110628 S    
C15   C17   1.396702 A    
C16   C18   1.395833 A    
C51   C52   1.521629 S    
C9    C10   1.205659 T    
C18   C20   1.414508 A    
C19   C21   1.418686 A    
O17   C49   1.420599 S    
C29   O17   1.380519 S    
C20   C22   1.418903 A    
C1    C14   1.421227 S    
C2    C13   1.421437 S    
C49   H29   1.109270 S    
C7    C9    1.412186 S    
C51   H35   1.111408 S    
C50   H33   1.108679 S    
C24   C26   1.392262 A    
C49   C50   1.523229 S    
O4    Zn2   2.006606 S    
O9    C41   1.420585 S    
O2    Zn2   2.004841 S    
O7    C4    1.300631 A    
O8    C3    1.298872 A    
O5    Zn1   1.825482 S    
C11   H1    1.082374 S    
C6    C8    1.205767 T    
C42   H11   1.110350 S    
C46   H23   1.105082 S    
C50   H31   1.109833 S    
C16   O10   1.384623 S    
C27   N1    1.383623 A    
C21   C26   1.411497 A    
C24   H4    1.082892 S    
C43   H15   1.111285 S    
C29   C31   1.426933 A    
C30   C32   1.423300 A    
C12   H2    1.081561 S    
