data_mof_unit_22056.cif
_audit_creation_date              2012-12-11T14:11:00-0500
_audit_creation_method            fapswitch 2.2
_symmetry_space_group_name_H-M    P1
_symmetry_Int_Tables_number       1
_space_group_crystal_system       triclinic
_cell_length_a                    19.833948
_cell_length_b                    17.176847
_cell_length_c                    15.532025
_cell_angle_alpha                 89.999684
_cell_angle_beta                  52.060259
_cell_angle_gamma                 89.999988
_cell_volume                      4173.20109188

loop_
_atom_site_label
_atom_site_type_symbol
_atom_type_description
_atom_site_fract_x
_atom_site_fract_y
_atom_site_fract_z
_atom_type_partial_charge
C1    C     C_R   0.340113 0.176504 0.045108 0.781017
C2    C     C_3   0.685831 0.749338 0.441295 -0.429713
C3    C     C_3   0.791550 0.192056 0.414799 -0.432780
C4    C     C_3   0.208585 0.807857 0.585114 -0.432922
C5    C     C_3   0.708287 0.691946 0.585307 -0.432416
C6    C     C_3   0.291411 0.307853 0.414887 -0.432948
C7    C     C_3   0.185589 0.750868 0.441427 -0.430172
C8    C     C_3   0.814308 0.249219 0.558631 -0.429986
C9    C     C_2   0.282776 0.688997 0.962951 -0.062567
C10   C     C_2   0.717225 0.311002 0.037048 -0.062441
C11   C     C_2   0.817515 0.747891 0.899435 0.032129
C12   C     C_R   0.659887 0.823497 0.954892 0.781101
C13   C     C_2   0.182487 0.252111 0.100563 0.031963
C14   C     C_2   0.682483 0.247892 0.100567 0.032102
C15   C     C_2   0.317517 0.752107 0.899434 0.031860
C16   C     C_2   0.217223 0.188996 0.037052 -0.062492
C17   C     C_2   0.782774 0.811001 0.962954 -0.062454
C18   C     C_R   0.347488 0.829300 0.221555 0.708950
C19   C     C_R   0.652503 0.170712 0.778447 0.708821
C20   C     C_R   0.604361 0.801188 0.788824 0.766177
C21   C     C_R   0.395609 0.198802 0.211203 0.766166
C22   C     C_R   0.895625 0.301193 0.211190 0.766171
C23   C     C_R   0.619669 0.198524 0.011499 0.828056
C24   C     C_R   0.104391 0.698802 0.788797 0.766179
C25   C     C_R   0.152511 0.329299 0.778445 0.708946
C26   C     C_R   0.847510 0.670727 0.221550 0.708721
C27   C     C_R   0.368119 0.888410 0.894585 -0.163811
C28   C     C_R   0.631882 0.111589 0.105415 -0.163821
C29   C     C_R   0.669164 0.912964 0.050259 -0.133236
C30   C     C_R   0.330833 0.087034 0.949745 -0.133254
C31   C     C_R   0.830834 0.412966 0.949744 -0.133234
C32   C     C_R   0.169166 0.587033 0.050255 -0.133260
C33   C     C_R   0.131884 0.388412 0.105412 -0.163833
C34   C     C_R   0.380329 0.801476 0.988504 0.827999
C35   C     C_R   0.868117 0.611588 0.894586 -0.163806
C36   C     C_R   0.405043 0.108738 0.305053 0.835023
C37   C     C_R   0.594932 0.891246 0.694966 0.835173
C38   C     C_R   0.645355 0.079197 0.683559 0.761073
C39   C     C_R   0.354645 0.920809 0.316440 0.760886
C40   C     C_R   0.854649 0.579209 0.316444 0.761162
C41   C     C_R   0.145354 0.420808 0.683559 0.760877
C42   C     C_R   0.094958 0.608738 0.694946 0.835037
C43   C     C_R   0.905055 0.391255 0.305044 0.835085
C44   C     C_R   0.288533 0.149131 0.019974 -0.150896
C45   C     C_R   0.880332 0.698524 0.988499 0.828084
C46   C     C_R   0.711464 0.850867 0.980031 -0.150902
C47   C     C_R   0.647047 0.188299 0.072995 -0.158225
C48   C     C_R   0.352953 0.811701 0.927007 -0.158177
C49   C     C_R   0.852953 0.688298 0.927005 -0.158240
C50   C     C_R   0.147050 0.311703 0.072990 -0.158191
C51   C     C_R   0.211467 0.649130 0.980026 -0.150864
C52   C     C_R   0.788533 0.350869 0.019973 -0.150896
C53   C     C_R   0.303881 0.862508 0.323436 -0.199768
C54   C     C_R   0.696108 0.137510 0.676564 -0.199680
C55   C     C_R   0.615156 0.815292 0.694476 -0.230660
C56   C     C_R   0.119672 0.301477 0.011495 0.828023
C57   C     C_R   0.384792 0.184686 0.305566 -0.230711
C58   C     C_R   0.884819 0.315303 0.305546 -0.230694
C59   C     C_R   0.115210 0.684685 0.694432 -0.230710
C60   C     C_R   0.196118 0.362506 0.676563 -0.199760
C61   C     C_R   0.803909 0.637536 0.323437 -0.199630
C62   C     C_3   0.276205 0.206322 0.511553 0.763764
C63   C     C_3   0.723960 0.793629 0.488589 0.762971
C64   C     C_3   0.829562 0.147028 0.462114 0.793842
C65   C     C_3   0.170536 0.852992 0.537923 0.794103
C66   C     C_3   0.670320 0.647059 0.537833 0.793457
C67   C     C_R   0.159888 0.676503 0.954890 0.780981
C68   C     C_3   0.329460 0.352992 0.462075 0.794129
C69   C     C_3   0.223797 0.706324 0.488448 0.763749
C70   C     C_3   0.776135 0.293653 0.511490 0.763402
C71   C     C_3   0.614431 0.717738 0.557232 0.720378
C72   C     C_3   0.385588 0.282486 0.442543 0.720315
C73   C     C_3   0.278572 0.775615 0.470762 0.681175
C74   C     C_3   0.721462 0.224291 0.529115 0.681211
C75   C     C_3   0.221426 0.275610 0.529240 0.681143
C76   C     C_3   0.778501 0.724173 0.471038 0.681317
C77   C     C_3   0.885584 0.217610 0.442642 0.720318
C78   C     C_R   0.840112 0.323497 0.045110 0.781057
C79   C     C_3   0.114412 0.782484 0.557455 0.720337
C80   C     C_3   0.652857 0.762505 0.603005 -0.373044
C81   C     C_3   0.347085 0.237468 0.397048 -0.373102
C82   C     C_3   0.241252 0.821218 0.423922 -0.355089
C83   C     C_3   0.758749 0.178795 0.576078 -0.355021
C84   C     C_3   0.258747 0.321216 0.576078 -0.355069
C85   C     C_3   0.741257 0.678817 0.423921 -0.354995
C86   C     C_3   0.847115 0.262518 0.397023 -0.373018
C87   C     C_3   0.152915 0.737469 0.602952 -0.373118
C88   C     C_3   0.314413 0.250870 0.558571 -0.430188
F1    F     F_    0.332689 0.245449 0.091944 -0.643965
F2    F     F_    0.673472 0.238282 0.801295 -0.618361
F3    F     F_    0.590947 0.729320 0.832612 -0.546790
F4    F     F_    0.409001 0.270679 0.167447 -0.546629
F5    F     F_    0.909029 0.229321 0.167418 -0.546711
F6    F     F_    0.090995 0.770679 0.832553 -0.546626
F7    F     F_    0.173488 0.261727 0.801284 -0.618272
F8    F     F_    0.826550 0.738297 0.198686 -0.618439
F9    F     F_    0.426576 0.079663 0.366342 -0.568935
F10   F     F_    0.573420 0.920329 0.633656 -0.569016
F11   F     F_    0.658433 0.041747 0.597853 -0.557788
F12   F     F_    0.667316 0.754552 0.908044 -0.643952
F13   F     F_    0.341583 0.958239 0.402146 -0.557714
F14   F     F_    0.841560 0.541749 0.402151 -0.557772
F15   F     F_    0.158416 0.458240 0.597853 -0.557718
F16   F     F_    0.073424 0.579664 0.633657 -0.568924
F17   F     F_    0.926577 0.420335 0.366343 -0.568973
F18   F     F_    0.528209 0.714705 0.605695 -0.591287
F19   F     F_    0.471850 0.285745 0.393822 -0.591368
F20   F     F_    0.364425 0.770841 0.424200 -0.581174
F21   F     F_    0.635628 0.228972 0.575562 -0.581225
F22   F     F_    0.135572 0.270832 0.575806 -0.581217
F23   F     F_    0.592153 0.267340 0.000429 -0.589054
F24   F     F_    0.864311 0.728732 0.424739 -0.581163
F25   F     F_    0.971827 0.214452 0.394036 -0.591358
F26   F     F_    0.028150 0.785737 0.606173 -0.591339
F27   F     F_    0.246815 0.130389 0.537146 -0.529634
F28   F     F_    0.753542 0.869506 0.463132 -0.529988
F29   F     F_    0.857023 0.070543 0.439302 -0.539334
F30   F     F_    0.143157 0.929500 0.560792 -0.539230
F31   F     F_    0.642753 0.570605 0.560570 -0.539569
F32   F     F_    0.356835 0.429502 0.439204 -0.539215
F33   F     F_    0.253190 0.630393 0.462858 -0.529629
F34   F     F_    0.407839 0.732661 0.999583 -0.589062
F35   F     F_    0.746659 0.369561 0.537023 -0.529893
F36   F     F_    0.907853 0.767340 0.999559 -0.589056
F37   F     F_    0.092162 0.232661 0.000418 -0.589054
F38   F     F_    0.167315 0.745452 0.908050 -0.643949
F39   F     F_    0.832684 0.254551 0.091956 -0.643961
F40   F     F_    0.326510 0.761729 0.198718 -0.618272
H1    H     H_    0.364491 0.914467 0.834133 0.202378
H2    H     H_    0.676117 0.772422 0.382912 0.277236
H3    H     H_    0.781400 0.168650 0.356954 0.287348
H4    H     H_    0.218830 0.831186 0.642903 0.287307
H5    H     H_    0.718314 0.668442 0.643223 0.287444
H6    H     H_    0.281163 0.331180 0.357099 0.287297
H7    H     H_    0.175677 0.727965 0.383152 0.277089
H8    H     H_    0.824133 0.272201 0.616954 0.277143
H9    H     H_    0.294280 0.674031 0.020619 0.218991
H10   H     H_    0.705718 0.325968 0.979383 0.218944
H11   H     H_    0.807117 0.733408 0.840549 0.213814
H12   H     H_    0.635511 0.085532 0.165866 0.202333
H13   H     H_    0.192889 0.266598 0.159444 0.213813
H14   H     H_    0.692880 0.233409 0.159453 0.213791
H15   H     H_    0.307121 0.766590 0.840546 0.213850
H16   H     H_    0.205711 0.174025 0.979393 0.218983
H17   H     H_    0.794281 0.825967 0.020620 0.218935
H18   H     H_    0.688442 0.946800 0.090552 0.180068
H19   H     H_    0.311554 0.053198 0.909454 0.180097
H20   H     H_    0.811556 0.446802 0.909450 0.180075
H21   H     H_    0.188445 0.553197 0.090548 0.180097
H22   H     H_    0.135513 0.414468 0.165862 0.202360
H23   H     H_    0.864487 0.585531 0.834137 0.202344
H24   H     H_    0.324328 0.227969 0.616847 0.277079
N1    N     N_R   0.408680 0.130810 0.995780 -0.114503
N2    N     N_R   0.578590 0.132790 0.846380 -0.158807
N3    N     N_R   0.578590 0.867210 0.846380 -0.204192
N4    N     N_R   0.421410 0.132790 0.153620 -0.204208
N5    N     N_R   0.921410 0.367210 0.153620 -0.204191
N6    N     N_R   0.078590 0.632790 0.846380 -0.204209
N7    N     N_R   0.078590 0.367210 0.846380 -0.158789
N8    N     N_R   0.921410 0.632790 0.153620 -0.158835
N9    N     N_R   0.403840 0.921910 0.935760 -0.112293
N10   N     N_R   0.596160 0.078090 0.064240 -0.112258
N11   N     N_R   0.596160 0.921910 0.064240 -0.085508
N12   N     N_R   0.591320 0.869190 0.004220 -0.114498
N13   N     N_R   0.403840 0.078090 0.935760 -0.085514
N14   N     N_R   0.903840 0.421910 0.935760 -0.085508
N15   N     N_R   0.096160 0.578090 0.064240 -0.085514
N16   N     N_R   0.096160 0.421910 0.064240 -0.112277
N17   N     N_R   0.903840 0.578090 0.935760 -0.112257
N18   N     N_R   0.426250 0.076100 0.213650 -0.210958
N19   N     N_R   0.573750 0.923900 0.786350 -0.210920
N20   N     N_R   0.573750 0.076100 0.786350 -0.167861
N21   N     N_R   0.426250 0.923900 0.213650 -0.167838
N22   N     N_R   0.926250 0.576100 0.213650 -0.167875
N23   N     N_R   0.591320 0.130810 0.004220 -0.150994
N24   N     N_R   0.073750 0.423900 0.786350 -0.167841
N25   N     N_R   0.073750 0.576100 0.786350 -0.210959
N26   N     N_R   0.926250 0.423900 0.213650 -0.210921
N27   N     N_R   0.408680 0.869190 0.995780 -0.151023
N28   N     N_R   0.908680 0.630810 0.995780 -0.150978
N29   N     N_R   0.091320 0.369190 0.004220 -0.151021
N30   N     N_R   0.091320 0.630810 0.004220 -0.114512
N31   N     N_R   0.908680 0.369190 0.995780 -0.114495
N32   N     N_R   0.421410 0.867210 0.153620 -0.158785
Ni1   Ni    Ni4+2 0.500000 0.131570 0.000000 0.346001
Ni2   Ni    Ni4+2 0.500000 0.868430 0.000000 0.346023
Ni3   Ni    Ni4+2 0.000000 0.631570 0.000000 0.345982
Ni4   Ni    Ni4+2 1.000000 0.368430 0.000000 0.346031
Ni5   Ni    Ni4+2 0.488900 1.000000 0.862310 0.264610
Ni6   Ni    Ni4+2 0.511100 1.000000 0.137690 0.264613
Ni7   Ni    Ni4+2 0.988900 0.500000 0.862310 0.264620
Ni8   Ni    Ni4+2 0.011100 0.500000 0.137690 0.264625

loop_
_geom_bond_atom_site_label_1
_geom_bond_atom_site_label_2
_ccdc_geom_bond_type
C27   C48   A    
C14   H14   S    
C28   C47   A    
C65   C79   S    
C20   N3    A    
C8    H8    S    
C8    C83   S    
C64   C77   S    
C29   N11   A    
N11   N12   A    
C28   H12   S    
N5    Ni4   S    
C74   C83   S    
C39   N21   A    
C10   C52   S    
N6    Ni3   S    
C74   F21   S    
C79   C87   S    
C28   N10   A    
C30   H19   S    
C4    H4    S    
N27   Ni2   S    
C3    C64   S    
C7    H7    S    
N15   Ni8   S    
C69   F33   S    
C31   H20   S    
N25   Ni7   S    
C67   N30   A    
N6    N25   A    
C78   N31   A    
N12   Ni2   S    
C33   H22   S    
C4    C65   S    
C24   N6    A    
C75   C84   S    
N15   N30   A    
C12   N12   A    
C56   N29   A    
C42   N25   A    
N21   Ni6   S    
C8    C70   S    
N19   Ni5   S    
C2    C85   S    
N14   Ni7   S    
C43   F17   S    
C3    C74   S    
C11   H11   S    
C70   C74   S    
C37   F10   S    
C18   C53   A    
C18   F40   S    
C9    H9    S    
C70   F35   S    
C32   H21   S    
N21   N32   A    
C9    C51   S    
C35   C49   A    
N13   Ni5   S    
C65   F30   S    
C72   F19   S    
C26   N8    A    
C36   F9    S    
C25   C60   A    
C13   H13   S    
N9    N27   A    
C16   C44   S    
N17   N28   A    
C72   C81   S    
C69   C87   S    
C68   C72   S    
N5    N26   A    
C6    C68   S    
C34   F34   S    
C6    C81   S    
C3    C86   S    
C88   H24   S    
C30   C44   A    
C34   N27   A    
C35   H23   S    
C15   C48   S    
C66   C85   S    
C20   C55   A    
C77   F25   S    
C78   F39   S    
C58   C86   S    
C54   C83   S    
C72   C88   S    
N29   Ni4   S    
C39   F13   S    
C63   C80   S    
C45   F36   S    
C26   F8    S    
N2    Ni1   S    
C23   C47   A    
C68   C84   S    
C6    C75   S    
C17   C46   S    
C30   N13   A    
C12   C46   A    
C36   C57   A    
C10   C14   D    
C67   F38   S    
C29   H18   S    
C4    C87   S    
C25   N7    A    
C38   F11   S    
C73   F20   S    
N10   N23   A    
C33   C50   A    
N4    Ni1   S    
C62   C88   S    
C50   C56   A    
C64   F29   S    
C41   F15   S    
C12   F12   S    
C53   C82   S    
N7    Ni4   S    
C17   H17   S    
C64   C83   S    
C21   C57   A    
C11   C49   S    
N28   Ni3   S    
C24   F6    S    
N23   Ni1   S    
N26   Ni8   S    
C71   F18   S    
C1    C44   A    
C66   C71   S    
C38   C54   A    
C31   N14   A    
C18   N32   A    
C76   F24   S    
C45   C49   A    
C5    H5    S    
N2    N20   A    
C51   C67   A    
C56   F37   S    
C5    C80   S    
C69   C73   S    
C16   H16   S    
C4    C73   S    
C61   C85   S    
C15   H15   S    
C43   N26   A    
C19   C54   A    
N9    Ni5   S    
C41   N24   A    
C77   C86   S    
C25   F7    S    
N7    N24   A    
C8    C77   S    
C35   N17   A    
C22   F5    S    
C3    H3    S    
C62   C75   S    
C45   N28   A    
C33   N16   A    
C34   C48   A    
C63   F28   S    
C2    C71   S    
C70   C86   S    
C73   C82   S    
N10   Ni6   S    
C2    C63   S    
C7    C79   S    
C22   C58   A    
C32   C51   A    
C79   F26   S    
C11   C17   D    
C75   F22   S    
C1    F1    S    
N1    N13   A    
N8    N22   A    
C62   C81   S    
N14   N31   A    
C84   C88   S    
C41   C60   A    
C5    C66   S    
N24   Ni7   S    
N3    Ni2   S    
C42   F16   S    
C42   C59   A    
C37   N19   A    
C71   C80   S    
C38   N20   A    
C14   C47   S    
C22   N5    A    
N20   Ni5   S    
C23   F23   S    
N18   Ni6   S    
C36   N18   A    
N16   Ni8   S    
C31   C52   A    
C29   C46   A    
C66   F31   S    
C5    C76   S    
C7    C69   S    
C13   C16   D    
C62   F27   S    
C6    H6    S    
C19   F2    S    
N31   Ni4   S    
C27   N9    A    
C40   N22   A    
C55   C80   S    
C60   C84   S    
C65   C82   S    
C39   C53   A    
N1    Ni1   S    
C24   C59   A    
C27   H1    S    
N4    N18   A    
C2    H2    S    
C21   N4    A    
N32   Ni2   S    
N11   Ni6   S    
C57   C81   S    
N30   Ni3   S    
C9    C15   D    
C59   C87   S    
C1    N1    A    
C40   C61   A    
C40   F14   S    
C13   C50   S    
C37   C55   A    
N3    N19   A    
C20   F3    S    
C52   C78   A    
C7    C82   S    
C23   N23   A    
N16   N29   A    
C63   C76   S    
C32   N15   A    
C19   N2    A    
N17   Ni7   S    
C43   C58   A    
C10   H10   S    
N8    Ni3   S    
C76   C85   S    
C68   F32   S    
N22   Ni8   S    
C26   C61   A    
C21   F4    S    
