data_mof_unit_67190.cif
_audit_creation_date              2013-03-05T15:59:20-0500
_audit_creation_method            fapswitch 2.2
_symmetry_space_group_name_H-M    P1
_symmetry_Int_Tables_number       1
_space_group_crystal_system       triclinic
_cell_length_a                    8.54837
_cell_length_b                    13.486169
_cell_length_c                    16.801814
_cell_angle_alpha                 110.060984
_cell_angle_beta                  99.559062
_cell_angle_gamma                 81.038029
_cell_volume                      1783.96982644

loop_
_atom_site_label
_atom_site_type_symbol
_atom_site_description
_atom_site_fract_x
_atom_site_fract_y
_atom_site_fract_z
_atom_type_partial_charge
P1    P     P_3+3 0.593410 0.640600 0.698510 0.515184
O1    O     O_2   0.429050 0.611890 0.712090 -0.323636
O2    O     O_3   0.649820 0.584130 0.603850 -0.404543
O3    O     O_3   0.201480 0.401240 0.659120 -0.412401
O4    O     O_2   0.323013 0.539418 0.803918 -0.303438
O5    O     O_3   0.557166 0.776226 0.716384 -0.569905
O6    O     O_3   0.284842 0.364821 0.816518 -0.595292
H1    H     H_    0.466125 0.323350 0.740287 0.189443
C1    C     C_3   0.443068 0.202404 0.793158 -0.285933
H2    H     H_    0.520713 0.153866 0.747184 0.174591
P2    P     P_3+3 0.154920 0.233850 0.431950 0.441351
P3    P     P_3+3 0.684589 0.204621 0.610528 0.387171
O7    O     O_2   0.337150 0.224350 0.458110 -0.402006
O8    O     O_3   0.611620 0.334620 0.615460 -0.386444
O9    O     O_2   0.540423 0.138788 0.575585 -0.421222
O10   O     O_3   0.102770 0.171097 0.320560 -0.582731
O11   O     O_3   0.720695 0.215899 0.718390 -0.592276
C2    C     C_3   0.814324 0.299822 0.763973 0.380063
H3    H     H_    0.821406 0.354643 0.728961 0.066084
C3    C     C_3   0.980991 0.251971 0.782142 -0.910529
H4    H     H_    0.976346 0.179903 0.799103 0.284708
H5    H     H_    0.039633 0.233101 0.724074 0.236122
C4    C     C_3   0.700687 0.211669 0.367620 0.479439
H6    H     H_    0.799328 0.260126 0.402369 0.109059
H7    H     H_    0.599257 0.233975 0.406106 0.121244
C5    C     C_3   0.756106 0.094814 0.352763 -1.069604
H8    H     H_    0.689330 0.046955 0.293895 0.283542
H9    H     H_    0.884456 0.077269 0.344797 0.266257
H10   H     H_    0.732473 0.070080 0.405594 0.252319
Ba1   Ba    Ba6+2 0.363950 0.459210 0.542370 1.560624
C6    C     C_3   0.703025 0.821990 0.738263 0.727900
H11   H     H_    0.809539 0.762649 0.725869 0.056992
C7    C     C_3   0.720885 0.888002 0.833183 -1.130446
H12   H     H_    0.755306 0.837574 0.874043 0.263794
H13   H     H_    0.607493 0.934677 0.850347 0.306891
H14   H     H_    0.810708 0.944753 0.847748 0.247221
C8    C     C_3   0.212679 0.162429 0.263862 0.522262
H15   H     H_    0.231895 0.242095 0.266276 -0.048012
C9    C     C_3   0.144483 0.101763 0.169365 -0.068204
H16   H     H_    0.241700 0.044471 0.138619 0.080094
P4    P     P_3+3 0.596300 0.359310 0.301480 0.443879
O12   O     O_2   0.760640 0.388070 0.287860 -0.341808
O13   O     O_3   0.539890 0.415780 0.396140 -0.489632
O14   O     O_3   0.988230 0.598670 0.340870 -0.377282
O15   O     O_3   0.651800 0.225451 0.288041 -0.550623
P5    P     P_3+3 0.525815 0.799793 0.388055 0.492074
O16   O     O_3   0.122980 0.641570 0.544110 -0.369596
O17   O     O_3   0.578090 0.665290 0.384530 -0.405533
O18   O     O_2   0.683011 0.853174 0.415515 -0.401260
O19   O     O_3   0.475780 0.791842 0.280394 -0.560128
Ba2   Ba    Ba6+2 0.825880 0.540700 0.457630 1.544529
P6    P     P_3+3 0.199990 0.458908 0.769949 0.416783
C10   C     C_3   0.373361 0.288897 0.757359 0.373057
H17   H     H_    0.298085 0.251955 0.696396 0.103719
O20   O     O_3   0.066730 0.358340 0.455880 -0.424203
C11   C     C_3   0.176412 0.809815 0.732433 0.480939
H18   H     H_    0.272828 0.774640 0.691402 0.112262
C12   C     C_3   0.218643 0.920358 0.792269 -0.632398
H19   H     H_    0.109847 0.976815 0.790727 0.196953
H20   H     H_    0.313926 0.940346 0.766013 0.164394
P7    P     P_3+3 0.040579 0.781073 0.572448 0.446073
O21   O     O_2   0.852540 0.775600 0.541830 -0.290588
O22   O     O_3   0.031264 0.825185 0.682948 -0.645101
H21   H     H_    0.048772 0.307995 0.836159 0.277907
C13   C     C_3   0.506151 0.686687 0.226178 0.428352
H22   H     H_    0.633853 0.658498 0.237329 0.168465
H23   H     H_    0.433168 0.633834 0.239094 0.058237
C14   C     C_3   0.459846 0.681055 0.132049 -0.495270
H24   H     H_    0.338941 0.654893 0.109385 0.219796
H25   H     H_    0.456826 0.760889 0.126382 0.189719
P8    P     P_3+3 0.978445 0.555519 0.227613 0.408232
C15   C     C_3   0.915613 0.755511 0.239161 0.458135
O23   O     O_2   0.853682 0.475369 0.196231 -0.414886
O24   O     O_3   0.887100 0.653711 0.183937 -0.582303
H26   H     H_    0.902776 0.766037 0.306505 0.120696
H27   H     H_    0.764408 0.808251 0.140532 0.315607
C16   C     C_3   0.794853 0.836236 0.210582 -1.046889
H28   H     H_    0.844424 0.912555 0.227683 0.228598
H29   H     H_    0.685820 0.851535 0.241162 0.287962
C17   C     C_2   0.288047 0.459473 0.240341 -0.271635
C18   C     C_R   0.885793 0.543268 0.753536 -0.525478
C19   C     C_2   0.434940 0.329843 0.131281 -0.042095
C20   C     C_2   0.434546 0.386332 0.215173 0.165122
C21   C     C_2   0.169978 0.484855 0.184771 0.214983
C22   C     C_3   0.208953 0.461044 0.094824 -0.136454
C23   C     C_3   0.299862 0.349708 0.063825 0.056279
C24   C     C_2   0.080436 0.490401 0.029900 -0.042064
C25   C     C_2   0.116730 0.514704 0.963445 -0.118252
C26   C     C_R   0.854409 0.608175 0.926775 0.047212
C27   C     C_R   0.993232 0.546162 0.899107 -0.018280
C28   C     C_R   0.731986 0.638910 0.870666 -0.288068
C29   C     C_R   0.743760 0.602344 0.781079 0.248509
C30   C     C_R   0.011566 0.519195 0.811455 0.204828
H30   H     H_    0.902423 0.519888 0.686845 0.181075
H31   H     H_    0.956806 0.491791 0.037490 0.187921
H32   H     H_    0.241035 0.510831 0.955974 0.180822
C31   C     C_R   0.289256 0.834246 0.499616 -0.400696
C32   C     C_R   0.956010 0.194735 0.534375 -0.470006
C33   C     C_R   0.926124 0.030870 0.559332 -0.239984
C34   C     C_R   0.869884 0.136749 0.563032 0.258399
C35   C     C_R   0.089902 0.148769 0.492126 0.287712
C36   C     C_R   0.153167 0.039223 0.490503 -0.005435
C37   C     C_R   0.070138 0.979792 0.525948 0.052409
C38   C     C_R   0.136791 0.873387 0.529333 0.094835
C39   C     C_R   0.358813 0.882898 0.454615 0.331390
C40   C     C_R   0.296342 0.987334 0.455818 -0.227041
H33   H     H_    0.858824 0.990020 0.585142 0.169801
H34   H     H_    0.364153 0.030255 0.433360 0.189578
H35   H     H_    0.911146 0.276315 0.540662 0.150074
N1    N     N_2   0.702624 0.889731 0.687398 -0.063662
H36   H     H_    0.798248 0.933748 0.704796 0.181691
C41   C     C_3   0.558400 0.957964 0.682072 -0.741986
H37   H     H_    0.538171 0.003196 0.747440 0.202557
H38   H     H_    0.452209 0.915731 0.654814 0.252156
H39   H     H_    0.569860 0.006248 0.642598 0.268302
N2    N     N_2   0.365586 0.109571 0.286017 -0.123029
H40   H     H_    0.449351 0.121297 0.254301 0.163231
C42   C     C_3   0.374887 0.998408 0.275585 -0.906355
H41   H     H_    0.265952 0.978907 0.292054 0.276396
H42   H     H_    0.394563 0.948837 0.209363 0.228632
H43   H     H_    0.480121 0.979523 0.317719 0.289318
N3    N     N_2   0.097345 0.172672 0.119205 -0.115702
H44   H     H_    0.190498 0.206370 0.110779 0.166232
C43   C     C_3   0.957055 0.246017 0.138549 -0.678329
H45   H     H_    0.924109 0.286077 0.089488 0.235191
H46   H     H_    0.982390 0.304895 0.201703 0.250310
H47   H     H_    0.856615 0.204199 0.139594 0.271741
N4    N     N_2   0.013747 0.041301 0.164508 -0.066391
H48   H     H_    0.032518 0.001250 0.208009 0.203389
C44   C     C_3   0.957349 0.974184 0.079692 -0.770843
H49   H     H_    0.853184 0.936430 0.082789 0.269960
H50   H     H_    0.052885 0.911021 0.053301 0.252506
H51   H     H_    0.918463 0.021359 0.035861 0.269894
C45   C     C_2   0.312344 0.140598 0.790511 0.961563
O25   O     O_2   0.263607 0.144221 0.855888 -0.633015
O26   O     O_R   0.241437 0.083871 0.709282 -0.860387
H52   H     H_    0.136766 0.057810 0.708129 0.315150
N5    N     N_2   0.161721 0.735691 0.775876 -0.054042
H53   H     H_    0.133478 0.662952 0.733798 0.203787
C46   C     C_3   0.083721 0.768850 0.852594 -0.833919
H54   H     H_    0.982199 0.724343 0.842548 0.206115
H55   H     H_    0.034453 0.852321 0.871082 0.246347
H56   H     H_    0.168367 0.754220 0.905999 0.280855
C47   C     C_2   0.273193 0.941417 0.885207 1.156845
O27   O     O_2   0.402714 0.903483 0.909437 -0.656405
O28   O     O_R   0.177411 0.011467 0.944459 -0.794371
H57   H     H_    0.229282 0.019620 0.004291 0.308104
N6    N     N_2   0.534000 0.239989 0.876761 -0.074835
H58   H     H_    0.468476 0.282415 0.926164 0.227446
C48   C     C_3   0.661272 0.164475 0.896549 -0.847041
H59   H     H_    0.746387 0.205272 0.950696 0.277455
H60   H     H_    0.730901 0.124250 0.841862 0.267019
H61   H     H_    0.610534 0.105509 0.913805 0.245609
N7    N     N_2   0.569361 0.608803 0.075896 -0.097148
H62   H     H_    0.672637 0.636881 0.073277 0.261771
C49   C     C_3   0.580451 0.497902 0.066983 -0.813225
H63   H     H_    0.572550 0.487644 0.128503 0.252662
H64   H     H_    0.695989 0.457289 0.045707 0.280888
H65   H     H_    0.484177 0.460651 0.018720 0.228043
C50   C     C_2   0.076072 0.777725 0.231772 0.931732
O29   O     O_2   0.175687 0.795191 0.294085 -0.694376
O30   O     O_R   0.105739 0.785997 0.155227 -0.801719
H66   H     H_    0.202967 0.823642 0.162631 0.316328
C51   C     C_2   0.748862 0.366160 0.845834 0.959809
O31   O     O_2   0.811503 0.356644 0.914020 -0.687458
O32   O     O_R   0.619291 0.442113 0.844035 -0.795408
H67   H     H_    0.584270 0.481648 0.902249 0.337248
N8    N     N_2   0.563040 0.251482 0.104759 -0.084379
H68   H     H_    0.622193 0.268923 0.063742 0.185714
C52   C     C_3   0.521103 0.143906 0.072934 -0.849908
H69   H     H_    0.629201 0.087664 0.056339 0.259380
H70   H     H_    0.432406 0.132599 0.015160 0.272807
H71   H     H_    0.471298 0.125711 0.122411 0.232381
C53   C     C_2   0.598835 0.708962 0.912111 1.122683
O33   O     O_2   0.463339 0.703697 0.876672 -0.556248
O34   O     O_R   0.628481 0.779984 0.994639 -0.840852
H72   H     H_    0.527736 0.819979 0.019417 0.330132
N9    N     N_2   0.272613 0.506000 0.326270 -0.108005
H73   H     H_    0.370877 0.542288 0.357376 0.229264
C54   C     C_3   0.202740 0.442917 0.362003 -0.449496
H74   H     H_    0.161118 0.494928 0.422001 0.298417
H75   H     H_    0.286474 0.377214 0.372718 0.201469
H76   H     H_    0.096153 0.409557 0.320629 0.198197
C55   C     C_2   0.395143 0.747846 0.521564 1.012950
O35   O     O_2   0.532635 0.761447 0.552381 -0.571743
O36   O     O_R   0.355756 0.646314 0.489653 -0.784243
H77   H     H_    0.453062 0.594174 0.491574 0.374785

loop_
_geom_bond_atom_site_label_1
_geom_bond_atom_site_label_2
_geom_bond_distance
_ccdc_geom_bond_type
C33   C37   1.415905 A    
Ba1   Ba2   4.808363 S    
C25   H32   1.081718 S    
C35   C36   1.484630 A    
C4    O15   1.399164 S    
P4    O12   1.585500 D    
C46   H56   1.108596 S    
C17   C21   1.343971 D    
N4    H48   1.027901 S    
C41   H38   1.096466 S    
N9    H73   1.012437 S    
C8    N2    1.444089 S    
C19   N8    1.411721 S    
C10   H17   1.114599 S    
C55   O35   1.217802 D    
P5    O18   1.550628 D    
C5    H8    1.100011 S    
C8    H15   1.098097 S    
C9    N3    1.451634 S    
C40   H34   1.067929 S    
O3    P6    1.756077 S    
C49   H63   1.102875 S    
C46   H55   1.094032 S    
O6    P6    1.718788 S    
O30   H66   1.008867 S    
C14   N7    1.447233 S    
C17   C20   1.491633 S    
C22   C23   1.537556 S    
C55   O36   1.362270 S    
C52   H69   1.108636 S    
C12   H20   1.095451 S    
P4    C20   1.920200 S    
P5    C39   1.927878 S    
C7    H14   1.107901 S    
C18   C30   1.403157 A    
C11   H18   1.105507 S    
O14   P8    1.780263 S    
P1    O1    1.585117 D    
C4    C5    1.518914 S    
P7    O22   1.756080 S    
C42   H41   1.106662 S    
C53   O33   1.211918 D    
C18   C29   1.398347 A    
C2    C51   1.503586 S    
C21   C22   1.516250 S    
O17   Ba2   2.874256 S    
C33   C34   1.417407 A    
P2    Ba1   3.548876 S    
C11   C12   1.543530 S    
C14   H24   1.108346 S    
C13   H23   1.110873 S    
C48   H61   1.100894 S    
C24   H31   1.081883 S    
P3    O11   1.744273 S    
C4    H6    1.106960 S    
C6    C7    1.531914 S    
O4    P6    1.530310 D    
C5    H10   1.106218 S    
C26   C28   1.400355 A    
C1    H2    1.074125 S    
N7    C49   1.440556 S    
C54   H76   1.103908 S    
O12   Ba2   2.913024 S    
C31   C39   1.402479 A    
C1    C45   1.481126 S    
N8    C52   1.444091 S    
O5    C6    1.415128 S    
C32   H35   1.082102 S    
P4    O13   1.628318 S    
C51   O31   1.221249 D    
P7    O21   1.609406 D    
Ba2   O21   3.021952 S    
O8    Ba1   2.873581 S    
C15   H26   1.112963 S    
C41   H37   1.085754 S    
C54   H75   1.094951 S    
C7    H12   1.100590 S    
N1    C41   1.428692 S    
C16   H29   1.096221 S    
P5    O17   1.782165 S    
O28   H57   1.005283 S    
C22   C24   1.521967 S    
P1    O5    1.734700 S    
O7    Ba1   3.021755 S    
P7    C38   1.971482 S    
C46   H54   1.089065 S    
C47   O28   1.392297 S    
C31   C55   1.472525 S    
C28   C29   1.429903 A    
P8    O23   1.537935 D    
O2    Ba2   2.934291 S    
C2    H3    1.104746 S    
O16   Ba2   2.984414 S    
Ba2   O20   2.946370 S    
C12   H19   1.109161 S    
C16   H28   1.101840 S    
N1    H36   1.028979 S    
C28   C53   1.466237 S    
P1    O2    1.628319 S    
C42   H43   1.102745 S    
C17   N9    1.382582 S    
C3    H21   1.105252 S    
O2    Ba1   3.021159 S    
C44   H50   1.110675 S    
C15   C16   1.524885 S    
C11   N5    1.455328 S    
P2    O10   1.780865 S    
Ba1   O16   2.946984 S    
N9    C54   1.438348 S    
C6    H11   1.111083 S    
P3    O9    1.547482 D    
C13   C14   1.543617 S    
O11   C2    1.411421 S    
C11   O22   1.403309 S    
P6    C30   1.821497 S    
P2    C35   1.956765 S    
C53   O34   1.397188 S    
H27   C16   1.104331 S    
N7    H62   1.026259 S    
N5    C46   1.450251 S    
O36   H77   1.005889 S    
C43   H47   1.103733 S    
O14   Ba2   2.946240 S    
C15   O24   1.400146 S    
O34   H72   1.013027 S    
C25   C27   1.503041 S    
C13   H22   1.105865 S    
P1    C29   1.880137 S    
C32   C34   1.393148 A    
O32   H67   1.010114 S    
C48   H60   1.109920 S    
Ba1   O13   2.933798 S    
C44   H51   1.109882 S    
C1    C10   1.491051 S    
C3    H5    1.104678 S    
N3    C43   1.435816 S    
C9    H16   1.105984 S    
P2    O20   1.670904 S    
C54   H74   1.091368 S    
C27   C30   1.420271 A    
C43   H46   1.096615 S    
P8    C21   1.881957 S    
C39   C40   1.420924 A    
P5    O19   1.758066 S    
N8    H68   1.024666 S    
P4    O15   1.738983 S    
C9    N4    1.458930 S    
C49   H65   1.102251 S    
N6    C48   1.448543 S    
O26   H52   1.006009 S    
N4    C44   1.450989 S    
H1    C10   1.099443 S    
O16   P7    1.829310 S    
P8    O24   1.748169 S    
C45   O26   1.403122 S    
C45   O25   1.221229 D    
C32   C35   1.394670 A    
C33   H33   1.080753 S    
Ba1   O20   2.985308 S    
O10   C8    1.410873 S    
C1    N6    1.451191 S    
C5    H9    1.106290 S    
C15   C50   1.482134 S    
O1    Ba1   2.912535 S    
C47   O27   1.212450 D    
C50   O29   1.214075 D    
C51   O32   1.390540 S    
C44   H49   1.108899 S    
P3    O8    1.745401 S    
C8    C9    1.574836 S    
C19   C23   1.538476 S    
C18   H30   1.082487 S    
P2    O7    1.544441 D    
O13   Ba2   3.022021 S    
C52   H70   1.109255 S    
C49   H64   1.103478 S    
P1    Ba1   3.478109 S    
C7    H13   1.094154 S    
C6    N1    1.448675 S    
N2    C42   1.439355 S    
N2    H40   1.020556 S    
C36   C40   1.420408 A    
C2    C3    1.497917 S    
N6    H58   1.029009 S    
C4    H7    1.109924 S    
C36   C37   1.464891 A    
O19   C13   1.409222 S    
C42   H42   1.109080 S    
P3    C34   1.857579 S    
C31   C38   1.430934 A    
N5    H53   1.030401 S    
C12   C47   1.493871 S    
C3    H4    1.110504 S    
C24   C25   1.359483 D    
C14   H25   1.108951 S    
C19   C20   1.353255 D    
C37   C38   1.475663 A    
N3    H44   1.027124 S    
O6    C10   1.385348 S    
C48   H59   1.105112 S    
C26   C27   1.389646 A    
P4    Ba2   3.478742 S    
C41   H39   1.100558 S    
O3    Ba1   2.946737 S    
C50   O30   1.395118 S    
C43   H45   1.109821 S    
C52   H71   1.105696 S    
