data_mof_unit_44497.cif
_audit_creation_date              2012-12-10T19:48:01-0500
_audit_creation_method            fapswitch 2.2
_symmetry_space_group_name_H-M    P1
_symmetry_Int_Tables_number       1
_space_group_crystal_system       triclinic
_cell_length_a                    15.012423
_cell_length_b                    14.103776
_cell_length_c                    10.615193
_cell_angle_alpha                 90.247639
_cell_angle_beta                  89.996088
_cell_angle_gamma                 89.995988
_cell_volume                      2247.55346095

loop_
_atom_site_label
_atom_site_type_symbol
_atom_type_description
_atom_site_fract_x
_atom_site_fract_y
_atom_site_fract_z
_atom_type_partial_charge
C1    C     C_R   0.327660 0.500010 0.499903 0.862789
C2    C     C_R   0.569493 0.795509 0.552411 0.024114
C3    C     C_R   0.541598 0.204901 0.594520 0.022688
C4    C     C_R   0.430550 0.795242 0.447561 -0.000098
C5    C     C_R   0.500245 0.053371 0.499631 0.139944
C6    C     C_R   0.500187 0.946628 0.499702 0.138360
C7    C     C_R   0.514333 0.499752 0.260529 0.892710
C8    C     C_R   0.486803 0.500336 0.740001 0.892311
C9    C     C_R   0.557226 0.672329 0.112309 -0.176004
C10   C     C_R   0.445877 0.328008 0.890015 -0.173934
C11   C     C_R   0.458564 0.676731 0.891616 -0.199383
C12   C     C_R   0.672342 0.500006 0.500103 0.861336
C13   C     C_R   0.546989 0.324399 0.108881 -0.206993
C14   C     C_R   0.538161 0.759859 0.057147 0.138835
C15   C     C_R   0.466007 0.241003 0.945567 0.124153
C16   C     C_R   0.485112 0.762491 0.947806 0.109966
C17   C     C_R   0.520871 0.238580 0.052602 0.094288
C18   C     C_R   0.485058 0.588194 0.941653 0.062052
C19   C     C_R   0.519317 0.412554 0.059031 0.067116
C20   C     C_R   0.524695 0.586525 0.060353 0.040435
C21   C     C_R   0.478971 0.414014 0.940777 0.038817
C22   C     C_R   0.473627 0.501289 0.876244 -0.220854
C23   C     C_R   0.048094 0.500115 0.499961 0.116363
C24   C     C_R   0.529611 0.499220 0.124749 -0.220912
C25   C     C_R   0.094101 0.579576 0.455773 -0.180534
C26   C     C_R   0.905945 0.420320 0.455747 -0.178393
C27   C     C_R   0.905903 0.579915 0.543922 -0.179971
C28   C     C_R   0.094058 0.420653 0.544259 -0.178301
C29   C     C_R   0.186051 0.579786 0.456502 -0.194396
C30   C     C_R   0.813991 0.420062 0.456471 -0.202173
C31   C     C_R   0.813953 0.580113 0.543260 -0.191250
C32   C     C_R   0.186012 0.420395 0.543601 -0.200657
C33   C     C_R   0.231948 0.500060 0.500009 -0.023658
C34   C     C_R   0.951910 0.500120 0.499863 0.116240
C35   C     C_R   0.768055 0.500053 0.499946 -0.022714
C36   C     C_R   0.458165 0.104910 0.402976 -0.278678
C37   C     C_R   0.571184 0.894940 0.552630 -0.270907
C38   C     C_R   0.542316 0.105464 0.596334 -0.276614
C39   C     C_R   0.429048 0.894683 0.447043 -0.300223
C40   C     C_R   0.458491 0.204374 0.405330 0.008924
H1    H     H_    0.598910 0.671916 0.195590 0.169074
H2    H     H_    0.778936 0.358122 0.421634 0.149660
H3    H     H_    0.778876 0.642046 0.578095 0.145854
H4    H     H_    0.221069 0.358725 0.578585 0.153097
H5    H     H_    0.426361 0.069075 0.324693 0.143634
H6    H     H_    0.628456 0.930624 0.592509 0.133373
H7    H     H_    0.574604 0.070044 0.674114 0.130099
H8    H     H_    0.371864 0.930204 0.407039 0.136180
H9    H     H_    0.425917 0.243238 0.330763 0.146068
H10   H     H_    0.624142 0.756605 0.593823 0.127712
H11   H     H_    0.574142 0.244154 0.669203 0.136920
H12   H     H_    0.403163 0.327894 0.807797 0.168725
H13   H     H_    0.375835 0.756127 0.406244 0.128895
H14   H     H_    0.583572 0.159785 0.188223 0.186849
H15   H     H_    0.590437 0.116625 0.041505 0.175337
H16   H     H_    0.427271 0.840974 0.807170 0.190763
H17   H     H_    0.413617 0.883328 0.953900 0.171865
H18   H     H_    0.484273 0.111958 0.866015 0.186079
H19   H     H_    0.393711 0.120847 0.959881 0.194641
H20   H     H_    0.536545 0.855218 0.199189 0.189328
H21   H     H_    0.562174 0.903947 0.059552 0.202851
H22   H     H_    0.415470 0.679734 0.810009 0.159449
H23   H     H_    0.589855 0.321975 0.190812 0.155340
H24   H     H_    0.058934 0.640808 0.419721 0.130498
H25   H     H_    0.941151 0.358837 0.419816 0.131228
H26   H     H_    0.941069 0.641422 0.579837 0.130536
H27   H     H_    0.058852 0.359443 0.580295 0.131768
H28   H     H_    0.221131 0.641453 0.421571 0.144236
N1    N     N_R   0.500000 0.252470 0.500000 -0.099927
N2    N     N_R   0.500000 0.747530 0.500000 -0.096348
N3    N     N_3   0.547090 0.149205 0.105454 -0.483941
N4    N     N_3   0.459785 0.851596 0.893212 -0.477266
N5    N     N_3   0.430968 0.155788 0.891017 -0.464947
N6    N     N_3   0.572309 0.844390 0.115847 -0.466754
O1    O     O_R   0.369060 0.579480 0.500010 -0.635178
O2    O     O_R   0.630940 0.420520 0.499990 -0.626769
O3    O     O_R   0.630940 0.579480 0.499990 -0.635145
O4    O     O_R   0.369060 0.420520 0.500010 -0.623602
O5    O     O_R   0.499990 0.579480 0.316780 -0.616837
O6    O     O_R   0.500010 0.420520 0.683220 -0.624298
O7    O     O_R   0.500010 0.579480 0.683220 -0.614967
O8    O     O_R   0.499990 0.420520 0.316780 -0.624061
Zn1   Zn    Zn3+2 0.500000 0.606140 0.500000 0.931820
Zn2   Zn    Zn3+2 0.500000 0.393860 0.500000 0.933365

loop_
_geom_bond_atom_site_label_1
_geom_bond_atom_site_label_2
_ccdc_geom_bond_type
C11   C18   A    
C4    H13   S    
C16   N4    S    
O6    Zn2   S    
C11   H22   S    
C10   H12   S    
O2    Zn2   S    
C4    N2    A    
C1    C33   S    
C31   H3    S    
C30   C35   A    
C14   N6    S    
C3    N1    A    
C10   C15   A    
C5    C6    S    
O3    Zn1   S    
C7    C24   S    
C5    C36   A    
C29   C33   A    
C2    H10   S    
C26   C34   A    
H14   N3    S    
C20   C24   A    
C3    C38   A    
H16   N4    S    
C8    C22   S    
H19   N5    S    
C18   C20   A    
C27   C34   A    
C21   C22   A    
C1    O4    A    
O7    Zn1   S    
C10   C21   A    
C25   C29   A    
C40   N1    A    
C13   C19   A    
C27   C31   A    
C8    O7    A    
C1    O1    A    
N1    Zn2   S    
C28   C32   A    
C28   H27   S    
C3    H11   S    
C25   H24   S    
C9    C14   A    
C29   H28   S    
C11   C16   A    
C9    C20   A    
C13   H23   S    
C4    C39   A    
C36   C40   A    
C23   C34   S    
C12   O3    A    
C32   H4    S    
C6    C37   A    
C36   H5    S    
C23   C28   A    
C12   C35   S    
N2    Zn1   S    
C38   H7    S    
C15   N5    S    
C26   C30   A    
O8    Zn2   S    
C12   O2    A    
C31   C35   A    
C7    O5    A    
C15   C17   A    
C19   C21   A    
C18   C22   A    
C26   H25   S    
C17   N3    S    
H21   N6    S    
C9    H1    S    
C13   C17   A    
C32   C33   A    
C19   C24   A    
C27   H26   S    
C2    N2    A    
O5    Zn1   S    
C2    C37   A    
O1    Zn1   S    
H20   N6    S    
C14   C16   A    
C23   C25   A    
H17   N4    S    
O4    Zn2   S    
C7    O8    A    
C8    O6    A    
C6    C39   A    
C30   H2    S    
C37   H6    S    
C5    C38   A    
H15   N3    S    
C40   H9    S    
H18   N5    S    
C39   H8    S    
