data_mof_unit_68266.cif
_audit_creation_date              2013-03-05T16:01:57-0500
_audit_creation_method            fapswitch 2.2
_symmetry_space_group_name_H-M    P1
_symmetry_Int_Tables_number       1
_space_group_crystal_system       triclinic
_cell_length_a                    8.335376
_cell_length_b                    14.478951
_cell_length_c                    15.042764
_cell_angle_alpha                 96.351365
_cell_angle_beta                  97.715765
_cell_angle_gamma                 91.731652
_cell_volume                      1786.12138521

loop_
_atom_site_label
_atom_site_type_symbol
_atom_site_description
_atom_site_fract_x
_atom_site_fract_y
_atom_site_fract_z
_atom_type_partial_charge
P1    P     P_3+3 0.018620 0.416870 0.295980 0.509790
O1    O     O_2   0.841250 0.444240 0.280450 -0.376809
O2    O     O_3   0.112870 0.447390 0.393710 -0.383040
O3    O     O_3   0.597960 0.615760 0.327700 -0.416714
O4    O     O_2   0.687160 0.537246 0.174782 -0.341268
O5    O     O_3   0.023121 0.294971 0.276810 -0.527423
O6    O     O_3   0.602036 0.707217 0.170065 -0.469261
H1    H     H_    0.647156 0.782359 0.296917 0.134534
C1    C     C_3   0.591349 0.872074 0.193740 -0.741672
H2    H     H_    0.716806 0.879510 0.177734 0.299727
H3    H     H_    0.505684 0.874992 0.131026 0.274033
P2    P     P_3+3 0.635650 0.716500 0.560900 0.568741
P3    P     P_3+3 0.052685 0.777359 0.347867 0.508760
O7    O     O_2   0.802240 0.729720 0.532850 -0.401915
O8    O     O_3   0.017190 0.664840 0.371090 -0.320232
O9    O     O_2   0.948337 0.836136 0.408541 -0.368026
O10   O     O_3   0.641483 0.759914 0.675631 -0.474064
O11   O     O_3   0.961867 0.789399 0.237942 -0.521332
C2    C     C_3   0.059714 0.754415 0.173717 0.779991
H4    H     H_    0.147828 0.703841 0.198803 -0.042791
C3    C     C_3   0.147963 0.834508 0.139962 -0.825851
H5    H     H_    0.059351 0.881050 0.108268 0.313000
H6    H     H_    0.226388 0.876005 0.196361 0.216060
C4    C     C_3   0.156405 0.768864 0.681847 0.478973
H7    H     H_    0.033580 0.770009 0.695600 -0.051781
C5    C     C_3   0.226284 0.870759 0.713019 0.287052
H8    H     H_    0.121063 0.915851 0.715000 0.072241
Ba1   Ba    Ba6+2 0.833410 0.543320 0.453520 1.644910
C6    C     C_3   0.894102 0.248889 0.306726 0.254180
H9    H     H_    0.796744 0.294810 0.322795 0.062440
H10   H     H_    0.942041 0.218356 0.368632 0.057906
C7    C     C_3   0.823452 0.170222 0.234302 0.364598
H11   H     H_    0.712462 0.138692 0.253918 0.084616
C8    C     C_3   0.758166 0.719732 0.733367 0.574905
H12   H     H_    0.848262 0.681800 0.698247 -0.022360
C9    C     C_3   0.826963 0.789445 0.816501 -0.087997
H13   H     H_    0.938645 0.761678 0.848934 0.129007
H14   H     H_    0.742253 0.793464 0.867675 0.225729
P4    P     P_3+3 0.171070 0.583210 0.704020 0.561623
O12   O     O_2   0.348460 0.555790 0.719610 -0.270387
O13   O     O_3   0.076820 0.552690 0.606290 -0.373898
O14   O     O_3   0.591740 0.384320 0.672310 -0.344200
O15   O     O_3   0.240379 0.702793 0.728660 -0.492843
P5    P     P_3+3 0.140994 0.214033 0.625845 0.533942
O16   O     O_3   0.629090 0.386360 0.459240 -0.414654
O17   O     O_3   0.172500 0.335240 0.628910 -0.414809
O18   O     O_2   0.278963 0.169249 0.579680 -0.259701
O19   O     O_3   0.177638 0.184354 0.737078 -0.500237
Ba2   Ba    Ba6+2 0.356410 0.456750 0.546480 1.683232
P6    P     P_3+3 0.559478 0.601417 0.210302 0.474978
C10   C     C_3   0.565572 0.780550 0.231858 0.432170
H15   H     H_    0.437373 0.773418 0.243096 -0.019854
H16   H     H_    0.571492 0.930836 0.244172 0.208863
O20   O     O_3   0.560600 0.613720 0.540760 -0.357280
C11   C     C_3   0.445542 0.327907 0.275674 0.357133
H17   H     H_    0.352689 0.359509 0.314245 0.111819
H18   H     H_    0.546610 0.379616 0.275984 0.104173
C12   C     C_3   0.369201 0.298229 0.178634 -0.727691
H19   H     H_    0.249401 0.262398 0.177581 0.309673
H20   H     H_    0.354790 0.358874 0.140218 0.189007
H21   H     H_    0.446175 0.249270 0.143803 0.297167
P7    P     P_3+3 0.553931 0.270662 0.428598 0.482760
O21   O     O_2   0.387470 0.270310 0.467210 -0.282766
O22   O     O_3   0.504401 0.248690 0.311524 -0.547446
H22   H     H_    0.224541 0.806658 0.089142 0.255409
C13   C     C_3   0.222917 0.265890 0.796742 0.267801
H23   H     H_    0.320128 0.305517 0.772209 0.157357
H24   H     H_    0.117732 0.310805 0.800128 0.005306
C14   C     C_3   0.290445 0.244662 0.892436 0.369632
H25   H     H_    0.385641 0.298563 0.922738 0.094928
P8    P     P_3+3 0.642485 0.389217 0.789402 0.473663
C15   C     C_3   0.721109 0.216514 0.782403 0.717312
H26   H     H_    0.823325 0.251374 0.756346 -0.045202
O23   O     O_2   0.511875 0.445809 0.832397 -0.390656
O24   O     O_3   0.616472 0.278091 0.822051 -0.570582
H27   H     H_    0.906763 0.126386 0.832740 0.253829
C16   C     C_3   0.791440 0.153961 0.851397 -0.610691
H28   H     H_    0.707500 0.094036 0.854991 0.296320
H29   H     H_    0.812773 0.193708 0.919369 0.271838
C17   C     C_R   0.354192 0.549000 0.169273 0.184016
H30   H     H_    0.315813 0.530475 0.304735 0.164439
H31   H     H_    0.490112 0.605452 0.033178 0.236212
C18   C     C_R   0.115082 0.472941 0.209091 0.311285
C19   C     C_R   0.936328 0.477694 0.768980 -0.426231
C20   C     C_R   0.847482 0.440915 0.830001 0.264426
C21   C     C_R   0.910299 0.445667 0.921016 -0.186019
C22   C     C_R   0.062981 0.490005 0.954497 0.079108
C23   C     C_R   0.147008 0.536451 0.892677 -0.152709
C24   C     C_R   0.130382 0.494577 0.048861 0.088615
C25   C     C_R   0.287783 0.536587 0.076772 -0.070218
C26   C     C_R   0.371342 0.572580 0.013156 -0.238974
C27   C     C_R   0.291725 0.588095 0.929356 0.393624
C28   C     C_R   0.048171 0.459755 0.116852 -0.174258
C29   C     C_R   0.264373 0.520614 0.234219 -0.529180
C30   C     C_R   0.081740 0.529437 0.797636 0.172124
H32   H     H_    0.932359 0.422477 0.100658 0.177302
H33   H     H_    0.885245 0.470962 0.698394 0.168211
H34   H     H_    0.836723 0.413815 0.963897 0.161112
C31   C     C_R   0.716643 0.932740 0.520272 0.012643
C32   C     C_R   0.522179 0.793600 0.481366 0.304178
C33   C     C_R   0.380656 0.755716 0.425509 -0.396686
C34   C     C_R   0.269048 0.813784 0.383222 0.180899
C35   C     C_R   0.311999 0.905857 0.381798 -0.174066
C36   C     C_R   0.461812 0.945013 0.425546 -0.032790
C37   C     C_R   0.568415 0.889778 0.476935 -0.049475
H35   H     H_    0.346840 0.682838 0.424469 0.176265
C38   C     C_R   0.645289 0.084382 0.469570 -0.126870
C39   C     C_R   0.756351 0.027702 0.516695 0.055294
C40   C     C_R   0.684917 0.182621 0.477055 0.202181
C41   C     C_R   0.832865 0.219069 0.525534 -0.465342
C42   C     C_R   0.944797 0.162253 0.566022 0.243497
C43   C     C_R   0.905638 0.067133 0.562894 -0.128010
C44   C     C_R   0.499895 0.040097 0.420551 0.316959
H36   H     H_    0.221924 0.947030 0.348314 0.209766
H37   H     H_    0.989938 0.024311 0.598760 0.183511
H38   H     H_    0.863107 0.292896 0.530680 0.160681
H39   H     H_    0.804263 0.893144 0.557014 0.183854
N1    N     N_R   0.315343 0.880240 0.804558 0.294075
O25   O     O_R   0.461603 0.851583 0.819476 -0.248635
O26   O     O_R   0.250106 0.920071 0.871829 -0.251109
N2    N     N_R   0.323987 0.908168 0.649708 0.232387
O27   O     O_R   0.479217 0.924666 0.671117 -0.266776
O28   O     O_R   0.250846 0.944422 0.580829 -0.406625
Br1   Br    Br    0.974358 0.072228 0.220913 -0.376044
Br2   Br    Br    0.769574 0.216318 0.118212 -0.439965
Br3   Br    Br    0.660144 0.623243 0.783573 -0.416467
N3    N     N_R   0.861467 0.884776 0.798851 0.266030
O29   O     O_R   0.917836 0.945867 0.866653 -0.295007
O30   O     O_R   0.820175 0.912859 0.720338 -0.389416
Br4   Br    Br    0.129978 0.250966 0.973423 -0.556656
Br5   Br    Br    0.385187 0.124589 0.894894 -0.253980
Br6   Br    Br    0.594846 0.138616 0.685160 -0.371686
Br7   Br    Br    0.918459 0.690285 0.071308 -0.452991
N4    N     N_R   0.326017 0.677242 0.902795 0.270004
O31   O     O_R   0.473570 0.712655 0.920496 -0.309319
O32   O     O_R   0.209514 0.734673 0.901111 -0.391541
N5    N     N_R   0.391658 0.087831 0.361132 0.245950
O33   O     O_R   0.398944 0.073114 0.274874 -0.371943
O34   O     O_R   0.255864 0.114366 0.387095 -0.335877
Br8   Br    Br    0.150707 0.735457 0.557855 -0.409481

loop_
_geom_bond_atom_site_label_1
_geom_bond_atom_site_label_2
_geom_bond_distance
_ccdc_geom_bond_type
C13   H24   1.110564 S    
C11   H17   1.108272 S    
C33   C34   1.408421 A    
Ba2   O21   2.861632 S    
O1    Ba1   2.839936 S    
C7    Br1   1.936128 S    
C2    H4    1.112319 S    
C1    C10   1.521515 S    
C22   C23   1.446496 A    
O2    Ba2   2.842930 S    
P4    O13   1.580790 S    
C16   H28   1.108659 S    
C4    Br8   1.868239 S    
C31   C39   1.413009 A    
N5    O34   1.301194 A    
O17   Ba2   2.795146 S    
C32   C37   1.444718 A    
P7    O21   1.574549 D    
P3    O11   1.753097 S    
P2    Ba1   3.417958 S    
C19   H33   1.082321 S    
C9    H13   1.100151 S    
C2    C3    1.524060 S    
C4    C5    1.567617 S    
O11   C2    1.408346 S    
C6    C7    1.530912 S    
C13   C14   1.540860 S    
C12   H20   1.104262 S    
O12   Ba2   2.840631 S    
C18   C28   1.414182 A    
Ba1   O13   2.842266 S    
C8    H12   1.100913 S    
C41   C42   1.386656 A    
C38   C44   1.425503 A    
P7    O22   1.745301 S    
C35   C36   1.402806 A    
C15   C16   1.522437 S    
P8    C20   1.842381 S    
P1    C18   1.868548 S    
C23   C27   1.412135 A    
C14   Br4   1.924025 S    
P2    O10   1.764008 S    
P1    Ba1   3.397753 S    
C38   C39   1.425284 A    
C5    N2    1.469478 S    
C1    H2    1.108905 S    
P5    O18   1.544386 D    
C8    Br3   1.876120 S    
C12   H21   1.106469 S    
C13   H23   1.104998 S    
C23   C30   1.451201 A    
Ba2   O20   2.813976 S    
C3    H5    1.110663 S    
N1    O25   1.298653 A    
C24   C28   1.432227 A    
C38   C40   1.439166 A    
C34   C35   1.373099 A    
C15   O24   1.407242 S    
O13   Ba2   2.941501 S    
C36   C37   1.421976 A    
O3    Ba1   2.846085 S    
P5    O17   1.761228 S    
C15   Br6   1.915568 S    
H27   C16   1.110415 S    
C16   H29   1.105942 S    
C31   C37   1.409262 A    
Ba1   O16   2.814493 S    
P2    C32   1.904628 S    
C10   H15   1.107618 S    
C35   H36   1.079229 S    
C4    H7    1.071618 S    
P4    O12   1.536841 D    
Ba1   O20   2.928756 S    
C21   C22   1.411535 A    
N4    O32   1.296917 A    
C12   H19   1.108682 S    
C20   C21   1.392083 A    
C18   C29   1.389930 A    
H31   C26   1.075669 S    
C39   C43   1.412242 A    
O3    P6    1.739958 S    
P1    O2    1.580790 S    
C19   C30   1.396274 A    
C7    Br2   1.939625 S    
N3    O30   1.297787 A    
C6    H9    1.099449 S    
C31   H39   1.074512 S    
Ba1   Ba2   4.573235 S    
O16   Ba2   2.927791 S    
C14   Br5   1.933089 S    
C11   O22   1.395313 S    
C5    H8    1.110721 S    
C11   H18   1.109199 S    
O16   P7    1.760511 S    
C19   C20   1.393353 A    
C1    H3    1.109692 S    
H1    C10   1.111517 S    
P4    C30   1.906004 S    
N2    O27   1.298983 A    
P4    Ba2   3.398434 S    
P2    O7    1.517234 D    
C28   H32   1.076484 S    
C3    H6    1.105743 S    
C44   N5    1.431226 S    
O4    P6    1.544048 D    
P3    O9    1.549148 D    
C9    N3    1.461498 S    
C1    H16   1.107345 S    
O10   C8    1.399252 S    
C17   C29   1.396612 A    
N3    O29   1.300011 A    
C41   H38   1.082750 S    
C26   C27   1.388154 A    
C33   H35   1.081823 S    
C4    O15   1.399346 S    
O2    Ba1   2.940515 S    
C42   C43   1.399972 A    
C3    H22   1.110331 S    
C27   N4    1.424736 S    
C5    N1    1.464094 S    
O6    P6    1.751791 S    
C15   H26   1.114352 S    
P6    C17   1.849112 S    
P8    O23   1.549410 D    
P4    O15   1.791381 S    
N4    O31   1.300092 A    
C2    Br7   1.937025 S    
N5    O33   1.301351 A    
O7    Ba1   2.861567 S    
C7    H11   1.108580 S    
P3    O8    1.728670 S    
C24   C25   1.419490 A    
O6    C10   1.400290 S    
C6    H10   1.106413 S    
C40   C41   1.401830 A    
P8    O24   1.749117 S    
H30   C29   1.081710 S    
C25   C26   1.392774 A    
P7    C40   1.850490 S    
P1    O1    1.536415 D    
C9    H14   1.110433 S    
O14   P8    1.748407 S    
C8    C9    1.550723 S    
C17   C25   1.416596 A    
C14   H25   1.110508 S    
C21   H34   1.076951 S    
N1    O26   1.299967 A    
N2    O28   1.300325 A    
O14   Ba2   2.845499 S    
C36   C44   1.415853 A    
O8    Ba1   2.794603 S    
P5    C42   1.851439 S    
O5    C6    1.399026 S    
C11   C12   1.521744 S    
P1    O5    1.758975 S    
C22   C24   1.448387 A    
C32   C33   1.411109 A    
O19   C13   1.410444 S    
P3    C34   1.853748 S    
C43   H37   1.080645 S    
P2    O20   1.578228 S    
P5    O19   1.762813 S    
