data_mof_unit_56490.cif
_audit_creation_date              2012-12-10T19:42:12-0500
_audit_creation_method            fapswitch 2.2
_symmetry_space_group_name_H-M    P1
_symmetry_Int_Tables_number       1
_space_group_crystal_system       triclinic
_cell_length_a                    10.910181
_cell_length_b                    10.927456
_cell_length_c                    9.721376
_cell_angle_alpha                 89.982702
_cell_angle_beta                  91.090597
_cell_angle_gamma                 89.948081
_cell_volume                      1158.77704305

loop_
_atom_site_label
_atom_site_type_symbol
_atom_type_description
_atom_site_fract_x
_atom_site_fract_y
_atom_site_fract_z
_atom_type_partial_charge
C1    C     C_R   0.501310 0.265450 0.500074 0.847030
C2    C     C_R   0.219201 0.530819 0.977419 -0.183386
C3    C     C_R   0.930899 0.514172 0.379341 -0.248500
C4    C     C_R   0.871509 0.497621 0.504071 -0.085538
C5    C     C_R   0.941724 0.480968 0.626137 -0.003736
C6    C     C_R   0.068438 0.484574 0.620330 -0.248987
C7    C     C_R   0.127989 0.500428 0.495597 -0.081120
C8    C     C_R   0.057603 0.513590 0.372884 0.005377
C9    C     C_R   0.881331 0.549576 0.859264 -0.116570
C10   C     C_R   0.840971 0.523749 0.991474 -0.122269
C11   C     C_R   0.811114 0.403689 0.027663 -0.114635
C12   C     C_R   0.262184 0.500372 0.498387 0.791779
C13   C     C_R   0.817421 0.310083 0.930164 -0.174445
C14   C     C_R   0.855765 0.335978 0.796960 -0.139480
C15   C     C_R   0.888961 0.455740 0.761539 0.143950
C16   C     C_2   0.499535 0.933102 0.386866 -0.161945
C17   C     C_2   0.491247 0.866604 0.502138 -0.321843
C18   C     C_2   0.494014 0.067126 0.387019 -0.162022
C19   C     C_2   0.507129 0.133413 0.502324 -0.322845
C20   C     C_2   0.513638 0.402378 0.922929 -0.041031
C21   C     C_2   0.521025 0.403877 0.077937 -0.074412
C22   C     C_R   0.498150 0.734562 0.500034 0.850862
C23   C     C_R   0.737645 0.498564 0.501563 0.790632
C24   C     C_R   0.208672 0.637122 0.056126 -0.202170
C25   C     C_R   0.155118 0.632357 0.185160 -0.111072
C26   C     C_R   0.111200 0.520882 0.235307 0.089111
C27   C     C_R   0.118637 0.414903 0.154646 -0.114299
C28   C     C_R   0.174942 0.418395 0.026117 0.237071
Cu1   Cu    Cu3+1 0.500020 0.500020 0.638630 0.932168
Cu2   Cu    Cu3+1 0.499980 0.499980 0.361370 0.940060
H1    H     H_    0.261654 0.536916 0.878372 0.158017
H2    H     H_    0.781898 0.383088 0.130792 0.137725
H3    H     H_    0.793243 0.217445 0.958069 0.121361
H4    H     H_    0.862420 0.262627 0.722575 0.114945
H5    H     H_    0.509031 0.888484 0.287777 0.161005
H6    H     H_    0.476444 0.907602 0.601725 0.143447
H7    H     H_    0.480790 0.111953 0.288047 0.156174
H8    H     H_    0.524994 0.092297 0.601944 0.141194
H9    H     H_    0.524159 0.314310 0.873509 0.156047
H10   H     H_    0.496670 0.582689 0.893880 0.189511
H11   H     H_    0.545956 0.318794 0.128414 0.139209
H12   H     H_    0.243145 0.723091 0.017441 0.131960
H13   H     H_    0.470471 0.577875 0.105448 0.199110
H14   H     H_    0.148878 0.714790 0.246461 0.120492
H15   H     H_    0.081739 0.329778 0.193067 0.122811
H16   H     H_    0.878508 0.527253 0.285295 0.156408
H17   H     H_    0.120500 0.471619 0.714538 0.154189
H18   H     H_    0.907608 0.642175 0.833274 0.117963
H19   H     H_    0.834114 0.596890 0.065789 0.121139
N1    N     N_2   0.498640 0.498660 0.846910 -0.291258
N2    N     N_2   0.498610 0.498630 0.153040 -0.276306
O1    O     O_R   0.500020 0.321960 0.617040 -0.589559
O2    O     O_R   0.499980 0.321920 0.382900 -0.582435
O3    O     O_R   0.319660 0.500030 0.617070 -0.598515
O4    O     O_R   0.319620 0.499990 0.382930 -0.557879
O5    O     O_R   0.500020 0.678080 0.617100 -0.588415
O6    O     O_R   0.499980 0.678040 0.382960 -0.580982
O7    O     O_R   0.680380 0.500010 0.617070 -0.559744
O8    O     O_R   0.680340 0.499970 0.382930 -0.588773
C29   C     C_3   0.184338 0.303945 0.939691 -0.428661
C30   C     C_3   0.249906 0.199683 0.015926 -0.852294
H20   H     H_    0.339672 0.230434 0.058281 0.252112
H21   H     H_    0.193364 0.164994 0.101309 0.244135
H22   H     H_    0.265753 0.122913 0.943554 0.237086
H23   H     H_    0.090786 0.273217 0.909307 0.209763
H24   H     H_    0.235002 0.322942 0.843894 0.211285

loop_
_geom_bond_atom_site_label_1
_geom_bond_atom_site_label_2
_ccdc_geom_bond_type
C14   H4    S    
C23   O7    A    
C2    C28   A    
Cu2   N2    S    
C24   C25   A    
C13   H3    S    
Cu1   Cu2   S    
Cu1   O5    S    
C30   H22   S    
C24   H12   S    
C9    C10   A    
C3    H16   S    
C17   C22   S    
C22   O5    A    
Cu1   O3    S    
Cu2   O8    S    
C27   H15   S    
C22   O6    A    
C1    O1    A    
C9    C15   A    
C29   H24   S    
C7    C8    A    
C25   C26   A    
C13   C14   A    
Cu1   O7    S    
C23   O8    A    
C11   C13   A    
H13   N2    S    
C26   C27   A    
C6    C7    A    
C29   C30   S    
C21   H11   S    
C5    C6    A    
C25   H14   S    
C17   H6    S    
C18   H7    S    
C11   H2    S    
C3    C8    A    
Cu1   N1    S    
C28   C29   S    
C16   H5    S    
C2    C24   A    
C30   H20   S    
Cu2   O2    S    
H10   N1    S    
C7    C12   S    
C5    C15   S    
C12   O4    A    
C1    C19   S    
C10   C11   A    
C3    C4    A    
Cu2   O6    S    
C21   N2    D    
C19   H8    S    
C8    C26   S    
C20   C21   S    
C9    H18   S    
C16   C18   S    
C18   C19   D    
C6    H17   S    
C27   C28   A    
C30   H21   S    
C20   H9    S    
C1    O2    A    
C14   C15   A    
C4    C5    A    
C20   N1    D    
C4    C23   S    
C10   H19   S    
Cu2   O4    S    
C12   O3    A    
C16   C17   D    
C2    H1    S    
C29   H23   S    
Cu1   O1    S    
