data_mof_unit_49813.cif
_audit_creation_date              2012-12-11T15:06:39-0500
_audit_creation_method            fapswitch 2.2
_symmetry_space_group_name_H-M    P1
_symmetry_Int_Tables_number       1
_space_group_crystal_system       triclinic
_cell_length_a                    7.237874
_cell_length_b                    15.277288
_cell_length_c                    22.304114
_cell_angle_alpha                 90.0
_cell_angle_beta                  90.000023
_cell_angle_gamma                 90.000013
_cell_volume                      2466.27931491

loop_
_atom_site_label
_atom_site_type_symbol
_atom_type_description
_atom_site_fract_x
_atom_site_fract_y
_atom_site_fract_z
_atom_type_partial_charge
O1    O     O_R   0.390810 0.844810 0.447340 -0.534525
O2    O     O_R   0.109190 0.155190 0.947340 -0.534525
O3    O     O_R   0.890810 0.655190 0.552660 -0.534525
O4    O     O_R   0.609190 0.344810 0.052660 -0.534525
O5    O     O_R   0.720550 0.655820 0.440420 -0.535822
O6    O     O_R   0.779450 0.344180 0.940420 -0.535822
O7    O     O_R   0.220550 0.844180 0.559580 -0.535822
O8    O     O_R   0.279450 0.155820 0.059580 -0.535822
C1    C     C_R   0.552493 0.627435 0.426195 0.671557
C2    C     C_R   0.947507 0.372565 0.926195 0.671557
C3    C     C_R   0.052493 0.872565 0.573805 0.671557
C4    C     C_R   0.447507 0.127435 0.073804 0.671558
O9    O     O_R   0.720530 0.844130 0.440420 -0.538622
O10   O     O_R   0.779470 0.155870 0.940420 -0.538622
O11   O     O_R   0.220530 0.655870 0.559580 -0.538622
O12   O     O_R   0.279470 0.344130 0.059580 -0.538622
O13   O     O_R   0.890830 0.844810 0.552660 -0.536955
O14   O     O_R   0.609170 0.155190 0.052660 -0.536955
O15   O     O_R   0.390830 0.655190 0.447340 -0.536955
O16   O     O_R   0.109170 0.344810 0.947340 -0.536955
C5    C     C_R   0.552508 0.872830 0.426289 0.672655
C6    C     C_R   0.947492 0.127170 0.926289 0.672655
C7    C     C_R   0.052508 0.627170 0.573711 0.672655
C8    C     C_R   0.447492 0.372830 0.073711 0.672655
O17   O     O_3   0.557310 0.749980 0.536820 -0.375688
O18   O     O_3   0.942690 0.250020 0.036820 -0.375688
O19   O     O_3   0.057310 0.750020 0.463180 -0.375688
O20   O     O_3   0.442690 0.249980 0.963180 -0.375688
V1    V     V_3+5 0.832160 0.749980 0.493170 1.448125
V2    V     V_3+5 0.667840 0.250020 0.993170 1.448124
V3    V     V_3+5 0.332160 0.750020 0.506830 1.448125
V4    V     V_3+5 0.167840 0.249980 0.006830 1.448124
C9    C     C_R   0.957614 0.601594 0.864471 -0.010318
C10   C     C_R   0.542386 0.398406 0.364471 -0.010317
C11   C     C_R   0.457614 0.898406 0.135529 -0.010317
C12   C     C_R   0.042386 0.101594 0.635529 -0.010317
H1    H     H_    0.982497 0.540351 0.951327 0.154836
H2    H     H_    0.517503 0.459648 0.451327 0.154835
H3    H     H_    0.482497 0.959649 0.048673 0.154836
H4    H     H_    0.017503 0.040351 0.548673 0.154836
H5    H     H_    0.871470 0.718762 0.776294 0.113254
H6    H     H_    0.628530 0.281238 0.276294 0.113255
H7    H     H_    0.371470 0.781238 0.223706 0.113254
H8    H     H_    0.128530 0.218762 0.723706 0.113255
C13   C     C_R   0.954445 0.444274 0.881962 -0.145303
C14   C     C_R   0.545555 0.555726 0.381962 -0.145303
C15   C     C_R   0.454445 0.055726 0.118038 -0.145303
C16   C     C_R   0.045555 0.944274 0.618038 -0.145303
C17   C     C_R   0.135551 0.475405 0.597612 -0.119908
C18   C     C_R   0.364449 0.524595 0.097612 -0.119909
C19   C     C_R   0.635551 0.024595 0.402388 -0.119909
C20   C     C_R   0.864449 0.975405 0.902388 -0.119908
C21   C     C_R   0.168549 0.408080 0.638114 -0.108349
C22   C     C_R   0.331452 0.591920 0.138114 -0.108349
C23   C     C_R   0.668548 0.091920 0.361886 -0.108349
C24   C     C_R   0.831451 0.908080 0.861886 -0.108349
C25   C     C_R   0.111056 0.415594 0.697446 -0.107022
C26   C     C_R   0.388945 0.584406 0.197446 -0.107022
C27   C     C_R   0.611055 0.084406 0.302554 -0.107022
C28   C     C_R   0.888945 0.915594 0.802554 -0.107022
C29   C     C_R   0.015618 0.490343 0.717556 0.131270
C30   C     C_R   0.484382 0.509657 0.217556 0.131270
C31   C     C_R   0.515619 0.009657 0.282444 0.131270
C32   C     C_R   0.984382 0.990343 0.782444 0.131270
C33   C     C_R   0.992038 0.561495 0.676938 0.053708
C34   C     C_R   0.507962 0.438505 0.176938 0.053708
C35   C     C_R   0.492038 0.938505 0.323062 0.053708
C36   C     C_R   0.007962 0.061495 0.823062 0.053708
C37   C     C_R   0.966207 0.500479 0.779204 0.077801
C38   C     C_R   0.533793 0.499521 0.279204 0.077801
C39   C     C_R   0.466207 0.999521 0.220795 0.077801
C40   C     C_R   0.033793 0.000479 0.720796 0.077801
C41   C     C_R   0.946513 0.586642 0.801815 0.020162
C42   C     C_R   0.553486 0.413358 0.301815 0.020162
C43   C     C_R   0.446513 0.913358 0.198185 0.020162
C44   C     C_R   0.053486 0.086642 0.698185 0.020162
C45   C     C_R   0.912105 0.654807 0.760957 -0.155608
C46   C     C_R   0.587895 0.345193 0.260958 -0.155608
C47   C     C_R   0.412105 0.845193 0.239042 -0.155608
C48   C     C_R   0.087895 0.154807 0.739042 -0.155608
C49   C     C_R   0.924404 0.641011 0.699313 -0.174284
C50   C     C_R   0.575595 0.358989 0.199313 -0.174284
C51   C     C_R   0.424404 0.858989 0.300687 -0.174284
C52   C     C_R   0.075595 0.141011 0.800687 -0.174284
C53   C     C_R   0.939601 0.429046 0.819542 -0.085681
C54   C     C_R   0.560398 0.570954 0.319542 -0.085681
C55   C     C_R   0.439602 0.070954 0.180458 -0.085681
C56   C     C_R   0.060398 0.929046 0.680458 -0.085681
C57   C     C_R   0.968975 0.529790 0.903436 -0.132459
C58   C     C_R   0.531025 0.470210 0.403436 -0.132459
C59   C     C_R   0.468975 0.970210 0.096564 -0.132459
C60   C     C_R   0.031025 0.029790 0.596564 -0.132459
C61   C     C_R   0.049566 0.552933 0.616199 -0.092769
C62   C     C_R   0.450434 0.447067 0.116199 -0.092769
C63   C     C_R   0.549566 0.947067 0.383801 -0.092769
C64   C     C_R   0.950433 0.052933 0.883801 -0.092769
H9    H     H_    0.185668 0.468752 0.552038 0.130874
H10   H     H_    0.314332 0.531247 0.052038 0.130874
H11   H     H_    0.685668 0.031247 0.447962 0.130874
H12   H     H_    0.814332 0.968753 0.947962 0.130874
H13   H     H_    0.151742 0.364978 0.728455 0.109063
H14   H     H_    0.348259 0.635022 0.228455 0.109063
H15   H     H_    0.651742 0.135022 0.271545 0.109063
H16   H     H_    0.848258 0.864978 0.771545 0.109063
H17   H     H_    0.244741 0.350803 0.623861 0.151576
H18   H     H_    0.255259 0.649196 0.123861 0.151576
H19   H     H_    0.744741 0.149196 0.376139 0.151576
H20   H     H_    0.755259 0.850803 0.876139 0.151576
H21   H     H_    0.892313 0.694865 0.669640 0.105720
H22   H     H_    0.607687 0.305135 0.169640 0.105720
H23   H     H_    0.392313 0.805135 0.330360 0.105720
H24   H     H_    0.107687 0.194865 0.830360 0.105720
C65   C     C_2   0.973982 0.691023 0.889938 0.385672
H25   H     H_    0.018595 0.745132 0.862130 0.079449
O21   O     O_2   0.941986 0.704971 0.942853 -0.507791
C66   C     C_2   0.526019 0.308977 0.389937 0.385671
H26   H     H_    0.481405 0.254868 0.362130 0.079449
O22   O     O_2   0.558016 0.295028 0.442853 -0.507790
C67   C     C_2   0.473982 0.808977 0.110062 0.385672
H27   H     H_    0.518594 0.754868 0.137870 0.079449
O23   O     O_2   0.441985 0.795028 0.057147 -0.507791
C68   C     C_2   0.026018 0.191023 0.610062 0.385672
H28   H     H_    0.981405 0.245132 0.637870 0.079450
O24   O     O_2   0.058014 0.204972 0.557147 -0.507791
C69   C     C_2   0.863239 0.343730 0.798597 0.344436
H29   H     H_    0.859846 0.287825 0.828321 0.037402
O25   O     O_2   0.790520 0.336470 0.749442 -0.526457
C70   C     C_2   0.636761 0.656270 0.298598 0.344437
H30   H     H_    0.640153 0.712175 0.328321 0.037401
O26   O     O_2   0.709482 0.663529 0.249443 -0.526456
C71   C     C_2   0.363239 0.156270 0.201402 0.344437
H31   H     H_    0.359847 0.212175 0.171679 0.037401
O27   O     O_2   0.290519 0.163529 0.250557 -0.526457
C72   C     C_2   0.136761 0.843730 0.701402 0.344437
H32   H     H_    0.140153 0.787825 0.671679 0.037402
O28   O     O_2   0.209481 0.836470 0.750557 -0.526457

loop_
_geom_bond_atom_site_label_1
_geom_bond_atom_site_label_2
_ccdc_geom_bond_type
O17   V3    S    
C39   C43   A    
C26   C30   A    
O1    C5    A    
C23   C27   A    
O19   V1    S    
O13   V1    S    
C12   C68   S    
C21   H17   S    
C48   C52   A    
O15   V3    S    
C70   H30   S    
C14   C54   A    
O7    C3    A    
C11   C43   A    
C36   C64   A    
C32   C36   A    
O9    V1    S    
C9    C57   A    
H5    C45   S    
O4    C8    A    
H7    C47   S    
O1    V3    S    
C66   H26   S    
C30   C38   A    
O2    V4    S    
C55   C71   S    
O3    V1    S    
C38   C42   A    
C24   H20   S    
C12   C44   A    
O3    C7    A    
C1    O15   A    
C2    O16   A    
C19   C63   A    
O2    C6    A    
C16   C56   A    
C37   C41   A    
C26   H14   S    
C13   C57   A    
C40   C44   A    
C34   C62   A    
C12   C60   A    
O11   C7    A    
C1    C14   S    
O12   C8    A    
C35   C63   A    
C3    C16   S    
C15   C59   A    
O10   V2    S    
C4    C15   S    
H3    C59   S    
C40   C56   A    
O16   V4    S    
O5    V1    S    
C67   O23   D    
C19   H11   S    
C31   C35   A    
C18   H10   S    
O7    V3    S    
C22   H18   S    
C54   C70   S    
O8    V4    S    
H8    C48   S    
C30   C34   A    
O18   V4    S    
C18   C62   A    
C72   O28   D    
C5    C63   S    
C20   H12   S    
C7    C61   S    
C23   H19   S    
C36   C52   A    
C13   C53   A    
C10   C58   A    
O5    C1    A    
C8    C62   S    
C34   C50   A    
C46   C50   A    
C33   C49   A    
C45   C49   A    
O8    C4    A    
C2    C13   S    
O9    C5    A    
C52   H24   S    
C35   C51   A    
H4    C60   S    
C25   C29   A    
C10   C42   A    
C39   C55   A    
C9    C41   A    
O6    V2    S    
C31   C39   A    
H6    C46   S    
C16   C60   A    
C69   H29   S    
C51   H23   S    
C27   C31   A    
C68   O24   D    
C71   H31   S    
C38   C54   A    
C50   H22   S    
C37   C53   A    
C65   H25   S    
C22   C26   A    
C29   C37   A    
C3    O13   A    
C21   C25   A    
C53   C69   S    
C6    C64   S    
C44   C48   A    
C49   H21   S    
C71   O27   D    
C70   O26   D    
O6    C2    A    
C67   H27   S    
O11   V3    S    
C72   H32   S    
C14   C58   A    
O12   V4    S    
C25   H13   S    
H2    C58   S    
C9    C65   S    
H1    C57   S    
C28   C32   A    
C27   H15   S    
O10   C6    A    
O20   V2    S    
C56   C72   S    
C18   C22   A    
C47   C51   A    
C11   C67   S    
C10   C66   S    
C17   C21   A    
C33   C61   A    
C66   O22   D    
C20   C64   A    
C19   C23   A    
C32   C40   A    
O14   V2    S    
C17   H9    S    
C29   C33   A    
C24   C28   A    
C42   C46   A    
C4    O14   A    
C69   O25   D    
C41   C45   A    
C17   C61   A    
C68   H28   S    
C28   H16   S    
C43   C47   A    
O4    V2    S    
C20   C24   A    
C15   C55   A    
C65   O21   D    
C11   C59   A    
