data_mof_unit_11893.cif
_audit_creation_date              2012-12-11T15:23:57-0500
_audit_creation_method            fapswitch 2.2
_symmetry_space_group_name_H-M    P1
_symmetry_Int_Tables_number       1
_space_group_crystal_system       triclinic
_cell_length_a                    17.249517
_cell_length_b                    24.427402
_cell_length_c                    15.009552
_cell_angle_alpha                 90.328935
_cell_angle_beta                  125.35041
_cell_angle_gamma                 89.706052
_cell_volume                      5158.29659108

loop_
_atom_site_label
_atom_site_type_symbol
_atom_type_description
_atom_site_fract_x
_atom_site_fract_y
_atom_site_fract_z
_atom_type_partial_charge
C1    C     C_R   0.318806 0.365983 0.913079 -0.118206
C2    C     C_R   0.438332 0.500147 0.635902 0.046245
C3    C     C_3   0.533977 0.066058 0.242021 -0.306592
C4    C     C_3   0.524983 0.093387 0.145288 -0.982428
C5    C     C_3   0.519299 0.048029 0.635736 0.196856
C6    C     C_3   0.424189 0.068266 0.609314 -0.263091
C7    C     C_3   0.436638 0.097163 0.707236 -1.026799
C8    C     C_3   0.918828 0.399003 0.178515 0.184323
C9    C     C_3   0.002157 0.395334 0.167668 -0.334926
C10   C     C_3   0.045404 0.451438 0.179104 -1.001854
C11   C     C_3   0.048872 0.381593 0.830025 0.202653
C12   C     C_3   0.948659 0.363730 0.735641 -0.295602
C13   C     C_R   0.960214 0.001288 0.286918 0.046652
C14   C     C_3   0.872570 0.402377 0.721588 -1.022685
C15   C     C_3   0.457768 0.886771 0.162868 0.183695
C16   C     C_3   0.558551 0.866735 0.251124 -0.296433
C17   C     C_3   0.634531 0.904326 0.263221 -1.010801
C18   C     C_3   0.579132 0.893625 0.815194 0.177511
C19   C     C_3   0.484893 0.887790 0.803284 -0.316655
C20   C     C_3   0.442362 0.943535 0.798008 -1.015430
C21   C     C_3   0.235178 0.384298 0.642676 0.166923
C22   C     C_3   0.201954 0.413064 0.535414 -0.269410
C23   C     C_3   0.220693 0.377557 0.465784 -1.043137
C24   C     C_R   0.938519 0.000873 0.635863 0.054220
C25   C     C_3   0.711232 0.382782 0.339104 0.148045
C26   C     C_3   0.742314 0.329956 0.405189 -0.233146
C27   C     C_3   0.662870 0.306731 0.410081 -1.067014
C28   C     C_3   0.779302 0.868800 0.675605 0.174150
C29   C     C_3   0.757655 0.855536 0.563707 -0.290601
C30   C     C_3   0.822471 0.810449 0.570329 -1.046590
C31   C     C_3   0.257090 0.888239 0.360217 0.182948
C32   C     C_3   0.277852 0.922485 0.457924 -0.285153
C33   C     C_3   0.234117 0.896730 0.511575 -1.022581
C34   C     C_R   0.174085 0.502854 0.722929 -0.134398
C35   C     C_R   0.822706 0.499938 0.336373 -0.249127
C36   C     C_R   0.678765 0.000678 0.660440 -0.250719
C37   C     C_R   0.325530 0.001852 0.277082 -0.126764
C38   C     C_2   0.921326 0.475984 0.525227 -0.154244
C39   C     C_2   0.014032 0.466525 0.626356 -0.290563
C40   C     C_2   0.484685 0.964704 0.372301 -0.286847
C41   C     C_R   0.688072 0.373568 0.088594 -0.164056
C42   C     C_2   0.577716 0.974012 0.473070 -0.157267
C43   C     C_2   0.915761 0.499831 0.441108 0.636454
C44   C     C_2   0.072570 0.508902 0.676174 0.613219
C45   C     C_2   0.426649 0.007348 0.323314 0.612106
C46   C     C_2   0.585092 0.000528 0.556627 0.648233
C47   C     C_R   0.266737 0.756773 0.889896 -0.176582
C48   C     C_R   0.720823 0.762631 0.105252 -0.165304
C49   C     C_R   0.778838 0.263022 0.894439 -0.168524
C50   C     C_R   0.230234 0.256760 0.110561 -0.174991
C51   C     C_R   0.733685 0.309806 0.894225 -0.223518
C52   C     C_R   0.812051 0.873911 0.911699 -0.189196
C53   C     C_R   0.282144 0.298926 0.110608 -0.244342
C54   C     C_R   0.219437 0.802339 0.888411 -0.238321
C55   C     C_R   0.767002 0.808427 0.104818 -0.227077
C56   C     C_R   0.759885 0.333139 0.993577 -0.048784
C57   C     C_R   0.253724 0.322726 0.011392 -0.013899
C58   C     C_R   0.252496 0.830117 0.986057 -0.021416
C59   C     C_R   0.742604 0.829680 0.005081 -0.046841
C60   C     C_R   0.847908 0.318129 0.090399 0.566755
C61   C     C_R   0.160594 0.314219 0.918458 0.558861
C62   C     C_R   0.345059 0.819867 0.078661 0.564000
C63   C     C_R   0.185581 0.870488 0.086129 -0.139267
C64   C     C_R   0.654217 0.814922 0.908239 0.567837
C65   C     C_R   0.390120 0.771588 0.081978 -0.336670
C66   C     C_R   0.610181 0.767662 0.908700 -0.310410
C67   C     C_R   0.890735 0.269678 0.090702 -0.307160
C68   C     C_R   0.111458 0.268812 0.916583 -0.340759
C69   C     C_R   0.439331 0.651431 0.088332 -0.145116
C70   C     C_R   0.561184 0.650459 0.910960 -0.125848
C71   C     C_R   0.939623 0.151277 0.088778 -0.141867
C72   C     C_R   0.060313 0.150958 0.911620 -0.130589
C73   C     C_R   0.347051 0.738205 0.989128 0.090182
C74   C     C_R   0.377015 0.682020 0.995714 0.096123
C75   C     C_R   0.649075 0.738626 0.005949 0.075578
C76   C     C_R   0.851089 0.239572 0.993900 0.074200
C77   C     C_R   0.151009 0.237554 0.010999 0.092466
C78   C     C_R   0.398745 0.550415 0.471894 -0.172142
C79   C     C_R   0.404539 0.550784 0.383859 -0.168696
C80   C     C_R   0.902386 0.051748 0.474339 -0.171018
C81   C     C_R   0.908010 0.051954 0.386330 -0.166702
C82   C     C_R   0.417303 0.501280 0.346367 0.142129
C83   C     C_R   0.406999 0.500604 0.522736 0.144982
C84   C     C_R   0.917383 0.002222 0.346560 0.143720
C85   C     C_R   0.623488 0.681614 0.003191 0.082752
C86   C     C_R   0.906342 0.001821 0.522353 0.138931
C87   C     C_R   0.403151 0.451640 0.381072 -0.175466
C88   C     C_R   0.400231 0.451224 0.470868 -0.167518
C89   C     C_R   0.899156 0.952928 0.378412 -0.157367
C90   C     C_R   0.894354 0.952655 0.467135 -0.189138
C91   C     C_R   0.493279 0.454971 0.263791 -0.162446
C92   C     C_R   0.452429 0.454304 0.697429 -0.162681
C93   C     C_R   0.992943 0.955154 0.263742 -0.130890
C94   C     C_R   0.953831 0.954901 0.697446 -0.177956
C95   C     C_R   0.233199 0.546895 0.752204 -0.210720
C96   C     C_R   0.876757 0.182238 0.996837 0.087601
C97   C     C_R   0.766545 0.545682 0.284625 -0.237228
C98   C     C_R   0.734645 0.046073 0.713382 -0.237393
C99   C     C_R   0.266645 0.046339 0.246679 -0.204474
C100  C     C_R   0.483711 0.546257 0.252278 -0.127288
C101  C     C_R   0.454853 0.545509 0.699889 -0.121601
C102  C     C_R   0.984064 0.046429 0.252439 -0.127872
C103  C     C_R   0.954652 0.045902 0.700122 -0.115887
C104  C     C_R   0.228341 0.456178 0.739733 0.518861
C105  C     C_R   0.765054 0.454357 0.289642 0.503368
C106  C     C_R   0.735247 0.954785 0.707621 0.508312
C107  C     C_R   0.121079 0.181865 0.004608 0.094157
C108  C     C_R   0.271408 0.955618 0.261916 0.506373
C109  C     C_R   0.350517 0.650360 0.906672 -0.166706
C110  C     C_R   0.651564 0.650054 0.093282 -0.132772
C111  C     C_R   0.848375 0.150131 0.906854 -0.132447
C112  C     C_R   0.148365 0.150467 0.093643 -0.166650
C113  C     C_R   0.412433 0.366274 0.094141 -0.139235
C114  C     C_R   0.597162 0.375962 0.906533 -0.113989
C115  C     C_R   0.907709 0.868554 0.092108 -0.112363
C116  C     C_R   0.095453 0.876163 0.904841 -0.137636
C117  C     C_R   0.324037 0.351582 0.005612 0.081111
C118  C     C_R   0.460072 0.500935 0.286694 0.056457
C119  C     C_R   0.686896 0.362246 0.996794 0.071942
C120  C     C_R   0.816210 0.858024 0.002757 0.084852
C121  C     C_R   0.183670 0.860711 0.993370 0.089180
C122  C     C_3   0.984702 0.547476 0.367260 0.196674
C123  C     C_3   0.081370 0.565678 0.396060 -0.263233
C124  C     C_3   0.071151 0.598968 0.304084 -1.024687
C125  C     C_3   0.052575 0.583171 0.755328 0.142941
C126  C     C_3   0.976165 0.565126 0.770809 -0.316067
C127  C     C_3   0.988313 0.593631 0.868875 -0.979198
C128  C     C_3   0.450192 0.080798 0.247003 0.140940
H1    H     H_    0.267279 0.350636 0.832895 0.187558
H2    H     H_    0.348410 0.308445 0.187336 0.134701
H3    H     H_    0.705700 0.885555 0.320259 0.271423
H4    H     H_    0.633633 0.944470 0.297412 0.263689
H5    H     H_    0.566095 0.918347 0.745830 0.149576
H6    H     H_    0.631993 0.916782 0.891001 0.084386
H7    H     H_    0.433582 0.864379 0.727635 0.219808
H8    H     H_    0.496797 0.865039 0.874131 0.193802
H9    H     H_    0.493051 0.967934 0.872376 0.267423
H10   H     H_    0.375921 0.937951 0.792615 0.274830
H11   H     H_    0.425156 0.966028 0.724688 0.274041
H12   H     H_    0.214294 0.340504 0.624886 0.147162
H13   H     H_    0.151668 0.811012 0.812774 0.136483
H14   H     H_    0.313990 0.384438 0.700863 0.073164
H15   H     H_    0.124457 0.421815 0.487902 0.240149
H16   H     H_    0.240008 0.452628 0.553959 0.183063
H17   H     H_    0.294443 0.361431 0.515551 0.255754
H18   H     H_    0.210197 0.402147 0.397651 0.286176
H19   H     H_    0.170808 0.342384 0.431339 0.275782
H20   H     H_    0.649307 0.373017 0.255001 0.116320
H21   H     H_    0.690278 0.412995 0.377603 0.104074
H22   H     H_    0.762614 0.299154 0.367248 0.207110
H23   H     H_    0.805200 0.338233 0.489469 0.202304
H24   H     H_    0.827735 0.822905 0.182448 0.129863
H25   H     H_    0.642298 0.336681 0.448997 0.267256
H26   H     H_    0.687822 0.268599 0.459187 0.276386
H27   H     H_    0.599727 0.296954 0.326557 0.268126
H28   H     H_    0.778845 0.829634 0.712517 0.139043
H29   H     H_    0.851571 0.885527 0.729938 0.088706
H30   H     H_    0.682989 0.841364 0.508708 0.220426
H31   H     H_    0.765934 0.893030 0.528534 0.187463
H32   H     H_    0.898401 0.821641 0.628662 0.258862
H33   H     H_    0.807435 0.804005 0.488405 0.271209
H34   H     H_    0.809241 0.771473 0.597168 0.276512
H35   H     H_    0.455507 0.759339 0.157440 0.130935
H36   H     H_    0.280585 0.845501 0.388158 0.136410
H37   H     H_    0.179426 0.885934 0.294970 0.083328
H38   H     H_    0.356021 0.925805 0.519396 0.225598
H39   H     H_    0.248337 0.964403 0.430310 0.192902
H40   H     H_    0.156217 0.892090 0.451412 0.264720
H41   H     H_    0.247538 0.923375 0.579291 0.282052
H42   H     H_    0.266222 0.855895 0.545256 0.264758
H43   H     H_    0.548640 0.752862 0.831954 0.141664
H44   H     H_    0.952233 0.255011 0.167534 0.141799
H45   H     H_    0.046020 0.256766 0.841003 0.129226
H46   H     H_    0.397840 0.589355 0.505751 0.109557
H47   H     H_    0.408412 0.589909 0.353407 0.110887
H48   H     H_    0.905254 0.090712 0.510507 0.109069
H49   H     H_    0.744594 0.364652 0.171573 0.203949
H50   H     H_    0.914969 0.091009 0.358221 0.111058
H51   H     H_    0.404614 0.412714 0.347432 0.110897
H52   H     H_    0.402720 0.411980 0.504883 0.115946
H53   H     H_    0.897866 0.914099 0.342591 0.105102
H54   H     H_    0.890602 0.913506 0.497477 0.121660
H55   H     H_    0.483260 0.666143 0.171632 0.090562
H56   H     H_    0.517045 0.664045 0.827125 0.089472
H57   H     H_    0.984994 0.165725 0.172112 0.089744
H58   H     H_    0.017353 0.164830 0.827888 0.089145
H59   H     H_    0.499416 0.414345 0.294067 0.092804
H60   H     H_    0.752252 0.869499 0.829669 0.202303
H61   H     H_    0.434270 0.412555 0.669028 0.090724
H62   H     H_    0.997510 0.914463 0.292961 0.080125
H63   H     H_    0.939199 0.913277 0.668961 0.099951
H64   H     H_    0.213970 0.589538 0.744902 0.150874
H65   H     H_    0.784350 0.587871 0.310669 0.129938
H66   H     H_    0.717703 0.088275 0.687528 0.129371
H67   H     H_    0.285916 0.088809 0.252522 0.152186
H68   H     H_    0.471898 0.588872 0.260010 0.094123
H69   H     H_    0.439683 0.587829 0.674870 0.086169
H70   H     H_    0.972453 0.089094 0.259942 0.095240
H71   H     H_    0.239265 0.855984 0.166414 0.188298
H72   H     H_    0.938612 0.088233 0.675393 0.083217
H73   H     H_    0.316674 0.663915 0.823542 0.089785
H74   H     H_    0.689026 0.663338 0.177234 0.084996
H75   H     H_    0.810892 0.163078 0.822897 0.083063
H76   H     H_    0.182223 0.163987 0.176978 0.091166
H77   H     H_    0.447624 0.353592 0.177191 0.088013
H78   H     H_    0.569791 0.372378 0.821597 0.092856
H79   H     H_    0.940876 0.854294 0.174031 0.081149
H80   H     H_    0.067748 0.873648 0.819785 0.097736
H81   H     H_    0.859243 0.459145 0.516810 0.116177
H82   H     H_    0.232913 0.733206 0.815232 0.119566
H83   H     H_    0.038698 0.424727 0.642147 0.198409
H84   H     H_    0.459596 0.922916 0.354331 0.199426
H85   H     H_    0.638735 0.955099 0.481695 0.109826
H86   H     H_    0.942564 0.584821 0.355312 0.108618
H87   H     H_    0.948235 0.522630 0.290911 0.095900
H88   H     H_    0.117743 0.591029 0.471647 0.208211
H89   H     H_    0.126457 0.529185 0.412425 0.195679
H90   H     H_    0.035363 0.574392 0.227692 0.275534
H91   H     H_    0.142649 0.610891 0.327240 0.274204
H92   H     H_    0.029067 0.636693 0.289216 0.267786
H93   H     H_    0.748478 0.743567 0.183020 0.116545
H94   H     H_    0.050454 0.628501 0.748505 0.141184
H95   H     H_    0.124579 0.572528 0.829113 0.086681
H96   H     H_    0.904582 0.574760 0.696076 0.215825
H97   H     H_    0.981455 0.520273 0.784357 0.184014
H98   H     H_    0.059078 0.583862 0.944667 0.266397
H99   H     H_    0.932537 0.579292 0.878452 0.269979
H100  H     H_    0.981414 0.638680 0.856774 0.266145
H101  H     H_    0.445817 0.126085 0.250184 0.140760
H102  H     H_    0.381999 0.067195 0.170644 0.082123
H103  H     H_    0.601568 0.079111 0.318934 0.215435
H104  H     H_    0.749844 0.242864 0.817021 0.118280
H105  H     H_    0.536074 0.021089 0.233512 0.185988
H106  H     H_    0.458531 0.080104 0.067446 0.265712
H107  H     H_    0.586416 0.081517 0.143725 0.271373
H108  H     H_    0.524420 0.138642 0.152617 0.266975
H109  H     H_    0.565467 0.084346 0.656564 0.109832
H110  H     H_    0.551926 0.019417 0.706206 0.092047
H111  H     H_    0.391552 0.097229 0.539543 0.209337
H112  H     H_    0.375066 0.033106 0.584678 0.195074
H113  H     H_    0.468718 0.068931 0.777956 0.274766
H114  H     H_    0.366252 0.110827 0.685684 0.274665
H115  H     H_    0.260097 0.235616 0.186904 0.119961
H116  H     H_    0.483054 0.133585 0.730693 0.268992
H117  H     H_    0.942799 0.421939 0.254464 0.152491
H118  H     H_    0.859014 0.422938 0.109773 0.086172
H119  H     H_    0.057711 0.367618 0.231404 0.221725
H120  H     H_    0.976969 0.378103 0.086438 0.191478
H121  H     H_    0.990719 0.479812 0.116033 0.266271
H122  H     H_    0.103802 0.447480 0.168528 0.275586
H123  H     H_    0.075085 0.468613 0.261424 0.274602
H124  H     H_    0.059872 0.424960 0.818714 0.108668
H125  H     H_    0.054728 0.380878 0.908270 0.079474
H126  H     H_    0.671817 0.323138 0.816557 0.134807
H127  H     H_    0.943818 0.362382 0.658719 0.208333
H128  H     H_    0.933778 0.322103 0.751105 0.190286
H129  H     H_    0.876923 0.404751 0.798310 0.274267
H130  H     H_    0.801141 0.386921 0.655188 0.273893
H131  H     H_    0.881241 0.443883 0.699081 0.263323
H132  H     H_    0.450620 0.930157 0.179169 0.112551
H133  H     H_    0.446710 0.886743 0.081685 0.082926
H134  H     H_    0.567464 0.864529 0.330299 0.207023
H135  H     H_    0.569516 0.825183 0.230115 0.192276
H136  H     H_    0.622986 0.910417 0.183056 0.274145
N1    N     N_R   0.395440 0.396300 0.944370 -0.059067
N2    N     N_R   0.474910 0.470990 0.794360 -0.041533
N3    N     N_R   0.025090 0.970990 0.205640 -0.044719
N4    N     N_R   0.974910 0.970990 0.794360 -0.044081
N5    N     N_R   0.320240 0.527820 0.794510 -0.067043
N6    N     N_R   0.679760 0.527820 0.205490 -0.049701
N7    N     N_R   0.820240 0.027820 0.794510 -0.048575
N8    N     N_R   0.179760 0.027820 0.205490 -0.068891
N9    N     N_R   0.524580 0.527810 0.205160 -0.038107
N10   N     N_R   0.475420 0.527810 0.794840 -0.035454
N11   N     N_R   0.024580 0.027810 0.205160 -0.038647
N12   N     N_R   0.604560 0.396300 0.055630 -0.056508
N13   N     N_R   0.975420 0.027810 0.794840 -0.035796
N14   N     N_R   0.320750 0.470990 0.794990 -0.103069
N15   N     N_R   0.679250 0.470990 0.205010 -0.099235
N16   N     N_R   0.820750 0.970990 0.794990 -0.096632
N17   N     N_R   0.179250 0.970990 0.205010 -0.105171
N18   N     N_R   0.393580 0.602500 0.942610 -0.034353
N19   N     N_R   0.606420 0.602500 0.057390 -0.034655
N20   N     N_R   0.893580 0.102500 0.942610 -0.034268
N21   N     N_R   0.106420 0.102500 0.057390 -0.035472
N22   N     N_R   0.451750 0.396300 0.057540 -0.044157
N23   N     N_R   0.895440 0.896300 0.944370 -0.055184
N24   N     N_R   0.548250 0.396300 0.942460 -0.043599
N25   N     N_R   0.951750 0.896300 0.057540 -0.040778
N26   N     N_R   0.048250 0.896300 0.942460 -0.046143
N27   N     N_R   0.104560 0.896300 0.055630 -0.058621
N28   N     N_R   0.449890 0.602500 0.055780 -0.036444
N29   N     N_R   0.550110 0.602500 0.944220 -0.038469
N30   N     N_R   0.949890 0.102500 0.055780 -0.037040
N31   N     N_R   0.050110 0.102500 0.944220 -0.038144
N32   N     N_R   0.525090 0.470990 0.205640 -0.051154
Ni1   Ni    Ni4+2 0.435420 0.434250 0.870220 0.195395
Ni2   Ni    Ni4+2 0.564580 0.434250 0.129780 0.198267
Ni3   Ni    Ni4+2 0.935420 0.934250 0.870220 0.198385
Ni4   Ni    Ni4+2 0.064580 0.934250 0.129780 0.197305
Ni5   Ni    Ni4+2 0.563400 0.564580 0.128670 0.205756
Ni6   Ni    Ni4+2 0.436600 0.564580 0.871330 0.200682
Ni7   Ni    Ni4+2 0.063400 0.064580 0.128670 0.202276
Ni8   Ni    Ni4+2 0.936600 0.064580 0.871330 0.203858
O1    O     O_3   0.999692 0.516086 0.454486 -0.660391
O2    O     O_3   0.787367 0.403150 0.338421 -0.683326
O3    O     O_3   0.706278 0.902529 0.662201 -0.687220
O4    O     O_3   0.309574 0.907639 0.321360 -0.686518
O5    O     O_3   0.034278 0.561287 0.657321 -0.644660
O6    O     O_3   0.464991 0.059642 0.343325 -0.639386
O7    O     O_3   0.502788 0.021198 0.542790 -0.649443
O8    O     O_3   0.889427 0.346573 0.187833 -0.673333
O9    O     O_3   0.118368 0.349636 0.830768 -0.670184
O10   O     O_3   0.389757 0.855859 0.165921 -0.677732
O11   O     O_3   0.614004 0.841966 0.810084 -0.672998
O12   O     O_3   0.189513 0.406561 0.688059 -0.687364

loop_
_geom_bond_atom_site_label_1
_geom_bond_atom_site_label_2
_ccdc_geom_bond_type
C124  H92   S    
C126  C127  S    
C12   H128  S    
C32   H38   S    
C17   H3    S    
C111  N20   A    
C19   C20   S    
C52   N23   A    
C93   H62   S    
N3    N11   A    
N15   Ni2   S    
C26   H23   S    
C81   H50   S    
N4    Ni3   S    
C1    H1    S    
C14   H131  S    
N5    Ni6   S    
C15   O10   S    
C97   N6    A    
C82   C87   A    
C99   H67   S    
C99   N8    A    
C122  H87   S    
C18   H5    S    
C107  C112  A    
C97   H65   S    
C80   C86   A    
C49   C51   A    
C122  O1    S    
N23   N25   A    
C92   N2    A    
N19   Ni5   S    
C83   C88   A    
C21   C22   S    
C2    C83   S    
C33   H42   S    
N10   Ni6   S    
C96   C111  A    
C100  H68   S    
C50   C53   A    
C116  C121  A    
C36   C106  A    
C37   C108  A    
C85   C110  A    
C86   C90   A    
C111  H75   S    
C19   H8    S    
C125  H94   S    
N4    N13   A    
N9    N32   A    
C64   C66   A    
N6    N15   A    
C62   O10   S    
N21   N31   A    
C91   C118  A    
C69   C74   A    
N30   Ni7   S    
C6    C7    S    
N23   Ni3   S    
N18   N28   A    
C8    H117  S    
C127  H100  S    
C104  O12   S    
C33   H40   S    
C82   C118  S    
C37   C45   S    
C50   C77   A    
C92   H61   S    
C68   C77   A    
C4    H106  S    
C14   H129  S    
C60   O8    S    
C57   C61   A    
C29   H30   S    
C98   N7    A    
C110  H74   S    
C38   C43   D    
C76   C96   S    
C114  N24   A    
C5    C6    S    
C116  N26   A    
N18   Ni6   S    
C54   H13   S    
C108  O4    S    
C21   O12   S    
C22   H16   S    
C22   C23   S    
C43   O1    S    
C5    H110  S    
C51   H126  S    
C3    H105  S    
C59   C120  S    
C55   C59   A    
C123  C124  S    
C13   C84   S    
C35   C105  A    
C20   H11   S    
C41   H49   S    
N2    N10   A    
C45   O6    S    
C18   C19   S    
C38   C39   S    
C101  H69   S    
C91   N32   A    
C25   H21   S    
C9    H120  S    
C31   H37   S    
C60   C67   A    
C127  H98   S    
C36   C46   S    
C35   C43   S    
C9    C10   S    
C114  C119  A    
N13   Ni8   S    
C27   H26   S    
C40   C42   S    
C4    H108  S    
C8    O8    S    
C71   H57   S    
N17   Ni4   S    
C5    O7    S    
N6    Ni5   S    
C23   H18   S    
C66   H43   S    
C50   H115  S    
C3    H103  S    
C3    C128  S    
C25   C26   S    
C10   H122  S    
C113  H77   S    
C29   C30   S    
C15   H133  S    
C31   C32   S    
N20   N30   A    
C65   H35   S    
N28   Ni5   S    
C1    C117  A    
N27   Ni4   S    
C116  H80   S    
C95   H64   S    
C69   H55   S    
C113  C117  A    
C70   H56   S    
C56   C119  S    
C101  N10   A    
C64   O11   S    
C112  N21   A    
C3    C4    S    
C91   H59   S    
C31   H36   S    
C44   O5    S    
C79   C82   A    
N12   Ni2   S    
C68   H45   S    
C39   C44   D    
C67   H44   S    
C6    H111  S    
C11   H124  S    
C21   H12   S    
C24   C103  A    
C49   H104  S    
C42   H85   S    
N19   N29   A    
C61   O9    S    
C28   O3    S    
C18   H6    S    
C103  H72   S    
C36   C98   A    
C52   H60   S    
C13   C102  A    
C123  H88   S    
C70   C85   A    
C24   C86   S    
C108  N17   A    
C17   H4    S    
C58   C62   A    
C48   C55   A    
C87   C88   A    
C128  H101  S    
C73   C74   S    
C33   H41   S    
C26   C27   S    
C5    H109  S    
N21   Ni7   S    
C28   C29   S    
C19   H7    S    
C98   H66   S    
N26   N27   A    
C42   C46   D    
C70   N29   A    
C20   H10   S    
C94   H63   S    
C16   H135  S    
C78   C83   A    
C75   C85   S    
C16   C17   S    
C7    H116  S    
N24   Ni1   S    
C102  N11   A    
C105  O2    S    
N32   Ni2   S    
C123  H89   S    
C124  H91   S    
C8    H118  S    
C12   H127  S    
N2    Ni1   S    
C127  H99   S    
N7    Ni8   S    
C88   H52   S    
C125  H95   S    
C27   H27   S    
C40   C45   D    
C26   H22   S    
C34   C95   A    
C47   C73   A    
C14   H130  S    
C53   C57   A    
C71   C96   A    
C23   H19   S    
C56   C60   A    
C13   C93   A    
C113  N22   A    
C31   O4    S    
C41   C119  A    
C72   H58   S    
C47   C54   A    
N7    N16   A    
C125  C126  S    
C126  H97   S    
C100  C118  A    
C57   C117  S    
N12   N24   A    
N8    N17   A    
C25   O2    S    
C58   C121  S    
C46   O7    S    
C21   H14   S    
C93   N3    A    
C94   N4    A    
C40   H84   S    
N1    Ni1   S    
C69   N28   A    
C32   C33   S    
C109  H73   S    
C11   O9    S    
C109  N18   A    
C17   H136  S    
C66   C75   A    
C7    H114  S    
C28   H29   S    
C11   H125  S    
C25   H20   S    
N11   Ni7   S    
C9    H119  S    
C72   N31   A    
C122  H86   S    
C106  O3    S    
C32   H39   S    
N16   Ni3   S    
C30   H33   S    
C89   C90   A    
C89   H53   S    
C27   H25   S    
C115  H79   S    
C74   C109  A    
C65   C73   A    
C55   H24   S    
C29   H31   S    
C30   H32   S    
C23   H17   S    
C59   C64   A    
N9    Ni5   S    
C51   C56   A    
C102  H70   S    
C126  H96   S    
N14   Ni1   S    
C48   H93   S    
C15   C16   S    
C128  O6    S    
C10   H123  S    
C90   H54   S    
C8    C9    S    
C22   H15   S    
C115  N25   A    
C16   H134  S    
C63   N27   A    
C48   C75   A    
C7    H113  S    
N8    Ni7   S    
C63   C121  A    
C95   N5    A    
C124  H90   S    
C79   H47   S    
C18   O11   S    
C77   C107  S    
C34   C44   S    
C80   H48   S    
C104  N14   A    
C78   C79   A    
C110  N19   A    
C2    C101  A    
C6    H112  S    
C34   C104  A    
C114  H78   S    
C71   N30   A    
C24   C94   A    
C72   C107  A    
C49   C76   A    
C39   H83   S    
N3    Ni4   S    
C20   H9    S    
C2    C92   A    
C41   N12   A    
N1    N22   A    
C52   C120  A    
C12   C14   S    
C105  N15   A    
C4    H107  S    
C106  N16   A    
C84   C89   A    
C103  N13   A    
C37   C99   A    
C81   C84   A    
C28   H28   S    
C54   C58   A    
N20   Ni8   S    
C128  H102  S    
C62   C65   A    
N25   Ni4   S    
N26   Ni3   S    
C80   C81   A    
C11   C12   S    
C53   H2    S    
C30   H34   S    
C100  N9    A    
C10   H121  S    
N29   Ni6   S    
C61   C68   A    
C63   H71   S    
N5    N14   A    
C38   H81   S    
C15   H132  S    
C87   H51   S    
C1    N1    A    
C115  C120  A    
C47   H82   S    
C78   H46   S    
C112  H76   S    
N22   Ni2   S    
C67   C76   A    
C122  C123  S    
C35   C97   A    
C125  O5    S    
N31   Ni8   S    
