data_mof_unit_36197.cif
_audit_creation_date              2012-12-11T15:46:54-0500
_audit_creation_method            fapswitch 2.2
_symmetry_space_group_name_H-M    P1
_symmetry_Int_Tables_number       1
_space_group_crystal_system       triclinic
_cell_length_a                    11.525147
_cell_length_b                    11.544118
_cell_length_c                    19.567137
_cell_angle_alpha                 90.501089
_cell_angle_beta                  90.243553
_cell_angle_gamma                 59.713873
_cell_volume                      2247.96288789

loop_
_atom_site_label
_atom_site_type_symbol
_atom_type_description
_atom_site_fract_x
_atom_site_fract_y
_atom_site_fract_z
_atom_type_partial_charge
C1    C     C_R   0.615589 0.085735 0.606255 0.554158
C2    C     C_1   0.641797 0.704103 0.668106 0.005279
C3    C     C_1   0.126743 0.198648 0.859304 0.007743
C4    C     C_1   0.172040 0.170233 0.727799 -0.028010
C5    C     C_1   0.150423 0.182174 0.798998 -0.027479
C6    C     C_1   0.195858 0.160891 0.667510 0.006233
C7    C     C_1   0.668455 0.182306 0.864372 0.006728
C8    C     C_1   0.634003 0.137394 0.736522 -0.027255
C9    C     C_1   0.648199 0.162087 0.806109 -0.025017
C10   C     C_1   0.625645 0.114942 0.676880 0.003043
C11   C     C_R   0.647202 0.691439 0.186906 0.020676
C12   C     C_R   0.612845 0.745844 0.598681 0.548643
C13   C     C_R   0.531554 0.714906 0.222191 -0.034133
C14   C     C_R   0.526259 0.727824 0.291419 0.024319
C15   C     C_R   0.735654 0.726744 0.292245 -0.160632
C16   C     C_R   0.742309 0.712810 0.221065 -0.153886
C17   C     C_3   0.456808 0.638962 0.224544 -0.179181
C18   C     C_3   0.450532 0.655880 0.301310 0.110352
C19   C     C_R   0.632933 0.720798 0.328116 0.055115
C20   C     C_R   0.154043 0.194382 0.189431 0.018946
C21   C     C_R   0.159871 0.291563 0.229628 0.085018
C22   C     C_R   0.183053 0.273391 0.298218 0.035262
C23   C     C_R   0.241339 0.145245 0.598301 0.539514
C24   C     C_R   0.215032 0.051168 0.289177 -0.167610
C25   C     C_R   0.191697 0.069151 0.218571 -0.170800
C26   C     C_3   0.058681 0.437260 0.239408 -0.241783
C27   C     C_3   0.086370 0.416695 0.315233 -0.277276
C28   C     C_R   0.201684 0.157948 0.330229 0.006489
C29   C     C_R   0.670552 0.173833 0.190203 0.010408
C30   C     C_R   0.771847 0.062225 0.225084 0.044789
C31   C     C_R   0.761536 0.045397 0.293235 -0.032809
C32   C     C_R   0.536391 0.233609 0.293271 -0.067605
C33   C     C_R   0.545886 0.252268 0.223136 0.197859
C34   C     C_R   0.641800 0.110060 0.400906 0.581684
C35   C     C_3   0.920251 0.009014 0.231719 0.116116
C36   C     C_3   0.906967 0.990693 0.307271 -0.227298
C37   C     C_R   0.650410 0.137663 0.329882 -0.008528
C38   C     C_R   0.081709 0.231118 0.928566 0.546380
C39   C     C_R   0.683602 0.604576 0.929489 0.543163
C40   C     C_R   0.706897 0.205658 0.930721 0.547732
C41   C     C_R   0.085046 0.235091 0.124529 0.542713
C42   C     C_R   0.680370 0.615820 0.123989 0.542160
C43   C     C_R   0.707247 0.209324 0.125985 0.566971
C44   C     C_R   0.613456 0.746091 0.400288 0.585797
C45   C     C_R   0.246282 0.139445 0.400601 0.543237
C46   C     C_1   0.669683 0.646824 0.860162 0.008333
C47   C     C_1   0.654957 0.684082 0.728547 -0.029666
C48   C     C_1   0.663011 0.667124 0.799772 -0.028001
Cr1   Cr    Cr6+3 0.404720 0.198220 0.499960 1.056135
Cr2   Cr    Cr6+3 0.698290 0.897110 0.500380 1.029737
Cr3   Cr    Cr6+3 0.396970 0.904720 0.499610 1.047233
Cr4   Cr    Cr6+3 0.926290 0.152010 0.028150 1.079541
Cr5   Cr    Cr6+3 0.921440 0.451830 0.027490 1.067552
Cr6   Cr    Cr6+3 0.626370 0.446880 0.028730 1.085886
H1    H     H_    0.813229 0.735847 0.318940 0.149130
H2    H     H_    0.091347 0.503868 0.216355 0.214948
H3    H     H_    0.137705 0.469209 0.335871 0.170430
H4    H     H_    0.998762 0.430291 0.345459 0.146037
H5    H     H_    0.441513 0.296156 0.319042 0.190026
H6    H     H_    0.948356 0.085886 0.220860 0.138978
H7    H     H_    0.925961 0.058265 0.340341 0.121644
H8    H     H_    0.518973 0.532484 0.208297 0.233384
H9    H     H_    0.356505 0.694867 0.199770 0.172426
H10   H     H_    0.240122 0.956173 0.311598 0.134166
H11   H     H_    0.955676 0.460141 0.225740 0.144470
O1    O     O_R   0.267750 0.231960 0.575440 -0.509416
O2    O     O_R   0.685950 0.784660 0.430010 -0.519835
O3    O     O_R   0.502510 0.767000 0.423980 -0.481257
O4    O     O_R   0.288320 0.026340 0.429250 -0.508675
O5    O     O_3   0.499990 0.000020 0.499980 -0.290973
O6    O     O_R   0.821590 0.119350 0.952850 -0.497018
O7    O     O_R   0.037230 0.162540 0.957390 -0.493135
O8    O     O_R   0.056530 0.344750 0.951370 -0.495140
O9    O     O_R   0.798000 0.560370 0.957490 -0.492301
O10   O     O_R   0.596230 0.579400 0.952760 -0.500527
O11   O     O_R   0.639160 0.321170 0.958690 -0.488256
O12   O     O_R   0.527290 0.186640 0.570530 -0.477797
O13   O     O_R   0.821370 0.124220 0.104400 -0.486933
O14   O     O_R   0.037020 0.167050 0.097880 -0.502993
O15   O     O_R   0.056310 0.349620 0.102920 -0.492291
O16   O     O_R   0.797790 0.564880 0.097980 -0.506034
O17   O     O_R   0.596000 0.584270 0.104310 -0.513769
O18   O     O_R   0.638950 0.325690 0.099180 -0.456480
O19   O     O_3   0.824700 0.350240 0.028120 -0.278001
O20   O     O_R   0.728110 0.003450 0.576380 -0.494281
O21   O     O_R   0.682980 0.789190 0.570500 -0.510044
O22   O     O_R   0.499300 0.771880 0.575540 -0.491205
O23   O     O_R   0.285350 0.030870 0.569740 -0.494647
O24   O     O_R   0.270960 0.227070 0.423890 -0.514832
O25   O     O_R   0.530270 0.182120 0.430040 -0.485566
O26   O     O_R   0.731320 0.998570 0.424830 -0.515011
Cl1   Cl    Cl    0.402233 0.373787 0.179694 -0.611660
Cl2   Cl    Cl    0.016763 0.853327 0.187158 -0.630430
H12   H     H_    0.957524 0.884318 0.323844 0.178159
H13   H     H_    0.828564 0.703980 0.194368 0.174349
H14   H     H_    0.347240 0.721250 0.321322 0.142948
Cl3   Cl    Cl    0.545640 0.500767 0.345671 -0.627870
H15   H     H_    0.193416 0.989519 0.188135 0.171307

loop_
_geom_bond_atom_site_label_1
_geom_bond_atom_site_label_2
_ccdc_geom_bond_type
C21   C26   S    
C40   O6    A    
C34   C37   S    
C18   H14   S    
C14   C18   S    
C35   C36   S    
C42   O17   A    
Cr1   O25   S    
C2    C12   S    
C41   O15   A    
Cr6   O19   S    
C20   C41   S    
C43   O13   A    
C15   C19   A    
C26   C27   S    
C30   C35   S    
Cr5   O19   S    
C23   O1    A    
C30   C31   A    
C20   C25   A    
C15   C16   A    
C29   C33   A    
C43   O18   A    
C11   C42   S    
Cr5   O16   S    
C39   O9    A    
Cr4   O19   S    
C34   O26   A    
Cr2   O20   S    
Cr5   O9    S    
C3    C38   S    
C8    C9    S    
C7    C40   S    
Cr3   O5    S    
C39   O10   A    
Cr4   O14   S    
C45   O24   A    
Cr2   O2    S    
C24   H10   S    
C22   C28   A    
C21   C22   A    
C29   C43   S    
C42   O16   A    
Cr4   O13   S    
Cr6   O18   S    
C38   O7    A    
C35   Cl2   S    
C1    O20   A    
C46   C48   T    
C28   C45   S    
Cr1   O1    S    
C45   O4    A    
Cr5   O15   S    
C24   C25   A    
C4    C6    T    
C27   H3    S    
C33   Cl1   S    
Cr3   O22   S    
C31   C37   A    
C35   H6    S    
C15   H1    S    
C34   O25   A    
C29   C30   A    
Cr4   O7    S    
C36   H12   S    
C17   H8    S    
C11   C16   A    
Cr2   O26   S    
C47   C48   S    
C17   C18   S    
C32   C37   A    
C39   C46   S    
Cr6   O11   S    
C18   Cl3   S    
C23   O23   A    
C22   C27   S    
C44   O3    A    
C36   H7    S    
Cr6   O17   S    
C19   C44   S    
C7    C9    T    
C16   H13   S    
C12   O22   A    
C26   H11   S    
C14   C19   A    
Cr5   O8    S    
C1    C10   S    
C24   C28   A    
Cr1   O24   S    
C4    C5    S    
C3    C5    T    
C27   H4    S    
C26   H2    S    
Cr3   O23   S    
C41   O14   A    
C12   O21   A    
C2    C47   T    
Cr3   O4    S    
C13   C17   S    
Cr1   O5    S    
C32   C33   A    
Cr2   O5    S    
Cr4   O6    S    
C17   H9    S    
C11   C13   A    
C6    C23   S    
Cr1   O12   S    
Cr3   O3    S    
Cr2   O21   S    
Cr6   O10   S    
C40   O11   A    
C25   H15   S    
C20   C21   A    
C8    C10   T    
C31   C36   S    
C44   O2    A    
C1    O12   A    
C32   H5    S    
C13   C14   A    
C38   O8    A    
