data_mof_unit_21342.cif
_audit_creation_date              2012-12-11T14:46:12-0500
_audit_creation_method            fapswitch 2.2
_symmetry_space_group_name_H-M    P1
_symmetry_Int_Tables_number       1
_space_group_crystal_system       triclinic
_cell_length_a                    10.964409
_cell_length_b                    11.065189
_cell_length_c                    18.788332
_cell_angle_alpha                 89.794845
_cell_angle_beta                  89.905513
_cell_angle_gamma                 120.125854
_cell_volume                      1971.53515033

loop_
_atom_site_label
_atom_site_type_symbol
_atom_type_description
_atom_site_fract_x
_atom_site_fract_y
_atom_site_fract_z
_atom_type_partial_charge
C1    C     C_R   0.898293 0.617672 0.612020 0.553575
C2    C     C_R   0.899389 0.090596 0.697938 0.022798
C3    C     C_R   0.919065 0.103287 0.773144 0.001764
C4    C     C_R   0.272532 0.632188 0.603426 0.568601
C5    C     C_R   0.705189 0.135741 0.708863 0.002277
C6    C     C_R   0.740460 0.173465 0.780593 -0.040868
C7    C     C_R   0.576108 0.122894 0.682490 0.040213
C8    C     C_R   0.506246 0.176409 0.722854 -0.094477
C9    C     C_R   0.558319 0.238544 0.788792 0.018793
C10   C     C_R   0.676867 0.239931 0.816287 -0.112713
C11   C     C_R   0.808421 0.128488 0.665666 0.006604
C12   C     C_R   0.227307 0.589463 0.802188 0.026363
C13   C     C_R   0.728336 0.589515 0.709087 -0.002817
C14   C     C_R   0.704628 0.596384 0.781168 -0.170499
C15   C     C_R   0.815449 0.645016 0.829655 -0.023622
C16   C     C_R   0.853873 0.215751 0.599146 0.571388
C17   C     C_R   0.951501 0.690249 0.806854 -0.100282
C18   C     C_R   0.981851 0.699229 0.734891 -0.048129
C19   C     C_R   0.868153 0.636305 0.685527 0.004759
C20   C     C_R   0.409442 0.629228 0.296630 -0.077043
C21   C     C_R   0.426579 0.634139 0.223944 -0.078800
C22   C     C_R   0.372332 0.699465 0.180652 0.035908
C23   C     C_R   0.207809 0.563440 0.729341 -0.020213
C24   C     C_R   0.307832 0.768034 0.211151 -0.136854
C25   C     C_R   0.285571 0.758357 0.284354 -0.128230
C26   C     C_R   0.331173 0.682881 0.326629 0.031994
C27   C     C_R   0.762427 0.217854 0.276061 -0.178515
C28   C     C_R   0.862268 0.640380 0.399031 0.583272
C29   C     C_R   0.767891 0.224732 0.202860 -0.010650
C30   C     C_R   0.862022 0.194122 0.166568 0.047230
C31   C     C_R   0.979794 0.205642 0.203050 -0.018266
C32   C     C_R   0.986338 0.220681 0.278114 -0.031948
C33   C     C_R   0.868151 0.213321 0.315296 -0.014275
C34   C     C_R   0.308847 0.653877 0.678944 0.042129
C35   C     C_R   0.899551 0.790508 0.294857 -0.003912
C36   C     C_R   0.903068 0.792501 0.221640 -0.170151
C37   C     C_R   0.806308 0.676436 0.182407 0.004827
C38   C     C_R   0.702760 0.558213 0.218080 -0.113636
C39   C     C_R   0.702523 0.550667 0.292566 -0.046478
C40   C     C_R   0.271753 0.635513 0.396930 0.563404
C41   C     C_R   0.811683 0.663904 0.330782 0.005473
C42   C     C_R   0.805859 0.099361 0.892861 0.543899
C43   C     C_R   0.401737 0.704323 0.896011 0.608718
C44   C     C_R   0.797599 0.689501 0.898743 0.554265
C45   C     C_R   0.834913 0.140420 0.815749 -0.057246
C46   C     C_R   0.812126 0.114106 0.099893 0.594582
C47   C     C_R   0.401695 0.706666 0.105290 0.567596
C48   C     C_R   0.795567 0.698318 0.106634 0.577171
C49   C     C_R   0.868269 0.240795 0.392152 0.578562
C50   C     C_R   0.439209 0.759492 0.701998 -0.123410
C51   C     C_R   0.464899 0.779867 0.774378 -0.124643
C52   C     C_R   0.359182 0.696078 0.823814 0.086072
C53   C     C_2   0.504152 0.048422 0.615767 0.257696
C54   C     C_2   0.485978 0.295562 0.831915 0.201686
C55   C     C_2   0.606990 0.550380 0.660977 0.242677
C56   C     C_R   0.032488 0.092587 0.801595 -0.036631
C57   C     C_2   0.132298 0.791225 0.714332 0.158738
C58   C     C_2   0.670782 0.261072 0.166268 0.255686
C59   C     C_2   0.095922 0.203123 0.163098 0.300839
C60   C     C_2   0.118728 0.250562 0.315426 0.238376
C61   C     C_2   0.990244 0.923319 0.331818 0.224600
C62   C     C_2   0.583109 0.429735 0.329298 0.230399
C63   C     C_2   0.110775 0.504400 0.854053 0.227075
C64   C     C_2   0.100160 0.426258 0.707541 0.224610
C65   C     C_R   0.116977 0.063265 0.758027 -0.044101
C66   C     C_R   0.092112 0.044535 0.685221 -0.064282
C67   C     C_R   0.982012 0.054659 0.655416 -0.024067
Cr1   Cr    Cr6+3 0.791660 0.390250 0.499930 1.059699
Cr2   Cr    Cr6+3 0.098520 0.708290 0.500540 1.040066
Cr3   Cr    Cr6+3 0.109770 0.401430 0.499480 1.070066
Cr4   Cr    Cr6+3 0.874790 0.925890 0.000070 1.059454
Cr5   Cr    Cr6+3 0.574120 0.948670 0.999300 1.067246
Cr6   Cr    Cr6+3 0.551420 0.625320 0.000920 1.087430
H1    H     H_    0.523209 0.819580 0.664788 0.182148
H2    H     H_    0.718026 0.291009 0.866853 0.138551
H3    H     H_    0.411106 0.170422 0.702445 0.126672
H4    H     H_    0.406773 0.043805 0.599796 0.083075
H5    H     H_    0.517935 0.326732 0.886567 0.133599
H6    H     H_    0.500940 0.476364 0.679069 0.153260
H7    H     H_    0.036327 0.734638 0.845406 0.204154
H8    H     H_    0.165166 0.818411 0.660251 0.165760
H9    H     H_    0.480875 0.584937 0.201224 0.153396
H10   H     H_    0.680047 0.227737 0.302458 0.176261
H11   H     H_    0.568859 0.231090 0.189448 0.144667
H12   H     H_    0.601460 0.575144 0.798754 0.160759
H13   H     H_    0.150058 0.152702 0.185812 0.115821
H14   H     H_    0.116764 0.206719 0.367157 0.179241
H15   H     H_    0.090836 0.998516 0.308511 0.086183
H16   H     H_    0.976347 0.889969 0.195511 0.117781
H17   H     H_    0.618462 0.475368 0.187970 0.185703
H18   H     H_    0.563552 0.434716 0.385485 0.147165
H19   H     H_    0.014209 0.414673 0.836309 0.090256
H20   H     H_    0.989924 0.396631 0.708785 0.055396
H21   H     H_    0.965745 0.041044 0.598475 0.145295
H22   H     H_    0.447699 0.574427 0.328948 0.160431
H23   H     H_    0.270186 0.823316 0.178450 0.130731
H24   H     H_    0.569355 0.857239 0.792073 0.116211
H25   H     H_    0.225056 0.801896 0.306934 0.142755
H26   H     H_    0.204669 0.058832 0.781065 0.191269
H27   H     H_    0.161066 0.026882 0.651146 0.094626
H28   H     H_    0.066357 0.118298 0.855981 0.167443
O1    O     O_R   0.766500 0.250040 0.579790 -0.500588
O2    O     O_R   0.413330 0.603360 0.920440 -0.475914
O3    O     O_R   0.676110 0.626250 0.926750 -0.511339
O4    O     O_R   0.798570 0.516780 0.574780 -0.455792
O5    O     O_R   0.895350 0.809870 0.080950 -0.520055
O6    O     O_R   0.872490 0.049760 0.073800 -0.485748
O7    O     O_R   0.691680 0.088070 0.079070 -0.485322
O8    O     O_R   0.451720 0.825250 0.074050 -0.508899
O9    O     O_R   0.413580 0.606370 0.080960 -0.475735
O10   O     O_R   0.676340 0.629040 0.075550 -0.496983
O11   O     O_3   0.666780 0.833290 0.000090 -0.294839
O12   O     O_R   0.218690 0.701900 0.425960 -0.504124
O13   O     O_R   0.984000 0.732950 0.581090 -0.528195
O14   O     O_R   0.218600 0.700890 0.574760 -0.540171
O15   O     O_R   0.249390 0.515350 0.579940 -0.454699
O16   O     O_R   0.982790 0.280900 0.573700 -0.476573
O17   O     O_R   0.766600 0.251130 0.419260 -0.501793
O18   O     O_R   0.798660 0.517790 0.425980 -0.525529
O19   O     O_R   0.984100 0.734040 0.420570 -0.466653
O20   O     O_2   0.550522 0.990821 0.578199 -0.503755
O21   O     O_2   0.392602 0.311823 0.806777 -0.535703
O22   O     O_2   0.622487 0.607024 0.603131 -0.470234
O23   O     O_R   0.249490 0.516440 0.419420 -0.502320
O24   O     O_2   0.223941 0.847725 0.759316 -0.561626
O25   O     O_2   0.705692 0.328071 0.110739 -0.486120
O26   O     O_2   0.134873 0.261409 0.105366 -0.457846
O27   O     O_2   0.233833 0.325558 0.288288 -0.502323
O28   O     O_2   0.951766 0.950253 0.387619 -0.504119
O29   O     O_2   0.500975 0.324924 0.296731 -0.527998
O30   O     O_2   0.117935 0.536762 0.916610 -0.479015
O31   O     O_2   0.138510 0.344331 0.690999 -0.466027
O32   O     O_R   0.982880 0.281910 0.424890 -0.515031
O33   O     O_3   0.999980 0.499990 0.499980 -0.299307
O34   O     O_R   0.895110 0.806860 0.920430 -0.514770
O35   O     O_R   0.872260 0.046970 0.925000 -0.503940
O36   O     O_R   0.691430 0.085060 0.918550 -0.506999
O37   O     O_R   0.451490 0.822460 0.925250 -0.494346

loop_
_geom_bond_atom_site_label_1
_geom_bond_atom_site_label_2
_ccdc_geom_bond_type
C36   H16   S    
C51   H24   S    
Cr5   O11   S    
Cr2   O33   S    
C6    C45   A    
Cr4   O6    S    
C27   C29   A    
C62   O29   D    
C4    O14   A    
C35   C36   A    
C44   O3    A    
C7    C8    A    
C39   C41   A    
C27   C33   A    
C12   C23   A    
Cr2   O12   S    
C29   C30   A    
C36   C37   A    
Cr1   O1    S    
C56   H28   S    
C5    C11   A    
C24   H23   S    
Cr1   O18   S    
Cr4   O34   S    
C30   C31   A    
C43   C52   S    
Cr3   O16   S    
C33   C49   S    
C56   C65   A    
C28   C41   S    
C8    H3    S    
C43   O37   A    
C42   O35   A    
C18   C19   A    
C3    C56   A    
C31   C59   S    
Cr1   O17   S    
Cr6   O3    S    
C48   O5    A    
Cr5   O7    S    
C8    C9    A    
C46   O7    A    
C63   H19   S    
C67   H21   S    
C63   O30   D    
C9    C10   A    
C61   O28   D    
C44   O34   A    
Cr5   O37   S    
C22   C47   S    
C54   O21   D    
C13   C14   A    
C62   H18   S    
C42   O36   A    
C2    C11   A    
C12   C52   A    
C60   H14   S    
C30   C46   S    
Cr6   O10   S    
C55   O22   D    
C38   C39   A    
C40   O23   A    
C4    C34   S    
Cr2   O13   S    
C1    C19   S    
C34   C50   A    
C13   C19   A    
C51   C52   A    
C64   O31   D    
Cr6   O9    S    
C24   C25   A    
C65   H26   S    
C35   C61   S    
C2    C67   A    
C28   O19   A    
Cr4   O35   S    
C5    C7    A    
C12   C63   S    
Cr3   O15   S    
C25   C26   A    
C47   O8    A    
C66   H27   S    
C3    C45   A    
C17   H7    S    
C42   C45   S    
C53   H4    S    
C6    C10   A    
C37   C38   A    
C61   H15   S    
C58   H11   S    
Cr3   O32   S    
C55   H6    S    
C11   C16   S    
C18   C57   S    
C49   O17   A    
C60   O27   D    
C23   C34   A    
Cr4   O11   S    
C17   C18   A    
C50   C51   A    
C21   H9    S    
C37   C48   S    
C16   O1    A    
Cr5   O36   S    
C20   H22   S    
C58   O25   D    
C40   O12   A    
C46   O6    A    
C15   C44   S    
C57   H8    S    
C1    O13   A    
C7    C53   S    
C29   C58   S    
Cr6   O11   S    
C15   C17   A    
C39   C62   S    
C49   O32   A    
Cr5   O8    S    
C23   C64   S    
C4    O15   A    
C31   C32   A    
C14   H12   S    
C28   O18   A    
C64   H20   S    
C47   O9    A    
Cr2   O14   S    
C38   H17   S    
Cr2   O19   S    
C32   C33   A    
C50   H1    S    
C2    C3    A    
C59   H13   S    
C53   O20   D    
C16   O16   A    
C57   O24   D    
C26   C40   S    
C5    C6    A    
C20   C26   A    
Cr1   O33   S    
C66   C67   A    
C22   C24   A    
C35   C41   A    
C43   O2    A    
C27   H10   S    
Cr3   O23   S    
C25   H25   S    
Cr6   O2    S    
C48   O10   A    
C20   C21   A    
C65   C66   A    
Cr1   O4    S    
Cr4   O5    S    
Cr3   O33   S    
C32   C60   S    
C14   C15   A    
C9    C54   S    
C54   H5    S    
C21   C22   A    
C59   O26   D    
C1    O4    A    
C13   C55   S    
C10   H2    S    
