data_mof_unit_34224.cif
_audit_creation_date              2012-12-10T18:11:53-0500
_audit_creation_method            fapswitch 2.2
_symmetry_space_group_name_H-M    P1
_symmetry_Int_Tables_number       1
_space_group_crystal_system       triclinic
_cell_length_a                    15.790455
_cell_length_b                    10.947096
_cell_length_c                    9.738846
_cell_angle_alpha                 88.029772
_cell_angle_beta                  89.550705
_cell_angle_gamma                 95.50349
_cell_volume                      1674.5975572

loop_
_atom_site_label
_atom_site_type_symbol
_atom_type_description
_atom_site_fract_x
_atom_site_fract_y
_atom_site_fract_z
_atom_type_partial_charge
C1    C     C_R   0.499043 0.261149 0.501741 0.813985
C2    C     C_3   0.083476 0.499984 0.498676 -0.006973
C3    C     C_3   0.977604 0.578191 0.592112 0.372443
C4    C     C_3   0.917121 0.502775 0.498129 0.003753
C5    C     C_3   0.036529 0.613434 0.468355 0.339192
C6    C     C_3   0.975351 0.539001 0.372744 -0.274170
C7    C     C_1   0.175170 0.499012 0.500022 0.102301
C8    C     C_1   0.825212 0.502215 0.498306 0.090213
C9    C     C_3   0.525117 0.069612 0.646937 0.209181
C10   C     C_3   0.513965 0.928474 0.645834 0.155415
C11   C     C_3   0.414292 0.060394 0.460493 -0.429921
C12   C     C_R   0.340624 0.499166 0.500453 0.831170
C13   C     C_3   0.566752 0.094024 0.392551 -0.379152
C14   C     C_3   0.502216 0.124496 0.502522 -0.110946
C15   C     C_3   0.506923 0.881775 0.495712 -0.184234
C16   C     C_3   0.420354 0.920890 0.440532 -0.355303
C17   C     C_3   0.578036 0.955261 0.396558 0.249826
C18   C     C_3   0.555286 0.614989 0.076001 0.614811
C19   C     C_3   0.546713 0.619386 0.910956 0.180396
C20   C     C_3   0.535754 0.390476 0.086550 -0.388897
C21   C     C_3   0.412591 0.499547 0.081786 0.188568
C22   C     C_3   0.543692 0.398237 0.923193 0.319647
C23   C     C_R   0.504216 0.740871 0.497735 0.892664
C24   C     C_3   0.412570 0.486047 0.918492 0.117340
C25   C     C_R   0.659358 0.499077 0.499622 0.906912
C26   C     C_3   0.963547 0.387633 0.528712 -0.144738
C27   C     C_3   0.023333 0.423828 0.403616 -0.137783
C28   C     C_1   0.250848 0.498905 0.500963 -0.017294
C29   C     C_1   0.749363 0.500792 0.498688 0.029511
C30   C     C_3   0.025182 0.463824 0.623800 -0.206832
Cu1   Cu    Cu3+1 0.500040 0.499860 0.642410 1.114802
Cu2   Cu    Cu3+1 0.499960 0.500140 0.357590 1.073468
H1    H     H_    0.043545 0.360000 0.326299 0.200204
H2    H     H_    0.365898 0.072552 0.541292 0.240910
H3    H     H_    0.365154 0.866386 0.491623 0.254786
H4    H     H_    0.543972 0.120195 0.288505 0.182714
H5    H     H_    0.626624 0.153695 0.404358 0.252160
H6    H     H_    0.561271 0.924784 0.292746 0.193729
H7    H     H_    0.392077 0.103001 0.363484 0.217837
H8    H     H_    0.414855 0.902588 0.329276 0.249223
H9    H     H_    0.932012 0.294314 0.553350 0.198161
H10   H     H_    0.503043 0.689150 0.882024 0.177461
H11   H     H_    0.596097 0.372579 0.136225 0.261454
H12   H     H_    0.376070 0.417664 0.130838 0.207951
H13   H     H_    0.377057 0.556276 0.866874 0.208682
H14   H     H_    0.493925 0.306876 0.117996 0.206354
H15   H     H_    0.954096 0.570767 0.270301 0.197891
H16   H     H_    0.514691 0.310401 0.883719 0.211526
H17   H     H_    0.046577 0.433391 0.726659 0.211373
H18   H     H_    0.478645 0.100928 0.721383 0.183680
H19   H     H_    0.568029 0.890399 0.694454 0.249327
N1    N     N_3   0.501840 0.500250 0.143650 -0.313183
N2    N     N_3   0.501160 0.503300 0.856280 -0.342983
O1    O     O_R   0.500050 0.317570 0.620260 -0.536162
O2    O     O_R   0.499980 0.317810 0.379740 -0.624097
O3    O     O_R   0.379110 0.499870 0.620240 -0.549648
O4    O     O_R   0.379040 0.500110 0.379720 -0.543242
O5    O     O_R   0.500020 0.682190 0.620260 -0.550833
O6    O     O_R   0.499950 0.682430 0.379740 -0.501230
O7    O     O_R   0.620960 0.499890 0.620280 -0.478421
O8    O     O_R   0.620890 0.500130 0.379760 -0.535975
Cl1   Cl    Cl    0.423330 0.874439 0.753503 -0.537297
S1    S     S_3+6 0.692148 0.939479 0.400299 0.090126
O9    O     O_2   0.715031 0.829392 0.481305 -0.206077
O10   O     O_2   0.720428 0.929198 0.253916 -0.205475
O11   O     O_3   0.750136 0.063900 0.458234 -0.485624
H20   H     H_    0.810233 0.047671 0.444680 0.386489
S2    S     S_3+6 0.666112 0.640108 0.143741 0.142539
O12   O     O_2   0.658778 0.693370 0.281609 -0.231369
O13   O     O_2   0.708712 0.523259 0.154787 -0.288377
O14   O     O_3   0.737605 0.746109 0.069744 -0.381721
H21   H     H_    0.791810 0.736667 0.117835 0.379652
Cl2   Cl    Cl    0.517834 0.759583 0.116203 -0.478659
S3    S     S_3+6 0.645151 0.694056 0.826640 0.132413
O15   O     O_2   0.644726 0.712316 0.675687 -0.274133
O16   O     O_2   0.655280 0.821612 0.880211 -0.187804
O17   O     O_3   0.734277 0.625697 0.858029 -0.397386
H22   H     H_    0.780853 0.683230 0.818038 0.411506
Cl3   Cl    Cl    0.653229 0.396031 0.880638 -0.375832
S4    S     S_3+6 0.340274 0.618070 0.119976 0.076260
O18   O     O_2   0.358096 0.688857 0.247098 -0.230164
O19   O     O_2   0.338510 0.710685 0.002583 -0.226512
O20   O     O_3   0.242192 0.543939 0.137801 -0.502073
H23   H     H_    0.202515 0.606851 0.117727 0.405139
S5    S     S_3+6 0.346989 0.341985 0.884174 0.006152
O21   O     O_2   0.255487 0.366998 0.899344 -0.236931
O22   O     O_2   0.358737 0.293413 0.744322 -0.285063
O23   O     O_3   0.365431 0.229598 0.999162 -0.586565
H24   H     H_    0.321409 0.161385 0.981622 0.413537
S6    S     S_3+6 0.085816 0.764055 0.428443 0.083755
O24   O     O_2   0.144485 0.803565 0.542767 -0.196101
O25   O     O_2   0.136130 0.764116 0.296875 -0.258445
O26   O     O_3   0.010890 0.862590 0.411485 -0.445117
H25   H     H_    0.971497 0.826842 0.341611 0.349518
Cl4   Cl    Cl    0.948383 0.681738 0.717118 -0.491124
S7    S     S_3+6 0.628214 0.120036 0.716396 0.064838
O27   O     O_2   0.665373 0.237525 0.646347 -0.282940
O28   O     O_2   0.614966 0.137871 0.866937 -0.237323
O29   O     O_3   0.698727 0.015331 0.704819 -0.420431
H26   H     H_    0.749055 0.049205 0.756143 0.407615

loop_
_geom_bond_atom_site_label_1
_geom_bond_atom_site_label_2
_ccdc_geom_bond_type
C23   O5    A    
C22   H16   S    
S1    O10   D    
O26   H25   S    
C2    C7    S    
C11   H2    S    
C4    C8    S    
C18   N1    S    
Cu1   Cu2   S    
O17   H22   S    
C27   H1    S    
C23   O6    A    
C26   C27   S    
S3    O16   D    
C12   C28   S    
C24   H13   S    
Cu1   O5    S    
C22   Cl3   S    
C10   C15   S    
C16   H3    S    
C5    C6    S    
C11   C14   S    
C18   S2    S    
C15   C16   S    
S7    O29   S    
C18   C19   S    
Cu2   N1    S    
O20   H23   S    
S2    O12   D    
S3    O17   S    
S7    O28   D    
C2    C27   S    
C25   O7    A    
Cu1   O3    S    
C9    C10   S    
Cu2   O2    S    
C13   H5    S    
C5    S6    S    
C6    C27   S    
C19   N2    S    
C15   C23   S    
O11   H20   S    
S1    O11   S    
C13   C14   S    
C10   Cl1   S    
Cu2   O4    S    
S4    O20   S    
C10   H19   S    
C22   N2    S    
S5    O22   D    
C25   C29   S    
S3    O15   D    
C13   H4    S    
S4    O19   D    
C6    H15   S    
C24   N2    S    
S5    O21   D    
C7    C28   T    
Cu1   O7    S    
C3    C30   S    
C9    C14   S    
C21   H12   S    
C11   C16   S    
S6    O25   D    
O29   H26   S    
S7    O27   D    
C25   O8    A    
Cu1   N2    S    
C11   H7    S    
C9    S7    S    
C12   O3    A    
C16   H8    S    
C1    O1    A    
C12   O4    A    
C4    C6    S    
C30   H17   S    
C20   C22   S    
C26   C30   S    
C18   Cl2   S    
C2    C5    S    
C8    C29   T    
C3    C4    S    
C20   H11   S    
S6    O26   S    
C24   S5    S    
S5    O23   S    
C15   C17   S    
C19   S3    S    
C9    H18   S    
S4    O18   D    
C3    C5    S    
Cu2   O8    S    
C4    C26   S    
C19   H10   S    
C13   C17   S    
C2    C30   S    
C1    O2    A    
O14   H21   S    
C20   N1    S    
C17   S1    S    
S6    O24   D    
S2    O14   S    
C21   S4    S    
C17   H6    S    
Cu1   O1    S    
S1    O9    D    
O23   H24   S    
S2    O13   D    
C21   C24   S    
C3    Cl4   S    
C1    C14   S    
Cu2   O6    S    
C21   N1    S    
C20   H14   S    
C26   H9    S    
