data_mof_unit_66169.cif
_audit_creation_date              2013-03-05T16:15:55-0500
_audit_creation_method            fapswitch 2.2
_symmetry_space_group_name_H-M    P1
_symmetry_Int_Tables_number       1
_space_group_crystal_system       monoclinic
_cell_length_a                    34.526119
_cell_length_b                    24.42791
_cell_length_c                    24.415983
_cell_angle_alpha                 90.0
_cell_angle_beta                  90.000078
_cell_angle_gamma                 90.0
_cell_volume                      20592.46271

loop_
_atom_site_label
_atom_site_type_symbol
_atom_site_description
_atom_site_fract_x
_atom_site_fract_y
_atom_site_fract_z
_atom_type_partial_charge
Zn1   Zn    Zn3+2 0.782760 0.500000 0.564970 0.985008
Zn2   Zn    Zn3+2 0.217240 0.500000 0.435030 0.985425
Zn3   Zn    Zn3+2 0.782760 0.500000 0.435030 0.984997
Zn4   Zn    Zn3+2 0.217240 0.500000 0.564970 0.985837
Zn5   Zn    Zn3+2 0.282760 0.000000 0.064970 0.985229
Zn6   Zn    Zn3+2 0.717240 0.000000 0.935030 0.985897
Zn7   Zn    Zn3+2 0.282760 0.000000 0.935030 0.985124
Zn8   Zn    Zn3+2 0.717240 0.000000 0.064970 0.985905
Zn9   Zn    Zn3+2 0.717260 0.564980 0.500000 0.969865
Zn10  Zn    Zn3+2 0.282740 0.435020 0.500000 0.969673
Zn11  Zn    Zn3+2 0.717260 0.435020 0.500000 0.969890
Zn12  Zn    Zn3+2 0.282740 0.564980 0.500000 0.969387
Zn13  Zn    Zn3+2 0.217260 0.064980 0.000000 0.969850
Zn14  Zn    Zn3+2 0.782740 0.935020 0.000000 0.969602
Zn15  Zn    Zn3+2 0.217260 0.935020 0.000000 0.969829
Zn16  Zn    Zn3+2 0.782740 0.064980 0.000000 0.969580
O1    O     O_3   0.750010 0.500000 0.500000 -0.480546
O2    O     O_3   0.249990 0.500000 0.500000 -0.480619
O3    O     O_3   0.250010 0.000000 0.000000 -0.480585
O4    O     O_3   0.749990 0.000000 0.000000 -0.480739
O5    O     O_R   0.772930 0.563990 0.390540 -0.640454
O6    O     O_R   0.227070 0.436010 0.609460 -0.641523
O7    O     O_R   0.772930 0.436010 0.609460 -0.640446
O8    O     O_R   0.227070 0.563990 0.390540 -0.642295
O9    O     O_R   0.227070 0.436010 0.390540 -0.639502
O10   O     O_R   0.772930 0.563990 0.609460 -0.640636
O11   O     O_R   0.227070 0.563990 0.609460 -0.641380
O12   O     O_R   0.772930 0.436010 0.390540 -0.640632
O13   O     O_R   0.272930 0.063990 0.890540 -0.640643
O14   O     O_R   0.727070 0.936010 0.109460 -0.641166
O15   O     O_R   0.272930 0.936010 0.109460 -0.640006
O16   O     O_R   0.727070 0.063990 0.890540 -0.641174
O17   O     O_R   0.727070 0.936010 0.890540 -0.641533
O18   O     O_R   0.272930 0.063990 0.109460 -0.642413
O19   O     O_R   0.727070 0.063990 0.109460 -0.641541
O20   O     O_R   0.272930 0.936010 0.890540 -0.640127
O21   O     O_R   0.727090 0.609470 0.563990 -0.644147
O22   O     O_R   0.272910 0.390530 0.436010 -0.647832
O23   O     O_R   0.727090 0.390530 0.436010 -0.644145
O24   O     O_R   0.272910 0.609470 0.563990 -0.646122
O25   O     O_R   0.272910 0.390530 0.563990 -0.645732
O26   O     O_R   0.727090 0.609470 0.436010 -0.645717
O27   O     O_R   0.272910 0.609470 0.436010 -0.645569
O28   O     O_R   0.727090 0.390530 0.563990 -0.645706
O29   O     O_R   0.227090 0.109470 0.063990 -0.645372
O30   O     O_R   0.772910 0.890530 0.936010 -0.645723
O31   O     O_R   0.227090 0.890530 0.936010 -0.647478
O32   O     O_R   0.772910 0.109470 0.063990 -0.645721
O33   O     O_R   0.772910 0.890530 0.063990 -0.647622
O34   O     O_R   0.227090 0.109470 0.936010 -0.644123
O35   O     O_R   0.772910 0.109470 0.936010 -0.647632
O36   O     O_R   0.227090 0.890530 0.063990 -0.644469
O37   O     O_R   0.662570 0.545500 0.500000 -0.647992
O38   O     O_R   0.337430 0.454500 0.500000 -0.644933
O39   O     O_R   0.662570 0.454500 0.500000 -0.647986
O40   O     O_R   0.337430 0.545500 0.500000 -0.647017
O41   O     O_R   0.162570 0.045500 0.000000 -0.648298
O42   O     O_R   0.837430 0.954500 0.000000 -0.645236
O43   O     O_R   0.162570 0.954500 0.000000 -0.646213
O44   O     O_R   0.837430 0.045500 0.000000 -0.645242
O45   O     O_R   0.837440 0.500000 0.454520 -0.642654
O46   O     O_R   0.162560 0.500000 0.545480 -0.639257
O47   O     O_R   0.837440 0.500000 0.545480 -0.642652
O48   O     O_R   0.162560 0.500000 0.454520 -0.641353
O49   O     O_R   0.337440 0.000000 0.954520 -0.642910
O50   O     O_R   0.662560 0.000000 0.045480 -0.639523
O51   O     O_R   0.337440 0.000000 0.045480 -0.640831
O52   O     O_R   0.662560 0.000000 0.954520 -0.639523
C1    C     C_R   0.750014 0.605100 0.394893 0.785628
C2    C     C_R   0.249983 0.394896 0.605104 0.784794
C3    C     C_R   0.750014 0.394900 0.605107 0.785653
C4    C     C_R   0.249985 0.605101 0.394895 0.784919
C5    C     C_R   0.249982 0.394894 0.394898 0.784941
C6    C     C_R   0.750016 0.605102 0.605105 0.786487
C7    C     C_R   0.249985 0.605102 0.605106 0.784739
C8    C     C_R   0.750015 0.394898 0.394894 0.786492
C9    C     C_R   0.250016 0.105102 0.894895 0.786500
C10   C     C_R   0.749983 0.894896 0.105104 0.784064
C11   C     C_R   0.250017 0.894895 0.105104 0.786377
C12   C     C_R   0.749983 0.105104 0.894896 0.784044
C13   C     C_R   0.749983 0.894896 0.894896 0.784790
C14   C     C_R   0.250012 0.105098 0.105108 0.784778
C15   C     C_R   0.749983 0.105104 0.105104 0.784786
C16   C     C_R   0.250015 0.894898 0.894895 0.784986
C17   C     C_R   0.644260 0.500000 0.499999 0.787132
C18   C     C_R   0.355741 0.500000 0.499998 0.789178
C19   C     C_R   0.144260 0.000000 0.999998 0.787838
C20   C     C_R   0.855741 0.000000 0.999999 0.789864
C21   C     C_R   0.855918 0.500002 0.500000 0.812790
C22   C     C_R   0.144082 0.500004 0.500000 0.815367
C23   C     C_R   0.355918 0.000005 1.000000 0.813688
C24   C     C_R   0.644082 0.000002 1.000000 0.816227
C25   C     C_R   0.081327 0.501322 0.549490 -0.166944
C26   C     C_R   0.918670 0.498721 0.450507 -0.170210
C27   C     C_R   0.081327 0.498736 0.450507 -0.168745
C28   C     C_R   0.918670 0.501319 0.549490 -0.170180
C29   C     C_R   0.581327 0.001293 0.950507 -0.167000
C30   C     C_R   0.418671 0.998763 0.049492 -0.168472
C31   C     C_R   0.581327 0.998749 0.049492 -0.166972
C32   C     C_R   0.418670 0.001299 0.950507 -0.170257
C33   C     C_R   0.101571 0.500020 0.499999 -0.085493
C34   C     C_R   0.898427 0.500012 0.499999 -0.084406
C35   C     C_R   0.601571 0.000013 0.999999 -0.085841
C36   C     C_R   0.398427 0.000021 1.000000 -0.084809
C37   C     C_R   0.040760 0.498703 0.449598 0.008320
C38   C     C_R   0.959237 0.501371 0.550399 0.008809
C39   C     C_R   0.040760 0.501374 0.550399 0.007763
C40   C     C_R   0.959237 0.498692 0.449598 0.008716
C41   C     C_R   0.540760 0.998722 0.050400 0.007959
C42   C     C_R   0.459237 0.001351 0.949599 0.008909
C43   C     C_R   0.540760 0.001346 0.949598 0.007852
C44   C     C_R   0.459237 0.998731 0.050401 0.008311
C45   C     C_R   0.020353 0.500038 0.499998 -0.018542
C46   C     C_R   0.979644 0.500035 0.499998 -0.018186
C47   C     C_R   0.520353 0.000037 0.999999 -0.018463
C48   C     C_R   0.479644 0.000040 1.000000 -0.018096
C49   C     C_R   0.020340 0.497355 0.399466 0.222860
C50   C     C_R   0.979656 0.502737 0.600530 0.221831
C51   C     C_R   0.020339 0.502737 0.600530 0.223188
C52   C     C_R   0.979656 0.497346 0.399466 0.222105
C53   C     C_R   0.520340 0.997403 0.100533 0.222930
C54   C     C_R   0.479656 0.002687 0.899466 0.221872
C55   C     C_R   0.520339 0.002685 0.899466 0.223235
C56   C     C_R   0.479657 0.997411 0.100533 0.222180
H1    H     H_    0.097701 0.502345 0.587161 0.207734
H2    H     H_    0.902295 0.497685 0.412837 0.206454
H3    H     H_    0.097702 0.497708 0.412836 0.207173
H4    H     H_    0.902295 0.502346 0.587161 0.206450
H5    H     H_    0.597701 0.002299 0.912836 0.207758
H6    H     H_    0.402296 0.997753 0.087163 0.207129
H7    H     H_    0.597701 0.997734 0.087162 0.207756
H8    H     H_    0.402295 0.002302 0.912836 0.206473
C57   C     C_R   0.781709 0.306956 0.723281 -0.171522
C58   C     C_R   0.218295 0.693028 0.276705 -0.171409
C59   C     C_R   0.781709 0.693044 0.276719 -0.171536
C60   C     C_R   0.234574 0.323382 0.739721 -0.170332
C61   C     C_R   0.234543 0.676623 0.739715 -0.170471
C62   C     C_R   0.781708 0.306973 0.276702 -0.170864
C63   C     C_R   0.234512 0.323332 0.260317 -0.170229
C64   C     C_R   0.781708 0.693027 0.723298 -0.170876
C65   C     C_R   0.265452 0.823366 0.239709 -0.170131
C66   C     C_R   0.734536 0.176640 0.760297 -0.170350
C67   C     C_R   0.281708 0.193026 0.776702 -0.170860
C68   C     C_R   0.734536 0.823359 0.239702 -0.170349
C69   C     C_R   0.734574 0.176618 0.239721 -0.170332
C70   C     C_R   0.281725 0.806933 0.776746 -0.171606
C71   C     C_R   0.734574 0.823382 0.760278 -0.170336
C72   C     C_R   0.281696 0.193025 0.223300 -0.171647
H9    H     H_    0.806833 0.303074 0.749536 0.139362
H10   H     H_    0.193177 0.696894 0.250436 0.139599
H11   H     H_    0.806833 0.696927 0.250465 0.139357
H12   H     H_    0.223144 0.333319 0.779804 0.136768
H13   H     H_    0.223084 0.666698 0.779784 0.136537
H14   H     H_    0.806823 0.303113 0.250427 0.140052
H15   H     H_    0.223050 0.333251 0.220248 0.137247
H16   H     H_    0.806823 0.696887 0.749573 0.140045
H17   H     H_    0.276898 0.833296 0.279784 0.137010
H18   H     H_    0.723083 0.166716 0.720225 0.136802
H19   H     H_    0.306823 0.196887 0.750427 0.140042
H20   H     H_    0.723082 0.833284 0.279774 0.136799
H21   H     H_    0.723144 0.166682 0.279804 0.136766
H22   H     H_    0.306852 0.803047 0.750498 0.139377
H23   H     H_    0.723144 0.833318 0.720196 0.136762
H24   H     H_    0.306819 0.196909 0.249555 0.139312
C73   C     C_R   0.781582 0.347503 0.683260 -0.175195
C74   C     C_R   0.218423 0.652480 0.316725 -0.176849
C75   C     C_R   0.781582 0.652497 0.316741 -0.175224
C76   C     C_R   0.234303 0.363528 0.699300 -0.176218
C77   C     C_R   0.234273 0.636480 0.699291 -0.175816
C78   C     C_R   0.781578 0.347522 0.316722 -0.174923
C79   C     C_R   0.234250 0.363488 0.300730 -0.174503
C80   C     C_R   0.781578 0.652478 0.683278 -0.174937
C81   C     C_R   0.265722 0.863513 0.199288 -0.174462
C82   C     C_R   0.734271 0.136490 0.800715 -0.175790
C83   C     C_R   0.281578 0.152478 0.816722 -0.174911
C84   C     C_R   0.734270 0.863509 0.199284 -0.175772
C85   C     C_R   0.734303 0.136472 0.199300 -0.176199
C86   C     C_R   0.281593 0.847488 0.816760 -0.175135
C87   C     C_R   0.734303 0.863528 0.800700 -0.176194
C88   C     C_R   0.281573 0.152485 0.183272 -0.176811
H25   H     H_    0.806410 0.374391 0.679804 0.167852
H26   H     H_    0.193603 0.625574 0.320163 0.167678
H27   H     H_    0.806411 0.625610 0.320197 0.167839
H28   H     H_    0.222339 0.403397 0.708838 0.162288
H29   H     H_    0.222279 0.596625 0.708812 0.162412
H30   H     H_    0.806396 0.374433 0.320157 0.168419
H31   H     H_    0.222260 0.403342 0.291199 0.164220
H32   H     H_    0.806396 0.625567 0.679843 0.168413
H33   H     H_    0.277702 0.903374 0.208819 0.164188
H34   H     H_    0.722286 0.096632 0.791186 0.162416
H35   H     H_    0.306395 0.125567 0.820157 0.168411
H36   H     H_    0.722285 0.903367 0.208813 0.162417
H37   H     H_    0.722339 0.096603 0.208838 0.162307
H38   H     H_    0.306421 0.874377 0.820217 0.167859
H39   H     H_    0.722339 0.903397 0.791162 0.162306
H40   H     H_    0.306404 0.125603 0.179813 0.167603
C89   C     C_R   0.750012 0.352533 0.647495 -0.004463
C90   C     C_R   0.249984 0.647470 0.352509 -0.004978
C91   C     C_R   0.750012 0.647467 0.352505 -0.004443
C92   C     C_R   0.249975 0.352519 0.647484 -0.002279
C93   C     C_R   0.249980 0.647475 0.647493 -0.002919
C94   C     C_R   0.750019 0.352526 0.352510 -0.005419
C95   C     C_R   0.249965 0.352507 0.352526 -0.003003
C96   C     C_R   0.750020 0.647474 0.647490 -0.005416
C97   C     C_R   0.250028 0.852516 0.147483 -0.003755
C98   C     C_R   0.749973 0.147483 0.852517 -0.002249
C99   C     C_R   0.250020 0.147474 0.852510 -0.005412
C100  C     C_R   0.749973 0.852517 0.147483 -0.002252
C101  C     C_R   0.749975 0.147481 0.147484 -0.002298
C102  C     C_R   0.250019 0.852524 0.852515 -0.004378
C103  C     C_R   0.749975 0.852519 0.852516 -0.002300
C104  C     C_R   0.250006 0.147457 0.147504 -0.004327
C105  C     C_R   0.718438 0.316789 0.652501 -0.182860
C106  C     C_R   0.281546 0.683236 0.347524 -0.183146
C107  C     C_R   0.718438 0.683210 0.347498 -0.182888
C108  C     C_R   0.265656 0.300738 0.636442 -0.181607
C109  C     C_R   0.265699 0.699237 0.636474 -0.182128
C110  C     C_R   0.718461 0.316752 0.347530 -0.181665
C111  C     C_R   0.265677 0.300742 0.363559 -0.183233
C112  C     C_R   0.718461 0.683248 0.652470 -0.181662
C113  C     C_R   0.234329 0.800744 0.136450 -0.180632
C114  C     C_R   0.765679 0.199252 0.863548 -0.183188
C115  C     C_R   0.218461 0.183248 0.847530 -0.181623
C116  C     C_R   0.765679 0.800748 0.136453 -0.183161
C117  C     C_R   0.765656 0.199262 0.136442 -0.181569
C118  C     C_R   0.218447 0.816777 0.847510 -0.184342
C119  C     C_R   0.765656 0.800738 0.863558 -0.181564
C120  C     C_R   0.218427 0.183191 0.152517 -0.182852
H41   H     H_    0.693612 0.320264 0.625599 0.158674
H42   H     H_    0.306365 0.679780 0.374443 0.160238
H43   H     H_    0.693611 0.679735 0.374399 0.158653
H44   H     H_    0.277611 0.291222 0.596542 0.158435
H45   H     H_    0.277684 0.708743 0.596590 0.159970
H46   H     H_    0.693643 0.320203 0.374451 0.160443
H47   H     H_    0.277664 0.291246 0.403443 0.158215
H48   H     H_    0.693643 0.679797 0.625549 0.160443
H49   H     H_    0.222356 0.791237 0.096560 0.160170
H50   H     H_    0.777657 0.208756 0.903436 0.158242
H51   H     H_    0.193643 0.179797 0.874451 0.160452
H52   H     H_    0.777659 0.791245 0.096565 0.158248
H53   H     H_    0.777611 0.208778 0.096542 0.158471
H54   H     H_    0.193617 0.820255 0.874407 0.158448
H55   H     H_    0.777611 0.791222 0.903457 0.158476
H56   H     H_    0.193601 0.179715 0.125614 0.158674
C121  C     C_R   0.718302 0.276759 0.693036 -0.171947
C122  C     C_R   0.281682 0.723265 0.306990 -0.172184
C123  C     C_R   0.718302 0.723240 0.306964 -0.171956
C124  C     C_R   0.265416 0.260326 0.676595 -0.172193
C125  C     C_R   0.265458 0.739647 0.676628 -0.172468
C126  C     C_R   0.718327 0.276720 0.306998 -0.172134
C127  C     C_R   0.265427 0.260320 0.323416 -0.172676
C128  C     C_R   0.718327 0.723280 0.693002 -0.172127
C129  C     C_R   0.234572 0.760330 0.176600 -0.172306
C130  C     C_R   0.765434 0.239667 0.823399 -0.172520
C131  C     C_R   0.218327 0.223280 0.806998 -0.172121
C132  C     C_R   0.765435 0.760333 0.176602 -0.172509
C133  C     C_R   0.765416 0.239674 0.176595 -0.172170
C134  C     C_R   0.218315 0.776741 0.806982 -0.172058
C135  C     C_R   0.765417 0.760327 0.823405 -0.172163
C136  C     C_R   0.218286 0.223213 0.193059 -0.172063
H57   H     H_    0.693175 0.250523 0.696897 0.138143
H58   H     H_    0.306804 0.749516 0.303145 0.138500
H59   H     H_    0.693174 0.749476 0.303102 0.138135
H60   H     H_    0.276854 0.220275 0.666631 0.136152
H61   H     H_    0.276924 0.779686 0.666679 0.136449
H62   H     H_    0.693210 0.250461 0.303158 0.138252
H63   H     H_    0.276890 0.220282 0.333373 0.135741
H64   H     H_    0.693210 0.749539 0.696842 0.138257
H65   H     H_    0.223121 0.720286 0.166641 0.136199
H66   H     H_    0.776892 0.279708 0.833354 0.136061
H67   H     H_    0.193210 0.249539 0.803158 0.138257
H68   H     H_    0.776894 0.720292 0.166646 0.136064
H69   H     H_    0.776854 0.279725 0.166631 0.136173
H70   H     H_    0.193188 0.750504 0.803120 0.138102
H71   H     H_    0.776854 0.720275 0.833369 0.136177
H72   H     H_    0.193155 0.249443 0.196923 0.138164
C137  C     C_R   0.750003 0.271340 0.728668 0.107560
C138  C     C_R   0.249991 0.728665 0.271338 0.107768
C139  C     C_R   0.750004 0.728660 0.271332 0.107575
C140  C     C_R   0.250006 0.271343 0.728674 0.109645
C141  C     C_R   0.250011 0.728645 0.728689 0.109436
C142  C     C_R   0.750016 0.271328 0.271341 0.107210
C143  C     C_R   0.249976 0.271311 0.271355 0.109406
C144  C     C_R   0.750016 0.728672 0.728658 0.107212
C145  C     C_R   0.250002 0.771336 0.228670 0.109174
C146  C     C_R   0.749993 0.228666 0.771334 0.109601
C147  C     C_R   0.250016 0.228671 0.771341 0.107201
C148  C     C_R   0.749993 0.771334 0.228666 0.109594
C149  C     C_R   0.750006 0.228657 0.228674 0.109626
C150  C     C_R   0.250020 0.771317 0.771357 0.107746
C151  C     C_R   0.750006 0.771343 0.771326 0.109624
C152  C     C_R   0.249987 0.228635 0.228691 0.107772
C153  C     C_R   0.541602 0.546663 0.482890 -0.175802
C154  C     C_R   0.458402 0.453317 0.482955 -0.175602
C155  C     C_R   0.541599 0.453340 0.517077 -0.175540
C156  C     C_R   0.458403 0.546690 0.517005 -0.175633
C157  C     C_R   0.041600 0.046664 0.017077 -0.175430
C158  C     C_R   0.958405 0.953316 0.017012 -0.175235
C159  C     C_R   0.041601 0.953343 0.982883 -0.175402
C160  C     C_R   0.958402 0.046686 0.982955 -0.175488
H73   H     H_    0.526478 0.582792 0.468633 0.135988
H74   H     H_    0.473527 0.417168 0.468752 0.136293
H75   H     H_    0.526472 0.417211 0.531330 0.136269
H76   H     H_    0.473530 0.582840 0.531204 0.136270
H77   H     H_    0.026474 0.082792 0.031332 0.136288
H78   H     H_    0.973532 0.917168 0.031213 0.136583
H79   H     H_    0.026476 0.917216 0.968624 0.136304
H80   H     H_    0.973526 0.082836 0.968750 0.136315
C161  C     C_R   0.581809 0.546793 0.483276 -0.185778
C162  C     C_R   0.418195 0.453186 0.483339 -0.183375
C163  C     C_R   0.581807 0.453208 0.516704 -0.185839
C164  C     C_R   0.418196 0.546820 0.516631 -0.184802
C165  C     C_R   0.081807 0.046794 0.016703 -0.185794
C166  C     C_R   0.918197 0.953185 0.016640 -0.183378
C167  C     C_R   0.081808 0.953211 0.983267 -0.184376
C168  C     C_R   0.918194 0.046816 0.983340 -0.183317
H81   H     H_    0.597015 0.583164 0.469780 0.158255
H82   H     H_    0.402992 0.416794 0.469898 0.160198
H83   H     H_    0.597009 0.416837 0.530204 0.158301
H84   H     H_    0.402994 0.583211 0.530075 0.160002
H85   H     H_    0.097010 0.083163 0.030206 0.158317
H86   H     H_    0.902996 0.916795 0.030088 0.160262
H87   H     H_    0.097013 0.916842 0.969767 0.158496
H88   H     H_    0.902991 0.083206 0.969897 0.160221
C169  C     C_R   0.602080 0.500001 0.499994 0.002906
C170  C     C_R   0.397923 0.500002 0.499990 0.001501
C171  C     C_R   0.102080 0.000002 0.999990 0.002792
C172  C     C_R   0.897923 0.000000 0.999994 0.001387
C173  C     C_R   0.521226 0.500001 0.499981 0.112117
C174  C     C_R   0.478778 0.500004 0.499978 0.111614
C175  C     C_R   0.021225 0.000003 0.999978 0.111970
C176  C     C_R   0.978778 0.000002 0.999981 0.111462
Br1   Br    Br    0.047516 0.495482 0.330092 -0.443077
Br2   Br    Br    0.952478 0.504650 0.669902 -0.445908
Br3   Br    Br    0.047515 0.504648 0.669903 -0.440559
Br4   Br    Br    0.952479 0.495448 0.330094 -0.445979
Br5   Br    Br    0.547516 0.995546 0.169907 -0.440405
Br6   Br    Br    0.452477 0.004566 0.830094 -0.445819
Br7   Br    Br    0.547515 0.004558 0.830092 -0.440451
Br8   Br    Br    0.452480 0.995576 0.169908 -0.443047

loop_
_geom_bond_atom_site_label_1
_geom_bond_atom_site_label_2
_geom_bond_distance
_ccdc_geom_bond_type
C31   C35   1.396327 A    
C107  C123  1.391290 A    
Zn7   O13   1.933539 S    
C28   C34   1.396316 A    
C40   C52   1.412923 A    
Zn6   O16   1.933540 S    
C83   C99   1.402035 A    
Zn5   O51   1.946944 S    
C89   C105  1.402030 A    
C71   C151  1.404481 A    
C32   C42   1.400790 A    
C85   H37   1.083215 S    
Zn3   O12   1.933541 S    
C64   C144  1.404479 A    
C44   C56   1.412921 A    
C32   C36   1.396319 A    
C57   C137  1.404481 A    
O33   C10   1.282831 A    
C65   C145  1.404480 A    
O35   C12   1.282832 A    
C39   C45   1.418383 A    
C56   Br8   1.936894 S    
Zn2   O48   1.946944 S    
C63   C79   1.391350 A    
C67   C83   1.391375 A    
C68   H20   1.082784 S    
C88   H40   1.083211 S    
Zn4   O2    1.948055 S    
C62   H14   1.082753 S    
Zn3   O45   1.946942 S    
C93   C109  1.402054 A    
C38   C50   1.412916 A    
Zn10  O25   1.933221 S    
C110  C126  1.391279 A    
C20   C172  1.456370 S    
C95   C111  1.402067 A    
C66   H18   1.082789 S    
O11   C7    1.282900 A    
C60   H12   1.082787 S    
C49   Br1   1.936880 S    
C114  C130  1.391294 A    
C51   Br3   1.936876 S    
C117  C133  1.391295 A    
C109  H45   1.083246 S    
C87   H39   1.083217 S    
C113  H49   1.083245 S    
Zn8   O19   1.933539 S    
Zn12  O24   1.933221 S    
C74   C90   1.402023 A    
O16   C12   1.282902 A    
C86   H38   1.083210 S    
O40   C18   1.278689 A    
C120  H56   1.083221 S    
Zn16  O4    1.948883 S    
C61   H13   1.082786 S    
C15   C101  1.463667 S    
C64   H16   1.082752 S    
C65   H17   1.082786 S    
C13   C103  1.463666 S    
C164  C170  1.401072 A    
C112  C128  1.391275 A    
C90   C106  1.402022 A    
O34   C9    1.282839 A    
C42   C48   1.418384 A    
C105  H41   1.083226 S    
C116  C132  1.391293 A    
O49   C23   1.280646 A    
C153  C173  1.402965 A    
C2    C92   1.463667 S    
C53   Br5   1.936885 S    
O42   C20   1.278697 A    
C32   H8    1.079917 S    
C143  C152  1.473723 S    
C108  C124  1.391295 A    
C162  H82   1.083283 S    
Zn6   O17   1.933542 S    
Zn10  O22   1.933222 S    
C84   C100  1.402043 A    
C140  C147  1.473716 S    
C115  H51   1.083215 S    
Zn13  O29   1.933221 S    
C41   C53   1.412928 A    
C69   H21   1.082785 S    
C160  C168  1.388234 A    
C55   Br7   1.936879 S    
O52   C24   1.280660 A    
C156  C174  1.402959 A    
Zn3   O1    1.948056 S    
O43   C19   1.278686 A    
C78   C94   1.402036 A    
C71   C87   1.391355 A    
C26   C34   1.396325 A    
C82   C98   1.402043 A    
O37   C17   1.278677 A    
C79   H31   1.083208 S    
C123  H59   1.082732 S    
C124  H60   1.082743 S    
C31   C41   1.400794 A    
C12   C98   1.463678 S    
C136  C152  1.404416 A    
C99   C115  1.402027 A    
C138  C145  1.473721 S    
Zn4   O46   1.946942 S    
C134  H70   1.082732 S    
C74   H26   1.083212 S    
Zn16  O35   1.933223 S    
C121  H57   1.082733 S    
O44   C20   1.278695 A    
C133  C149  1.404421 A    
C5    C95   1.463690 S    
C28   H4    1.079914 S    
C91   C107  1.402029 A    
C37   C45   1.418387 A    
Zn10  O2    1.948887 S    
C9    C99   1.463659 S    
C118  H54   1.083230 S    
Zn13  O41   1.947274 S    
C47   C48   1.405507 A    
C52   Br4   1.936893 S    
C70   C86   1.391363 A    
Zn16  O44   1.947274 S    
C125  H61   1.082740 S    
C88   C104  1.402021 A    
C166  H86   1.083281 S    
O36   C11   1.282838 A    
C19   C171  1.456315 S    
C157  C165  1.388229 A    
C102  C118  1.402028 A    
O47   C21   1.280652 A    
C109  C125  1.391286 A    
C18   C170  1.456367 S    
C157  H77   1.082942 S    
C14   C104  1.463626 S    
C113  C129  1.391289 A    
C30   C44   1.400783 A    
C72   H24   1.082752 S    
C111  H47   1.083253 S    
O38   C18   1.278701 A    
O50   C24   1.280665 A    
C11   C97   1.463685 S    
C4    C90   1.463631 S    
O41   C19   1.278671 A    
O5    C1    1.282887 A    
Zn4   O6    1.933541 S    
C162  C170  1.401068 A    
C63   H15   1.082786 S    
C68   C84   1.391357 A    
C58   C74   1.391364 A    
Zn11  O28   1.933220 S    
C127  C143  1.404423 A    
C165  C171  1.401058 A    
C105  C121  1.391290 A    
C116  H52   1.083253 S    
C168  H88   1.083279 S    
C66   C146  1.404477 A    
Zn1   O10   1.933540 S    
C153  H73   1.082941 S    
C159  H79   1.082941 S    
C44   C48   1.418382 A    
Zn4   O11   1.933539 S    
O8    C4    1.282882 A    
C155  H75   1.082939 S    
C156  H76   1.082943 S    
C120  C136  1.391283 A    
C100  C116  1.402060 A    
Zn1   O1    1.948052 S    
C62   C142  1.404479 A    
O32   C15   1.282830 A    
C94   C110  1.402028 A    
C71   H23   1.082785 S    
C166  C172  1.401068 A    
C6    C96   1.463657 S    
C98   C114  1.402061 A    
C92   C108  1.402060 A    
O9    C5    1.282916 A    
C123  C139  1.404414 A    
C10   C100  1.463680 S    
C124  C140  1.404419 A    
Zn13  O34   1.933224 S    
C136  H72   1.082732 S    
O13   C9    1.282885 A    
O7    C3    1.282888 A    
C75   C91   1.402025 A    
C121  C137  1.404411 A    
O18   C14   1.282875 A    
O6    C2    1.282901 A    
C27   C33   1.396333 A    
C167  C171  1.401060 A    
O21   C6    1.282837 A    
C67   C147  1.404477 A    
C68   C148  1.404476 A    
Zn7   O20   1.933541 S    
O48   C22   1.280658 A    
C161  C169  1.401059 A    
C158  C166  1.388235 A    
C7    C93   1.463688 S    
Zn14  O30   1.933222 S    
Zn15  O3    1.948887 S    
C70   H22   1.082751 S    
C125  C141  1.404422 A    
C96   C112  1.402028 A    
C59   C139  1.404477 A    
C60   C140  1.404480 A    
C29   C43   1.400804 A    
C16   C102  1.463626 S    
C62   C78   1.391375 A    
C168  C172  1.401072 A    
C117  H53   1.083254 S    
C72   C152  1.404479 A    
C131  C147  1.404404 A    
C132  C148  1.404425 A    
C40   C46   1.418386 A    
C80   C96   1.402036 A    
C128  H64   1.082732 S    
C129  H65   1.082741 S    
C163  H83   1.083289 S    
C164  H84   1.083281 S    
C135  H71   1.082744 S    
C29   H5    1.079915 S    
C122  H58   1.082732 S    
C141  C150  1.473723 S    
C153  C161  1.388231 A    
C134  C150  1.404414 A    
C130  C146  1.404423 A    
C61   C141  1.404479 A    
C72   C88   1.391363 A    
C111  C127  1.391298 A    
C37   C49   1.412931 A    
C101  C117  1.402057 A    
C39   C51   1.412934 A    
C50   Br2   1.936898 S    
C159  C175  1.402965 A    
Zn14  O42   1.947275 S    
Zn13  O3    1.948883 S    
C43   C55   1.412933 A    
C58   C138  1.404485 A    
Zn14  O4    1.948887 S    
C126  H62   1.082733 S    
C49   C52   1.404636 A    
O19   C15   1.282899 A    
O39   C17   1.278682 A    
C175  C176  1.465534 S    
C57   C73   1.391367 A    
Zn7   O49   1.946942 S    
C26   C40   1.400790 A    
C78   H30   1.083211 S    
O51   C23   1.280654 A    
O31   C16   1.282812 A    
C163  C169  1.401058 A    
C69   C149  1.404480 A    
C82   H34   1.083216 S    
Zn9   O37   1.947275 S    
C25   C33   1.396332 A    
O12   C8    1.282887 A    
Zn11  O39   1.947274 S    
C45   C46   1.405513 A    
C154  C174  1.402960 A    
Zn11  O1    1.948887 S    
C76   C92   1.402033 A    
Zn15  O43   1.947275 S    
C133  H69   1.082743 S    
C67   H19   1.082753 S    
Zn5   O3    1.948052 S    
C31   H7    1.079913 S    
Zn6   O4    1.948054 S    
O24   C7    1.282843 A    
Zn8   O14   1.933541 S    
C42   C54   1.412919 A    
C119  H55   1.083251 S    
C59   H11   1.082751 S    
Zn2   O9    1.933542 S    
C8    C94   1.463657 S    
C155  C173  1.402969 A    
C79   C95   1.402033 A    
C25   H1    1.079910 S    
C154  H74   1.082941 S    
C77   C93   1.402046 A    
C104  C120  1.402026 A    
C27   H3    1.079912 S    
C81   C97   1.402036 A    
O25   C2    1.282828 A    
Zn8   O50   1.946942 S    
O27   C4    1.282824 A    
C21   C34   1.467674 S    
Zn2   O2    1.948054 S    
C173  C174  1.465541 S    
O29   C14   1.282828 A    
Zn15  O31   1.933223 S    
C23   C36   1.467678 S    
Zn16  O32   1.933222 S    
C54   Br6   1.936900 S    
C66   C82   1.391355 A    
C131  H67   1.082734 S    
C132  H68   1.082743 S    
C86   C102  1.402016 A    
Zn9   O26   1.933223 S    
Zn8   O4    1.948055 S    
C97   C113  1.402055 A    
C38   C46   1.418384 A    
C107  H43   1.083224 S    
O20   C16   1.282894 A    
Zn12  O27   1.933222 S    
C73   C89   1.402025 A    
C128  C144  1.404405 A    
C83   H35   1.083211 S    
C129  C145  1.404422 A    
C84   H36   1.083214 S    
Zn14  O33   1.933221 S    
C58   H10   1.082751 S    
C87   C103  1.402034 A    
O28   C3    1.282823 A    
C160  C176  1.402956 A    
C85   C101  1.402036 A    
C122  C138  1.404406 A    
C50   C51   1.404633 A    
C53   C56   1.404633 A    
C27   C37   1.400804 A    
C24   C35   1.467726 S    
C167  H87   1.083289 S    
C161  H81   1.083292 S    
C155  C163  1.388232 A    
C144  C151  1.473715 S    
C156  C164  1.388232 A    
C61   C77   1.391362 A    
C119  C135  1.391295 A    
C160  H80   1.082942 S    
Zn6   O52   1.946944 S    
C64   C80   1.391375 A    
C103  C119  1.402058 A    
C65   C81   1.391351 A    
C126  C142  1.404401 A    
C30   H6    1.079913 S    
Zn1   O47   1.946944 S    
C17   C169  1.456308 S    
O45   C21   1.280644 A    
C3    C89   1.463638 S    
C26   H2    1.079915 S    
C75   H27   1.083208 S    
C57   H9    1.082751 S    
C110  H46   1.083219 S    
C60   C76   1.391355 A    
C76   H28   1.083217 S    
Zn15  O36   1.933220 S    
C130  H66   1.082741 S    
O26   C1    1.282825 A    
C127  H63   1.082743 S    
C22   C33   1.467726 S    
C118  C134  1.391284 A    
C157  C175  1.402967 A    
O30   C13   1.282828 A    
C142  C149  1.473715 S    
C154  C162  1.388234 A    
C135  C151  1.404421 A    
Zn5   O18   1.933540 S    
Zn9   O21   1.933220 S    
C106  C122  1.391273 A    
C29   C35   1.396339 A    
O23   C8    1.282837 A    
Zn11  O23   1.933223 S    
Zn12  O40   1.947275 S    
C158  H78   1.082939 S    
Zn9   O1    1.948885 S    
Zn1   O7    1.933542 S    
Zn2   O8    1.933540 S    
Zn3   O5    1.933539 S    
C69   C85   1.391355 A    
C28   C38   1.400787 A    
C59   C75   1.391369 A    
C112  H48   1.083218 S    
C165  H85   1.083293 S    
O15   C11   1.282901 A    
C159  C167  1.388231 A    
C137  C146  1.473720 S    
Zn7   O3    1.948056 S    
C63   C143  1.404475 A    
C73   H25   1.083211 S    
C139  C148  1.473721 S    
C77   H29   1.083216 S    
C25   C39   1.400804 A    
C70   C150  1.404483 A    
C114  H50   1.083252 S    
C80   H32   1.083210 S    
C30   C36   1.396320 A    
O46   C22   1.280667 A    
C81   H33   1.083209 S    
C158  C176  1.402960 A    
O10   C6    1.282885 A    
Zn10  O38   1.947274 S    
C41   C47   1.418385 A    
O14   C10   1.282904 A    
C115  C131  1.391279 A    
Zn12  O2    1.948885 S    
C1    C91   1.463640 S    
C108  H44   1.083254 S    
C43   C47   1.418382 A    
C54   C55   1.404636 A    
O17   C13   1.282901 A    
Zn5   O15   1.933542 S    
O22   C5    1.282825 A    
C106  H42   1.083217 S    
