data_mof_unit_57526.cif
_audit_creation_date              2012-12-10T16:49:22-0500
_audit_creation_method            fapswitch 2.2
_symmetry_space_group_name_H-M    P1
_symmetry_Int_Tables_number       1
_space_group_crystal_system       triclinic
_cell_length_a                    7.732092
_cell_length_b                    8.581746
_cell_length_c                    12.842253
_cell_angle_alpha                 90.624251
_cell_angle_beta                  86.379085
_cell_angle_gamma                 93.350825
_cell_volume                      848.968516815

loop_
_atom_site_label
_atom_site_type_symbol
_atom_type_description
_atom_site_fract_x
_atom_site_fract_y
_atom_site_fract_z
_atom_type_partial_charge
C1    C     C_R   0.454792 0.205258 0.497256 0.970287
C2    C     C_R   0.700871 0.418189 0.135052 0.371857
C3    C     C_R   0.558112 0.432918 0.867474 -0.276767
C4    C     C_R   0.441895 0.567089 0.132526 -0.276773
C5    C     C_R   0.563520 0.455327 0.973742 0.061669
C6    C     C_R   0.436487 0.544679 0.026257 0.061666
C7    C     C_2   0.430862 0.041942 0.495722 -0.364682
C8    C     C_2   0.569137 0.958057 0.504278 -0.364681
C9    C     C_R   0.545208 0.794742 0.502744 0.970286
C10   C     C_R   0.462295 0.501428 0.700232 0.920096
C11   C     C_R   0.537705 0.498571 0.299768 0.920103
C12   C     C_R   0.566612 0.498632 0.187630 -0.200990
C13   C     C_R   0.433389 0.501367 0.812370 -0.200999
C14   C     C_R   0.303482 0.606628 0.972248 0.072326
C15   C     C_R   0.696520 0.393372 0.027753 0.072323
C16   C     C_R   0.299125 0.581804 0.864949 0.371863
H1    H     H_    0.344046 0.633592 0.174069 0.203399
H2    H     H_    0.176794 0.805614 0.993619 0.227620
H3    H     H_    0.948815 0.360616 0.985109 0.209675
H4    H     H_    0.823162 0.194365 0.006366 0.227608
H5    H     H_    0.655963 0.366417 0.825930 0.203400
H6    H     H_    0.998899 0.614408 0.421913 0.188194
H7    H     H_    0.001101 0.385592 0.578087 0.188194
H8    H     H_    0.300104 0.991229 0.487578 0.183848
H9    H     H_    0.699896 0.008771 0.512421 0.183848
H10   H     H_    0.886457 0.441981 0.226796 0.347009
H11   H     H_    0.113539 0.557993 0.773205 0.347010
H12   H     H_    0.051186 0.639343 0.014911 0.209664
N1    N     N_2   0.054030 0.541640 0.471970 -0.168618
N2    N     N_2   0.945970 0.458360 0.528030 -0.168618
N3    N     N_3   0.172739 0.694417 0.026478 -0.463930
N4    N     N_3   0.827255 0.305573 0.973524 -0.463934
O1    O     O_R   0.609680 0.261530 0.506880 -0.608856
O2    O     O_3   0.168560 0.644240 0.813634 -0.761879
O3    O     O_R   0.390320 0.738470 0.493120 -0.608856
O4    O     O_R   0.323330 0.288220 0.488910 -0.630248
O5    O     O_R   0.676670 0.711780 0.511090 -0.630247
O6    O     O_R   0.619510 0.488830 0.661140 -0.619285
O7    O     O_R   0.380490 0.511170 0.338860 -0.619287
O8    O     O_R   0.333160 0.515520 0.643180 -0.621462
O9    O     O_R   0.666840 0.484480 0.356820 -0.621464
O10   O     O_3   0.831426 0.355739 0.186369 -0.761879
Zn1   Zn    Zn3+2 0.691200 0.482180 0.511990 0.960757
Zn2   Zn    Zn3+2 0.308800 0.517820 0.488010 0.960756

loop_
_geom_bond_atom_site_label_1
_geom_bond_atom_site_label_2
_ccdc_geom_bond_type
O5    Zn1   S    
C11   C12   S    
C6    C14   A    
N1    N2    D    
O3    Zn2   S    
H6    N1    S    
C4    C12   A    
C3    C13   A    
C14   N3    S    
C10   O6    A    
C5    C15   A    
C2    C12   A    
C9    O5    A    
C1    O1    A    
C7    C8    D    
N1    Zn2   S    
C11   O7    A    
C2    C15   A    
O9    Zn1   S    
O7    Zn2   S    
C2    O10   S    
H3    N4    S    
C4    C6    A    
C11   O9    A    
H11   O2    S    
C5    C6    A    
C14   C16   A    
N2    Zn1   S    
C3    H5    S    
O4    Zn2   S    
C4    H1    S    
C8    H9    S    
C7    H8    S    
O1    Zn1   S    
H7    N2    S    
O8    Zn2   S    
H10   O10   S    
C10   O8    A    
H4    N4    S    
C13   C16   A    
C9    O3    A    
H2    N3    S    
C16   O2    S    
C1    C7    S    
H12   N3    S    
O6    Zn1   S    
C1    O4    A    
C8    C9    S    
C3    C5    A    
C10   C13   S    
C15   N4    S    
