data_mof_unit_40030.cif
_audit_creation_date              2012-12-11T17:08:33-0500
_audit_creation_method            fapswitch 2.2
_symmetry_space_group_name_H-M    P1
_symmetry_Int_Tables_number       1
_space_group_crystal_system       triclinic
_cell_length_a                    6.979897
_cell_length_b                    14.531703
_cell_length_c                    16.080653
_cell_angle_alpha                 90.059993
_cell_angle_beta                  90.018286
_cell_angle_gamma                 89.959192
_cell_volume                      1631.05586916

loop_
_atom_site_label
_atom_site_type_symbol
_atom_type_description
_atom_site_fract_x
_atom_site_fract_y
_atom_site_fract_z
_atom_type_partial_charge
O1    O     O_R   0.505700 0.583890 0.413310 -0.539844
O2    O     O_R   0.175960 0.594920 0.586080 -0.547420
O3    O     O_R   0.005660 0.416110 0.586690 -0.545151
C1    C     C_R   0.344699 0.617287 0.614457 0.730191
O4    O     O_R   0.175980 0.594920 0.413930 -0.532416
O5    O     O_R   0.005680 0.416110 0.413310 -0.537470
C2    C     C_R   0.344928 0.617202 0.385396 0.707261
O6    O     O_R   0.505680 0.583890 0.586690 -0.531222
O7    O     O_3   0.339200 0.441330 0.500000 -0.380164
V1    V     V_3+5 0.064350 0.510880 0.500000 1.442462
O8    O     O_R   0.675960 0.405080 0.413920 -0.544978
C3    C     C_R   0.845054 0.382868 0.385398 0.724515
O9    O     O_R   0.675940 0.405080 0.586070 -0.540610
C4    C     C_R   0.844795 0.383274 0.614930 0.686782
V2    V     V_3+5 0.564340 0.489120 0.500000 1.436268
O10   O     O_3   0.839360 0.558670 0.500000 -0.363532
C5    C     C_R   0.006090 0.317936 0.742241 0.071718
C6    C     C_R   0.852964 0.317820 0.685677 -0.110493
C7    C     C_R   0.702231 0.255599 0.700886 -0.159407
H1    H     H_    0.580449 0.253226 0.659451 0.123312
C8    C     C_R   0.712900 0.191446 0.766431 -0.177977
H2    H     H_    0.598294 0.142065 0.773688 0.125974
C9    C     C_R   0.875555 0.186878 0.818322 -0.102972
C10   C     C_R   0.017561 0.253490 0.806367 0.092661
C11   C     C_3   0.228218 0.241728 0.795583 -0.440363
C12   C     C_3   0.216240 0.312653 0.726040 -0.219430
H3    H     H_    0.264852 0.171670 0.772794 0.160278
H4    H     H_    0.309341 0.264246 0.851600 0.178950
H5    H     H_    0.250736 0.285403 0.663210 0.122890
C13   C     C_R   0.726994 0.183195 0.240973 0.105293
C14   C     C_R   0.881878 0.182330 0.185533 -0.112094
C15   C     C_R   0.033822 0.243479 0.201828 -0.181145
H6    H     H_    0.156673 0.245247 0.161036 0.137246
C16   C     C_R   0.022715 0.307537 0.267491 -0.147153
H7    H     H_    0.137997 0.356421 0.275446 0.141008
C17   C     C_R   0.858932 0.312680 0.318636 -0.104390
C18   C     C_R   0.715519 0.246891 0.305689 0.091465
C19   C     C_3   0.505880 0.260216 0.293142 -0.410680
C20   C     C_3   0.518221 0.190435 0.222939 -0.395325
H8    H     H_    0.471445 0.330916 0.271438 0.173496
H9    H     H_    0.420651 0.235602 0.347085 0.172570
H10   H     H_    0.490132 0.220449 0.160548 0.173727
H11   H     H_    0.440817 0.125307 0.236439 0.167733
C21   C     C_R   0.509179 0.747363 0.689540 0.111093
C22   C     C_R   0.352616 0.687861 0.681023 -0.093649
C23   C     C_R   0.200183 0.698761 0.737569 -0.150430
H12   H     H_    0.076850 0.654131 0.733712 0.134579
C24   C     C_R   0.211885 0.762522 0.803523 -0.175705
H13   H     H_    0.096008 0.765998 0.848005 0.132804
C25   C     C_R   0.377028 0.816766 0.815262 -0.108912
C26   C     C_R   0.521177 0.810152 0.754991 0.097867
C27   C     C_3   0.730158 0.793262 0.765863 -0.421248
C28   C     C_3   0.717127 0.725225 0.694283 -0.386821
H14   H     H_    0.762732 0.760118 0.826508 0.176979
H15   H     H_    0.817267 0.855099 0.750982 0.173658
H16   H     H_    0.742874 0.652716 0.713296 0.176786
H17   H     H_    0.796057 0.747887 0.637880 0.189405
C29   C     C_R   0.512297 0.686150 0.261337 0.037036
C30   C     C_R   0.354450 0.683537 0.315186 -0.104729
C31   C     C_R   0.208010 0.747808 0.301316 -0.151364
H18   H     H_    0.093102 0.752833 0.345098 0.141059
C32   C     C_R   0.216678 0.810967 0.235189 -0.182232
H19   H     H_    0.102582 0.860826 0.228391 0.128235
C33   C     C_R   0.377393 0.814268 0.182398 -0.093387
C34   C     C_R   0.523391 0.749962 0.196163 0.085648
C35   C     C_3   0.730443 0.768673 0.212037 -0.468341
C36   C     C_3   0.717760 0.700327 0.283523 -0.104221
H20   H     H_    0.755679 0.841203 0.231477 0.163106
H21   H     H_    0.821221 0.745748 0.159034 0.176826
O11   O     O_R   0.229000 0.916070 0.913330 -0.540049
O12   O     O_R   0.558770 0.905070 0.086080 -0.538376
O13   O     O_R   0.729000 0.083900 0.086690 -0.536837
C37   C     C_R   0.389957 0.883599 0.115116 0.697716
O14   O     O_R   0.558720 0.905070 0.913930 -0.539260
O15   O     O_R   0.728960 0.083900 0.913310 -0.539751
C38   C     C_R   0.389735 0.882874 0.885387 0.697051
O16   O     O_R   0.229050 0.916070 0.086710 -0.540493
O17   O     O_3   0.395460 0.058650 0.000020 -0.371175
V3    V     V_3+5 0.670340 0.989120 0.000000 1.401103
O18   O     O_R   0.058670 0.094960 0.913900 -0.539097
C39   C     C_R   0.889551 0.116701 0.885030 0.698369
O19   O     O_R   0.058720 0.094960 0.086050 -0.544091
C40   C     C_R   0.889928 0.116908 0.114775 0.695985
V4    V     V_3+5 0.170330 0.010930 0.999970 1.394640
O20   O     O_3   0.895340 0.941350 0.999980 -0.370062
C41   C     C_1   0.741762 0.742340 0.366578 0.311584
N1    N     N_1   0.759561 0.775247 0.431718 -0.382520
C42   C     C_1   0.832446 0.616579 0.270785 0.326137
N2    N     N_1   0.922757 0.550861 0.259958 -0.380664
C43   C     C_1   0.314004 0.399386 0.746540 0.360024
N3    N     N_1   0.391550 0.467357 0.762995 -0.385841

loop_
_geom_bond_atom_site_label_1
_geom_bond_atom_site_label_2
_ccdc_geom_bond_type
C35   H20   S    
C4    C6    S    
C7    H1    S    
O18   V4    S    
O12   V3    S    
C22   C23   A    
C21   C22   A    
C11   H4    S    
C36   C42   S    
C32   H19   S    
O14   C38   A    
C5    C12   S    
C17   C18   A    
C7    C8    A    
C6    C7    A    
O13   V3    S    
O5    C3    A    
C19   C20   S    
C35   H21   S    
V2    O10   S    
C14   C40   S    
C31   C32   A    
C16   H7    S    
C32   C33   A    
O8    V2    S    
C21   C28   S    
C33   C37   S    
O1    V2    S    
C3    C17   S    
O11   V4    S    
O7    V1    S    
C27   H15   S    
C1    O6    A    
C24   C25   A    
C35   C36   S    
C30   C31   A    
O1    C2    A    
O9    C4    A    
C2    C30   S    
C27   H14   S    
C25   C26   A    
C20   H10   S    
C1    C22   S    
C23   C24   A    
C5    C10   A    
C26   C27   S    
C10   C11   S    
C19   H9    S    
O4    C2    A    
C28   H17   S    
O17   V3    S    
O15   C39   A    
C20   H11   S    
O16   V4    S    
C29   C30   A    
C13   C18   A    
C31   H18   S    
C15   C16   A    
O2    C1    A    
C18   C19   S    
C25   C38   S    
C29   C34   A    
C14   C15   A    
C9    C10   A    
C5    C6    A    
V4    O20   S    
O3    C4    A    
C21   C26   A    
C24   H13   S    
C34   C35   S    
O6    V2    S    
O19   V4    S    
O14   V3    S    
C8    C9    A    
O11   C38   A    
C12   C43   S    
O2    V1    S    
V3    O20   S    
C27   C28   S    
O12   C37   A    
C28   H16   S    
C23   H12   S    
C36   C41   S    
C9    C39   S    
C41   N1    T    
O18   C39   A    
O5    V1    S    
O8    C3    A    
C11   H3    S    
C15   H6    S    
O9    V2    S    
C11   C12   S    
O4    V1    S    
O3    V1    S    
V1    O10   S    
C33   C34   A    
C19   H8    S    
C43   N3    T    
C13   C14   A    
C13   C20   S    
C16   C17   A    
O7    V2    S    
O13   C40   A    
O17   V4    S    
C29   C36   S    
C42   N2    T    
C12   H5    S    
O19   C40   A    
C37   O16   A    
C8    H2    S    
O15   V3    S    
