data_mof_unit_47924.cif
_audit_creation_date              2012-12-10T17:05:22-0500
_audit_creation_method            fapswitch 2.2
_symmetry_space_group_name_H-M    P1
_symmetry_Int_Tables_number       1
_space_group_crystal_system       triclinic
_cell_length_a                    10.064742
_cell_length_b                    10.742658
_cell_length_c                    15.32856
_cell_angle_alpha                 90.111813
_cell_angle_beta                  66.779966
_cell_angle_gamma                 90.196671
_cell_volume                      1523.09661135

loop_
_atom_site_label
_atom_site_type_symbol
_atom_type_description
_atom_site_fract_x
_atom_site_fract_y
_atom_site_fract_z
_atom_type_partial_charge
C1    C     C_R   0.501268 0.737210 0.498461 0.915085
C2    C     C_R   0.707215 0.405770 0.031908 0.159992
C3    C     C_R   0.572141 0.457292 0.089254 0.102592
C4    C     C_R   0.408406 0.503029 0.676541 0.799367
C5    C     C_R   0.809208 0.380917 0.070819 -0.280923
C6    C     C_R   0.775418 0.403082 0.167512 -0.016448
C7    C     C_R   0.557503 0.508167 0.175892 -0.260230
C8    C     C_2   0.610086 0.067254 0.503592 -0.113036
C9    C     C_2   0.491828 0.131375 0.512932 -0.336520
C10   C     C_2   0.606095 0.933293 0.509227 -0.143325
C11   C     C_2   0.506274 0.868881 0.491054 -0.315541
C12   C     C_R   0.386623 0.464728 0.922306 0.103499
C13   C     C_2   0.081990 0.400536 0.488099 -0.079140
C14   C     C_2   0.942810 0.406120 0.473468 -0.103562
C15   C     C_R   0.498357 0.262810 0.502560 0.954268
C16   C     C_R   0.591499 0.494208 0.323173 0.919381
C17   C     C_R   0.346400 0.508273 0.780274 -0.221912
C18   C     C_R   0.648549 0.472222 0.220205 -0.101646
C19   C     C_R   0.189346 0.599963 0.930095 -0.164915
C20   C     C_R   0.236947 0.594628 0.830988 -0.017479
C21   C     C_R   0.405349 0.430906 0.829393 -0.056327
C22   C     C_2   0.085431 0.606675 0.137913 0.358840
C23   C     C_R   0.264024 0.536268 0.977061 -0.037733
C24   C     C_2   0.851093 0.580516 0.572964 0.582966
C25   C     C_2   0.871620 0.345830 0.208421 0.392906
C26   C     C_2   0.173713 0.681893 0.782532 0.447258
C27   C     C_2   0.465574 0.306823 0.788778 0.380597
C28   C     C_3   0.241837 0.434671 0.217995 -0.366586
C29   C     C_3   0.277932 0.297142 0.221986 -0.831762
C30   C     C_R   0.492909 0.440946 0.959014 0.051277
C31   C     C_R   0.458827 0.463308 0.056438 0.014310
C32   C     C_R   0.311808 0.488436 0.117167 0.136212
C33   C     C_R   0.222135 0.543632 0.076523 -0.075471
C34   C     C_R   0.635816 0.406042 0.899490 -0.091887
C35   C     C_R   0.738660 0.381763 0.936619 -0.186167
H1    H     H_    0.910151 0.335711 0.027694 0.146241
H2    H     H_    0.844731 0.349036 0.889893 0.164533
H3    H     H_    0.102182 0.662712 0.968728 0.179686
H4    H     H_    0.670889 0.398554 0.823413 0.183988
H5    H     H_    0.992544 0.606802 0.118859 0.071719
H6    H     H_    0.823148 0.677504 0.570846 0.031641
H7    H     H_    0.985076 0.332375 0.163737 0.056420
H8    H     H_    0.225908 0.698350 0.706861 0.084891
H9    H     H_    0.496952 0.286965 0.713939 0.083583
H10   H     H_    0.253064 0.243261 0.168306 0.269161
H11   H     H_    0.393384 0.284573 0.209262 0.272117
H12   H     H_    0.712178 0.113020 0.491885 0.180825
H13   H     H_    0.211793 0.259223 0.293424 0.243274
H14   H     H_    0.267465 0.488548 0.270789 0.225724
H15   H     H_    0.122331 0.438257 0.244399 0.228562
H16   H     H_    0.386652 0.088588 0.530900 0.150619
H17   H     H_    0.688444 0.887567 0.526858 0.169470
H18   H     H_    0.428094 0.911539 0.468087 0.154175
H19   H     H_    0.130785 0.310148 0.485807 0.153575
H20   H     H_    0.114038 0.583196 0.484481 0.170932
H21   H     H_    0.917395 0.327273 0.438484 0.176107
H22   H     H_    0.471694 0.573495 0.211060 0.166819
N1    N     N_2   0.148330 0.498670 0.499030 -0.164962
N2    N     N_2   0.852680 0.498640 0.499000 -0.157785
O1    O     O_R   0.386950 0.680940 0.500010 -0.622760
O2    O     O_2   0.869044 0.541542 0.642429 -0.595249
O3    O     O_2   0.824623 0.303993 0.288868 -0.569084
O4    O     O_2   0.062429 0.738522 0.827211 -0.555329
O5    O     O_2   0.473718 0.222666 0.839899 -0.553575
O6    O     O_R   0.613110 0.680900 0.499990 -0.632068
O7    O     O_R   0.322330 0.500030 0.632270 -0.599621
O8    O     O_R   0.548480 0.499990 0.632240 -0.613060
O9    O     O_R   0.386890 0.319100 0.500010 -0.622440
O10   O     O_R   0.613050 0.319060 0.499990 -0.595998
O11   O     O_R   0.451520 0.500010 0.367760 -0.624043
O12   O     O_R   0.677670 0.499970 0.367730 -0.555166
O13   O     O_2   0.075977 0.660529 0.210363 -0.565157
Zn1   Zn    Zn3+2 0.349000 0.500030 0.500020 0.957385
Zn2   Zn    Zn3+2 0.651000 0.499970 0.499980 0.986911

loop_
_geom_bond_atom_site_label_1
_geom_bond_atom_site_label_2
_ccdc_geom_bond_type
C25   H7    S    
C2    C35   A    
O12   Zn2   S    
C1    O6    A    
C26   O4    D    
C24   O2    D    
C14   N2    D    
C19   H3    S    
C4    O8    A    
C28   H14   S    
C14   H21   S    
C19   C20   A    
C9    H16   S    
C29   H11   S    
C3    C31   A    
C7    C18   A    
C10   H17   S    
C32   C33   A    
O11   Zn1   S    
C2    C3    A    
C9    C15   S    
C8    H12   S    
C22   H5    S    
O10   Zn2   S    
O8    Zn2   S    
C13   C14   S    
C4    O7    A    
C24   H6    S    
N2    Zn2   S    
C11   H18   S    
C5    C6    A    
C16   O12   A    
C20   C26   S    
C24   N2    S    
C6    C18   A    
C15   O9    A    
C12   C21   A    
C22   O13   D    
C28   C29   S    
C35   H2    S    
C26   H8    S    
C34   C35   A    
C3    C7    A    
C25   O3    D    
C21   C27   S    
C30   C31   A    
C15   O10   A    
H20   N1    S    
C2    C5    A    
C10   C11   D    
C4    C17   S    
C29   H13   S    
C34   H4    S    
C6    C25   S    
C5    H1    S    
O1    Zn1   S    
C28   C32   S    
C17   C20   A    
C16   O11   A    
C8    C10   S    
C13   H19   S    
C27   O5    D    
C1    O1    A    
C22   C33   S    
C30   C34   A    
C19   C23   A    
C12   C23   A    
C13   N1    D    
C12   C30   A    
O9    Zn1   S    
O7    Zn1   S    
C28   H15   S    
C27   H9    S    
C7    H22   S    
C16   C18   S    
C17   C21   A    
O6    Zn2   S    
C31   C32   A    
N1    Zn1   S    
C29   H10   S    
C8    C9    D    
C23   C33   A    
C1    C11   S    
