data_mof_unit_47115.cif
_audit_creation_date              2012-12-10T19:51:34-0500
_audit_creation_method            fapswitch 2.2
_symmetry_space_group_name_H-M    P1
_symmetry_Int_Tables_number       1
_space_group_crystal_system       triclinic
_cell_length_a                    14.206231
_cell_length_b                    13.58852
_cell_length_c                    14.942505
_cell_angle_alpha                 89.792353
_cell_angle_beta                  89.668687
_cell_angle_gamma                 82.655263
_cell_volume                      2860.79820372

loop_
_atom_site_label
_atom_site_type_symbol
_atom_type_description
_atom_site_fract_x
_atom_site_fract_y
_atom_site_fract_z
_atom_type_partial_charge
C1    C     C_R   0.500149 0.501068 0.328001 0.925430
C2    C     C_R   0.790519 0.534408 0.572743 -0.063434
C3    C     C_R   0.196904 0.564575 0.554039 0.619996
C4    C     C_R   0.801044 0.461996 0.428819 0.630928
C5    C     C_R   0.097340 0.563830 0.556087 -0.386541
C6    C     C_R   0.900153 0.463842 0.427484 -0.384821
C7    C     C_R   0.053810 0.498488 0.501475 0.124424
C8    C     C_R   0.946965 0.498262 0.501750 0.111190
C9    C     C_R   0.517222 0.314173 0.498391 0.884935
C10   C     C_R   0.482721 0.685918 0.500361 0.887720
C11   C     C_1   0.468803 0.789853 0.496513 -0.191436
C12   C     C_R   0.499927 0.498483 0.671947 0.942760
C13   C     C_1   0.530831 0.210463 0.492397 -0.181268
C14   C     C_2   0.457669 0.982865 0.485630 0.394371
C15   C     C_2   0.541900 0.017417 0.482485 0.392783
C16   C     C_1   0.539560 0.122673 0.487149 -0.100791
C17   C     C_1   0.459793 0.877748 0.491746 -0.095250
C18   C     C_R   0.548345 0.571928 0.091885 0.043085
C19   C     C_R   0.559377 0.416403 0.905994 0.053186
C20   C     C_R   0.546307 0.573767 0.185679 0.433402
C21   C     C_R   0.557283 0.416911 0.812170 0.400302
C22   C     C_R   0.499947 0.503730 0.232272 -0.214368
C23   C     C_R   0.448908 0.435698 0.095294 0.466586
C24   C     C_R   0.499426 0.493089 0.767520 -0.227730
C25   C     C_R   0.450656 0.436673 0.187991 -0.421196
C26   C     C_R   0.438291 0.563486 0.813609 -0.388025
C27   C     C_3   0.707108 0.998364 0.462672 0.101398
C28   C     C_3   0.792848 0.919919 0.451923 -0.819294
C29   C     C_3   0.294905 0.006821 0.458205 0.105285
C30   C     C_3   0.210208 0.087246 0.452382 -0.826385
C31   C     C_3   0.593853 0.651198 0.040361 -0.342637
C32   C     C_3   0.688902 0.611915 0.997840 -0.873334
C33   C     C_3   0.617637 0.330888 0.955529 -0.341515
C34   C     C_R   0.437013 0.562612 0.906268 0.450540
C35   C     C_3   0.707192 0.359931 0.998233 -0.884761
C36   C     C_3   0.528114 0.724541 0.254124 0.053237
C37   C     C_3   0.582477 0.805917 0.288726 -0.753881
C38   C     C_3   0.561870 0.268603 0.740871 0.093244
C39   C     C_3   0.628992 0.181698 0.704304 -0.815728
C40   C     C_3   0.305556 0.376671 0.073724 0.103994
C41   C     C_3   0.251026 0.329162 0.001853 -0.841235
C42   C     C_3   0.282749 0.628409 0.935229 0.118985
C43   C     C_3   0.221571 0.681831 0.008416 -0.856599
C44   C     C_3   0.213912 0.723682 0.595272 0.078886
C45   C     C_R   0.502255 0.499066 0.048095 0.012291
C46   C     C_3   0.266289 0.784472 0.659058 -0.815398
C47   C     C_3   0.775818 0.322339 0.353970 0.085248
C48   C     C_3   0.711412 0.282434 0.285602 -0.791229
C49   C     C_R   0.501673 0.493371 0.951637 0.013563
C50   C     C_R   0.114236 0.433196 0.446794 -0.286001
C51   C     C_R   0.889656 0.532946 0.575512 -0.280909
C52   C     C_R   0.212823 0.435571 0.446717 -0.074480
H1    H     H_    0.415631 0.383573 0.225859 0.171888
H2    H     H_    0.698933 0.042726 0.399697 0.137639
H3    H     H_    0.781948 0.870610 0.394787 0.259234
H4    H     H_    0.857340 0.956228 0.438952 0.196587
H5    H     H_    0.803485 0.874588 0.513909 0.260506
H6    H     H_    0.275977 0.947779 0.504136 0.145568
H7    H     H_    0.309712 0.975619 0.389934 0.129018
H8    H     H_    0.226695 0.147322 0.406502 0.252264
H9    H     H_    0.147647 0.055219 0.426477 0.196119
H10   H     H_    0.192802 0.119063 0.519731 0.262062
H11   H     H_    0.737200 0.573160 0.048534 0.277075
H12   H     H_    0.393660 0.620677 0.777361 0.194750
H13   H     H_    0.678762 0.561756 0.941497 0.267817
H14   H     H_    0.722700 0.674979 0.970421 0.245283
H15   H     H_    0.545198 0.685416 0.988003 0.226066
H16   H     H_    0.606684 0.713457 0.084464 0.230614
H17   H     H_    0.750688 0.394076 0.947716 0.274738
H18   H     H_    0.689101 0.411179 0.054936 0.270946
H19   H     H_    0.750270 0.292502 0.025202 0.244649
H20   H     H_    0.573832 0.299972 0.007566 0.227756
H21   H     H_    0.640361 0.267989 0.910018 0.231530
H22   H     H_    0.485959 0.754408 0.195049 0.126317
H23   H     H_    0.086506 0.378754 0.405259 0.142045
H24   H     H_    0.478347 0.705624 0.307268 0.129375
H25   H     H_    0.633002 0.825911 0.236784 0.239792
H26   H     H_    0.622661 0.780074 0.349767 0.286857
H27   H     H_    0.532205 0.872874 0.305261 0.200149
H28   H     H_    0.508931 0.293974 0.688530 0.140436
H29   H     H_    0.523814 0.241592 0.799760 0.131306
H30   H     H_    0.681306 0.153589 0.756279 0.248525
H31   H     H_    0.588142 0.120828 0.684716 0.215958
H32   H     H_    0.667573 0.205511 0.644791 0.256707
H33   H     H_    0.273756 0.455681 0.080632 0.140224
H34   H     H_    0.920399 0.558109 0.635920 0.150099
H35   H     H_    0.296996 0.336792 0.137750 0.143379
H36   H     H_    0.278638 0.249244 0.995475 0.260088
H37   H     H_    0.174561 0.336247 0.020034 0.207811
H38   H     H_    0.258935 0.366447 0.936476 0.250089
H39   H     H_    0.266953 0.550181 0.932920 0.144829
H40   H     H_    0.262877 0.665444 0.870405 0.152372
H41   H     H_    0.233167 0.761077 0.010735 0.260172
H42   H     H_    0.145481 0.677417 0.994730 0.210881
H43   H     H_    0.240171 0.646844 0.074344 0.247747
H44   H     H_    0.136619 0.745941 0.605849 0.123248
H45   H     H_    0.258004 0.384735 0.404582 0.150791
H46   H     H_    0.233176 0.741943 0.525309 0.140430
H47   H     H_    0.344140 0.765036 0.650929 0.255757
H48   H     H_    0.247078 0.864788 0.645184 0.206130
H49   H     H_    0.246378 0.769320 0.729251 0.242020
H50   H     H_    0.761857 0.288958 0.420310 0.133339
H51   H     H_    0.850827 0.298613 0.333912 0.121143
H52   H     H_    0.723003 0.314358 0.218500 0.256858
H53   H     H_    0.727206 0.200368 0.282037 0.188387
H54   H     H_    0.635900 0.302250 0.305336 0.250077
H55   H     H_    0.747994 0.562436 0.629591 0.161945
H56   H     H_    0.055007 0.614030 0.600685 0.140489
H57   H     H_    0.939130 0.439278 0.367582 0.149203
H58   H     H_    0.720417 0.046968 0.519848 0.148909
N1    N     N_R   0.252470 0.500000 0.499980 -0.122910
N2    N     N_R   0.747530 0.500000 0.500020 -0.128544
O1    O     O_R   0.579480 0.500010 0.369070 -0.519065
O2    O     O_3   0.373753 0.048795 0.491235 -0.620746
O3    O     O_3   0.593457 0.640744 0.231822 -0.581123
O4    O     O_3   0.614991 0.345805 0.764093 -0.600746
O5    O     O_3   0.402372 0.367983 0.048804 -0.627459
O6    O     O_3   0.379197 0.634143 0.954229 -0.629129
O7    O     O_3   0.240297 0.621886 0.613669 -0.594442
O8    O     O_3   0.756935 0.426895 0.355672 -0.574427
O9    O     O_R   0.420520 0.499990 0.630930 -0.581410
O10   O     O_R   0.420520 0.500010 0.369060 -0.651424
O11   O     O_R   0.579480 0.499990 0.630940 -0.604092
O12   O     O_R   0.590920 0.359650 0.500030 -0.619473
O13   O     O_R   0.409080 0.640350 0.499970 -0.609071
O14   O     O_R   0.431960 0.359650 0.500020 -0.609321
O15   O     O_R   0.568040 0.640350 0.499980 -0.596918
O16   O     O_3   0.625849 0.950973 0.479415 -0.628409
Zn1   Zn    Zn3+2 0.606140 0.500000 0.500010 1.006377
Zn2   Zn    Zn3+2 0.393860 0.500000 0.499990 0.966815

loop_
_geom_bond_atom_site_label_1
_geom_bond_atom_site_label_2
_ccdc_geom_bond_type
C34   O6    S    
C41   H37   S    
C46   H47   S    
C23   C45   A    
C52   H45   S    
O9    Zn2   S    
C29   O2    S    
C43   H42   S    
C28   H4    S    
C27   H2    S    
C7    C8    S    
C28   H5    S    
C36   H22   S    
C31   H15   S    
C37   H27   S    
C2    N2    A    
O1    Zn1   S    
C40   H35   S    
C36   C37   S    
C19   C21   A    
C25   H1    S    
C39   H32   S    
C38   C39   S    
O14   Zn2   S    
C15   C16   S    
C48   H52   S    
C2    H55   S    
C9    O12   A    
C42   H39   S    
C9    C13   S    
C1    O10   A    
C26   H12   S    
C36   H24   S    
C33   H20   S    
C43   H41   S    
C44   H46   S    
O13   Zn2   S    
C26   C34   A    
C48   H54   S    
C12   O9    A    
C47   C48   S    
C27   H58   S    
C3    N1    A    
C22   C25   A    
C30   H8    S    
C43   H43   S    
N2    Zn1   S    
C10   O13   A    
C18   C20   A    
C41   H38   S    
C4    N2    A    
C35   H19   S    
C1    C22   S    
C47   H50   S    
O11   Zn1   S    
C7    C50   A    
C14   C17   S    
C1    O1    A    
C21   O4    S    
C51   H34   S    
C28   H3    S    
C44   C46   S    
C31   H16   S    
C46   H49   S    
C47   H51   S    
C29   H7    S    
C35   H18   S    
C4    C6    A    
C19   C33   S    
C5    C7    A    
C42   O6    S    
C6    C8    A    
C44   O7    S    
C14   O2    S    
C37   H25   S    
C40   H33   S    
O15   Zn1   S    
C29   C30   S    
C44   H44   S    
C2    C51   A    
C38   O4    S    
C27   O16   S    
C19   C49   A    
N1    Zn2   S    
C50   C52   A    
C48   H53   S    
C45   C49   S    
C8    C51   A    
C3    O7    S    
C33   H21   S    
C40   C41   S    
C20   C22   A    
C15   O16   S    
C30   H10   S    
C38   H29   S    
C6    H57   S    
C13   C16   T    
C42   C43   S    
C21   C24   A    
C10   O15   A    
C18   C45   A    
C32   H14   S    
C41   H36   S    
C46   H48   S    
C11   C17   T    
C34   C49   A    
C31   C32   S    
C39   H30   S    
C24   C26   A    
C3    C5    A    
C23   O5    S    
C20   O3    S    
C32   H11   S    
C37   H26   S    
C12   C24   S    
C9    O14   A    
C52   N1    A    
C39   H31   S    
C50   H23   S    
C12   O11   A    
C38   H28   S    
C33   C35   S    
O12   Zn1   S    
C40   O5    S    
C42   H40   S    
C23   C25   A    
C10   C11   S    
C29   H6    S    
C35   H17   S    
C30   H9    S    
C27   C28   S    
C47   O8    S    
C14   C15   D    
C4    O8    S    
C18   C31   S    
C36   O3    S    
O10   Zn2   S    
C32   H13   S    
C5    H56   S    
