data_mof_unit_50956.cif
_audit_creation_date              2013-03-05T15:53:41-0500
_audit_creation_method            fapswitch 2.2
_symmetry_space_group_name_H-M    P1
_symmetry_Int_Tables_number       1
_space_group_crystal_system       triclinic
_cell_length_a                    12.937461
_cell_length_b                    13.293837
_cell_length_c                    27.689946
_cell_angle_alpha                 94.90157
_cell_angle_beta                  90.133928
_cell_angle_gamma                 119.105626
_cell_volume                      4140.49199618

loop_
_atom_site_label
_atom_site_type_symbol
_atom_site_description
_atom_site_fract_x
_atom_site_fract_y
_atom_site_fract_z
_atom_type_partial_charge
O1    O     O_R   0.296680 0.802170 0.437540 -0.529957
O2    O     O_R   0.525380 0.838530 0.443500 -0.502512
C1    C     C_R   0.626110 0.898764 0.426037 0.550782
O3    O     O_R   0.702130 0.995190 0.446810 -0.507404
O4    O     O_R   0.661770 0.181390 0.458760 -0.512453
C2    C     C_R   0.601160 0.222130 0.440608 0.548425
O5    O     O_R   0.499820 0.198480 0.455280 -0.452292
O6    O     O_R   0.311660 0.976250 0.449080 -0.439374
C3    C     C_R   0.269001 0.876247 0.425307 0.563907
O7    O     O_R   0.297580 0.804960 0.544440 -0.481735
O8    O     O_R   0.526220 0.841130 0.542590 -0.467151
C4    C     C_R   0.627358 0.898813 0.564880 0.563603
O9    O     O_R   0.703030 0.997990 0.553710 -0.506497
O10   O     O_R   0.662610 0.183990 0.557860 -0.512829
C5    C     C_R   0.604617 0.230131 0.577702 0.565380
O11   O     O_R   0.500730 0.201280 0.562180 -0.438092
O12   O     O_R   0.312500 0.978850 0.548170 -0.483318
C6    C     C_R   0.271463 0.879474 0.563327 0.560441
Cr1   Cr    Cr6+3 0.416430 0.829200 0.492370 1.085704
Cr2   Cr    Cr6+3 0.674630 0.087020 0.504170 1.060376
Cr3   Cr    Cr6+3 0.408920 0.083740 0.503490 1.178382
O13   O     O_3   0.499990 0.999990 0.500010 -0.288031
C7    C     C_1   0.633685 0.269681 0.394985 0.050365
C8    C     C_R   0.755228 0.426158 0.288736 0.035158
C9    C     C_R   0.764417 0.439153 0.238397 0.215974
C10   C     C_R   0.607266 0.238177 0.219600 0.015433
C11   C     C_R   0.597939 0.226764 0.269473 -0.102086
C12   C     C_R   0.669534 0.318980 0.303865 -0.011527
C13   C     C_R   0.690501 0.345330 0.204019 0.021031
C14   C     C_1   0.695104 0.364871 0.153235 0.057062
C15   C     C_1   0.653426 0.297200 0.354246 0.028816
C16   C     C_1   0.702577 0.392087 0.112428 0.072325
H1    H     H_    0.533941 0.144893 0.281908 0.167691
C17   C     C_R   0.202513 0.759922 0.346977 -0.160745
C18   C     C_R   0.191372 0.756157 0.297242 -0.005806
C19   C     C_R   0.183017 0.753862 0.196817 0.062859
C20   C     C_R   0.205673 0.674497 0.218057 -0.069812
C21   C     C_R   0.208790 0.674970 0.268012 -0.096361
C22   C     C_R   0.167097 0.744200 0.146823 -0.088922
H2    H     H_    0.168261 0.672696 0.125267 0.147738
H3    H     H_    0.220982 0.696876 0.361627 0.158402
H4    H     H_    0.218781 0.610621 0.195980 0.149430
H5    H     H_    0.226775 0.612894 0.283851 0.143039
C23   C     C_R   0.137113 0.818019 0.125041 -0.042760
C24   C     C_R   0.178658 0.931111 0.357542 0.179905
C25   C     C_R   0.151860 0.919561 0.306617 -0.031347
C26   C     C_R   0.168871 0.837450 0.276598 0.025184
C27   C     C_R   0.109294 0.986470 0.284590 -0.003352
C28   C     C_R   0.100881 0.982017 0.233161 0.055502
C29   C     C_R   0.140355 0.915108 0.203977 0.072409
C30   C     C_R   0.164271 0.835972 0.225874 0.071365
C31   C     C_R   0.146777 0.916478 0.152788 0.050784
C32   C     C_R   0.208454 0.852872 0.377054 -0.000152
C33   C     C_R   0.714090 0.970874 0.349464 -0.135092
C34   C     C_R   0.708653 0.962167 0.298830 -0.024941
C35   C     C_R   0.701459 0.934753 0.196567 0.051041
C36   C     C_R   0.766854 0.044719 0.222164 -0.048368
C37   C     C_R   0.771600 0.060297 0.272828 -0.018151
C38   C     C_R   0.705454 0.918730 0.145617 0.047493
H6    H     H_    0.770320 0.053071 0.369808 0.137216
H7    H     H_    0.820396 0.119302 0.203067 0.216575
C39   C     C_R   0.667834 0.805719 0.124196 -0.032412
C40   C     C_R   0.570308 0.767661 0.349774 -0.116026
C41   C     C_R   0.570798 0.754109 0.299312 -0.019812
C42   C     C_R   0.638803 0.851374 0.273586 0.048805
C43   C     C_R   0.503650 0.644538 0.274384 -0.100810
C44   C     C_R   0.509104 0.627786 0.224266 0.215693
C45   C     C_R   0.578084 0.724248 0.198276 0.001283
C46   C     C_R   0.638544 0.837001 0.222768 0.017100
C47   C     C_R   0.594292 0.710340 0.148988 -0.106587
C48   C     C_R   0.641927 0.875816 0.374885 0.013243
H8    H     H_    0.556624 0.624391 0.130296 0.197429
H9    H     H_    0.451134 0.570441 0.294204 0.162387
H10   H     H_    0.513678 0.694693 0.369485 0.137444
C49   C     C_R   0.740839 0.299521 0.650247 -0.157149
C50   C     C_R   0.755971 0.326910 0.700220 0.012315
C51   C     C_R   0.767770 0.353685 0.801898 0.023013
C52   C     C_R   0.848317 0.329478 0.776969 -0.114270
C53   C     C_R   0.841291 0.314424 0.726437 -0.103026
C54   C     C_R   0.773682 0.367959 0.852707 -0.131273
H11   H     H_    0.844225 0.365895 0.873050 0.131636
H12   H     H_    0.793335 0.265498 0.632242 0.150238
H13   H     H_    0.914923 0.319576 0.796554 0.136479
H14   H     H_    0.901345 0.291069 0.707833 0.140614
C55   C     C_R   0.691188 0.390016 0.877107 -0.014225
C56   C     C_R   0.585062 0.352454 0.647297 0.203140
C57   C     C_R   0.597757 0.379115 0.698306 -0.057498
C58   C     C_R   0.678991 0.358684 0.724660 -0.019525
C59   C     C_R   0.526432 0.417376 0.724259 0.203655
C60   C     C_R   0.520607 0.413273 0.774681 0.189794
C61   C     C_R   0.598378 0.388266 0.800211 -0.049930
C62   C     C_R   0.682006 0.367429 0.775569 0.017301
C63   C     C_R   0.600159 0.392796 0.850546 -0.100241
C64   C     C_R   0.648670 0.301457 0.624552 -0.015001
H15   H     H_    0.536751 0.410239 0.869491 0.200405
C65   C     C_1   0.220173 0.862620 0.609784 0.049384
C66   C     C_R   0.073877 0.746375 0.717654 -0.078339
C67   C     C_R   0.059609 0.736110 0.767356 -0.087255
C68   C     C_R   0.229267 0.927454 0.785476 -0.079891
C69   C     C_R   0.243386 0.937817 0.735759 -0.044140
C70   C     C_R   0.166228 0.847032 0.701748 0.066462
C71   C     C_R   0.138015 0.826090 0.801365 0.040219
C72   C     C_1   0.122181 0.813624 0.852349 -0.045276
C73   C     C_1   0.190022 0.853725 0.651053 0.009243
C74   C     C_1   0.099626 0.796604 0.894065 0.001166
H16   H     H_    0.014557 0.675162 0.691757 0.125021
H17   H     H_    0.988223 0.657520 0.779279 0.122063
H18   H     H_    0.289982 0.997708 0.811403 0.124969
H19   H     H_    0.316062 0.015496 0.723834 0.140178
C75   C     C_1   0.642089 0.866578 0.611327 0.059524
C76   C     C_R   0.747688 0.832470 0.724438 -0.130749
C77   C     C_R   0.753598 0.821593 0.773876 -0.114035
C78   C     C_R   0.559746 0.805191 0.781980 -0.041043
C79   C     C_R   0.552423 0.816262 0.732240 0.260629
C80   C     C_R   0.648246 0.830659 0.703370 0.050381
C81   C     C_R   0.660268 0.809100 0.802768 0.012827
C82   C     C_1   0.668726 0.799209 0.853706 -0.017824
C83   C     C_1   0.647263 0.846957 0.652657 0.045931
C84   C     C_1   0.684135 0.789904 0.895605 0.013133
H20   H     H_    0.821255 0.843232 0.702669 0.127890
H21   H     H_    0.831423 0.823628 0.789663 0.126265
H22   H     H_    0.487717 0.795005 0.804634 0.159618
O14   O     O_R   0.820790 0.857990 0.068830 -0.491698
O15   O     O_R   0.016700 0.827330 0.062850 -0.497397
C85   C     C_R   0.068246 0.774600 0.078339 0.541660
O16   O     O_R   0.041970 0.673520 0.060040 -0.497007
O17   O     O_R   0.817980 0.483660 0.048840 -0.479111
C86   C     C_R   0.716598 0.440340 0.066975 0.559874
O18   O     O_R   0.637200 0.461990 0.052510 -0.492395
O19   O     O_R   0.664790 0.681920 0.057970 -0.501118
C87   C     C_R   0.717526 0.783547 0.079665 0.540139
O20   O     O_R   0.815840 0.852920 0.961840 -0.515153
O21   O     O_R   0.012100 0.822630 0.963670 -0.500734
C88   C     C_R   0.056443 0.766047 0.941198 0.539559
O22   O     O_R   0.037010 0.668460 0.953040 -0.504150
O23   O     O_R   0.813390 0.478970 0.949660 -0.500930
C89   C     C_R   0.710769 0.435952 0.928333 0.538274
O24   O     O_R   0.632250 0.456930 0.945520 -0.516192
O25   O     O_R   0.660200 0.677230 0.958780 -0.489733
C90   C     C_R   0.716185 0.776222 0.943085 0.536337
Cr4   Cr    Cr6+3 0.914010 0.832750 0.013970 1.053296
Cr5   Cr    Cr6+3 0.922310 0.578600 0.003000 1.062865
Cr6   Cr    Cr6+3 0.656280 0.574630 0.003870 1.066992
O26   O     O_3   0.830870 0.661990 0.006950 -0.253642
C91   C     C_2   0.838631 0.523863 0.324163 0.283253
H23   H     H_    0.919923 0.593080 0.312113 0.155602
O27   O     O_2   0.817903 0.529414 0.366993 -0.490737
C92   C     C_2   0.031612 0.029936 0.210427 0.292631
H24   H     H_    0.038462 0.111271 0.224983 0.193204
O28   O     O_2   0.963429 0.976709 0.175416 -0.507592
C93   C     C_2   0.056767 0.046473 0.314689 0.275537
H25   H     H_    0.993287 0.000748 0.341237 0.143416
O29   O     O_2   0.087435 0.148100 0.311463 -0.443809
N1    N     N_R   0.187157 0.027281 0.388496 0.073338
O30   O     O_R   0.121105 0.009593 0.425643 -0.320906
O31   O     O_R   0.267592 0.132138 0.381843 -0.273986
C94   C     C_2   0.741479 0.015192 0.114048 0.236971
H26   H     H_    0.771057 0.009386 0.077922 0.144013
O32   O     O_2   0.729488 0.099131 0.126422 -0.545673
C95   C     C_2   0.841028 0.180576 0.296943 0.242376
H27   H     H_    0.825079 0.203372 0.333519 0.109560
O33   O     O_2   0.916416 0.257800 0.275451 -0.471542
N2    N     N_R   0.446644 0.512000 0.200852 0.070714
O34   O     O_R   0.336350 0.445349 0.209865 -0.295420
O35   O     O_R   0.505535 0.465665 0.179942 -0.321846
N3    N     N_R   0.845985 0.549092 0.222024 0.055006
O36   O     O_R   0.920156 0.555443 0.189219 -0.342391
O37   O     O_R   0.840090 0.641513 0.237132 -0.345471
N4    N     N_R   0.438771 0.439604 0.800092 0.091961
O38   O     O_R   0.348714 0.358592 0.819651 -0.325692
O39   O     O_R   0.450255 0.542563 0.801379 -0.296626
N5    N     N_R   0.462479 0.463768 0.700487 0.143338
O40   O     O_R   0.349120 0.421129 0.705209 -0.214537
O41   O     O_R   0.520020 0.557047 0.678592 -0.291766
N6    N     N_R   0.499448 0.364791 0.619048 0.127645
O42   O     O_R   0.534054 0.431638 0.584020 -0.277549
O43   O     O_R   0.386985 0.293623 0.622175 -0.266422
C96   C     C_2   0.528287 0.138259 0.184362 0.300422
H28   H     H_    0.532524 0.146121 0.145663 0.137181
O44   O     O_2   0.457395 0.045331 0.198120 -0.517276
N7    N     N_R   0.447674 0.812251 0.712054 0.086990
O45   O     O_R   0.345937 0.751653 0.730785 -0.307500
O46   O     O_R   0.454544 0.877067 0.678206 -0.369417
C97   C     C_2   0.183235 0.024119 0.128662 0.291019
H29   H     H_    0.175207 0.021006 0.089539 0.115721
O47   O     O_2   0.231201 0.119060 0.151977 -0.452750

loop_
_geom_bond_atom_site_label_1
_geom_bond_atom_site_label_2
_geom_bond_distance
_ccdc_geom_bond_type
C14   C16   1.205565 T    
C57   C58   1.420840 A    
C51   C62   1.418522 A    
O11   Cr3   2.060315 S    
C85   O16   1.271378 A    
C6    C65   1.433134 S    
N4    O38   1.300991 A    
C76   C77   1.394574 A    
C50   C53   1.402874 A    
C18   C26   1.410759 A    
C86   O18   1.266411 A    
C75   C83   1.204102 T    
C5    C64   1.472221 S    
C4    C75   1.430571 S    
C66   C67   1.398409 A    
C60   C61   1.408850 A    
N6    O43   1.301918 A    
O4    Cr2   1.911610 S    
C33   H6    1.077097 S    
C51   C52   1.399142 A    
C11   H1    1.085065 S    
C68   H18   1.083407 S    
O8    Cr1   1.926229 S    
C10   C11   1.401251 A    
C54   C55   1.398379 A    
C19   C22   1.384866 A    
C84   C90   1.430106 S    
C19   C20   1.396807 A    
N2    O35   1.301097 A    
C20   C21   1.383128 A    
C92   O28   1.220742 D    
C56   N6    1.435337 S    
O24   Cr6   2.061018 S    
C82   C84   1.203524 T    
C53   H14   1.083794 S    
Cr6   O26   1.971846 S    
C97   H29   1.083366 S    
C39   C47   1.400863 A    
C17   C18   1.378447 A    
C20   H4    1.084161 S    
C63   H15   1.080832 S    
O23   Cr5   1.939503 S    
C56   C64   1.416224 A    
C34   C42   1.414515 A    
C25   C26   1.417875 A    
O25   Cr6   1.909397 S    
C52   H13   1.083660 S    
O22   Cr5   2.027388 S    
C33   C48   1.404056 A    
C58   C62   1.403387 A    
C45   C46   1.414824 A    
C29   C31   1.421208 A    
C93   H25   1.085299 S    
C8    C12   1.414967 A    
C50   C58   1.411312 A    
N1    O31   1.301358 A    
C61   C62   1.405572 A    
C78   C81   1.396772 A    
C23   C31   1.409829 A    
N7    O46   1.301004 A    
C43   C44   1.394054 A    
C24   C32   1.416852 A    
C69   H19   1.083789 S    
C94   O32   1.220639 D    
Cr3   O13   1.973676 S    
N3    O37   1.301480 A    
N4    O39   1.300201 A    
O14   Cr4   2.046902 S    
C17   H3    1.084701 S    
C55   C63   1.404334 A    
C91   O27   1.220500 D    
N5    O41   1.300754 A    
C91   H23   1.084786 S    
C10   C96   1.487940 S    
C9    C13   1.417314 A    
C25   C27   1.426238 A    
C23   C85   1.471756 S    
O1    Cr1   2.046603 S    
C5    O11   1.267243 A    
C78   H22   1.083832 S    
C44   C45   1.416382 A    
C96   H28   1.084424 S    
Cr1   O13   1.974188 S    
O1    C3    1.269740 A    
C8    C9    1.417347 A    
Cr4   O26   1.973856 S    
C22   H2    1.084917 S    
C52   C53   1.392856 A    
O6    C3    1.280726 A    
C26   C30   1.403734 A    
C29   C30   1.412414 A    
N7    O45   1.301344 A    
C43   H9    1.084506 S    
O16   Cr5   2.056952 S    
O12   Cr3   1.908113 S    
C67   H17   1.084043 S    
C28   C92   1.492135 S    
C76   H20   1.083801 S    
O17   Cr5   1.910611 S    
C95   O33   1.221627 D    
C1    C48   1.459223 S    
C49   C50   1.388870 A    
C37   C95   1.492278 S    
C13   C14   1.447846 S    
O10   Cr2   1.940299 S    
C61   C63   1.389572 A    
O21   C88   1.274207 A    
C76   C80   1.400010 A    
N6    O42   1.301224 A    
O7    Cr1   2.038300 S    
O8    C4    1.272902 A    
C80   C83   1.439990 S    
C18   C21   1.399616 A    
O12   C6    1.271513 A    
C72   C74   1.205258 T    
C92   H24   1.082385 S    
O19   Cr6   1.942128 S    
N1    O30   1.301356 A    
C88   O22   1.268658 A    
C19   C30   1.416350 A    
C10   C13   1.410584 A    
C66   H16   1.083524 S    
C27   C28   1.421932 A    
C40   C48   1.392623 A    
C35   C46   1.418605 A    
C70   C73   1.438715 S    
C65   C73   1.205119 T    
N3    O36   1.300540 A    
Cr5   O26   1.973855 S    
O15   Cr4   1.924457 S    
C24   C25   1.428672 A    
C3    C32   1.477395 S    
C35   C36   1.404323 A    
C22   C23   1.395584 A    
O17   C86   1.273509 A    
C55   C89   1.465901 S    
C77   C81   1.399173 A    
N5    O40   1.301561 A    
C78   C79   1.405395 A    
C89   O24   1.261497 A    
C51   C54   1.400351 A    
O20   Cr4   2.038989 S    
C33   C34   1.395702 A    
C38   C39   1.407416 A    
O9    Cr2   2.028708 S    
O14   C87   1.273030 A    
O2    Cr1   1.923764 S    
C56   C57   1.415731 A    
C39   C87   1.465104 S    
C12   C15   1.443994 S    
C31   C97   1.491509 S    
C59   N5    1.435779 S    
Cr2   O13   1.972224 S    
C54   H11   1.084241 S    
O6    Cr3   1.941418 S    
C96   O44   1.221581 D    
O25   C90   1.271696 A    
C49   H12   1.084575 S    
C36   H7    1.079663 S    
C2    O5    1.267339 A    
O18   Cr6   2.025777 S    
C40   H10   1.084709 S    
C9    N3    1.438830 S    
O20   C90   1.264542 A    
C79   N7    1.439747 S    
C94   H26   1.081831 S    
O21   Cr4   1.926339 S    
C35   C38   1.413539 A    
C8    C91   1.492485 S    
C41   C42   1.416704 A    
C16   C86   1.433274 S    
C57   C59   1.422630 A    
O19   C87   1.270546 A    
C77   H21   1.083974 S    
C67   C71   1.403295 A    
C68   C69   1.398786 A    
C95   H27   1.081443 S    
O5    Cr3   2.025315 S    
C38   C94   1.495936 S    
C36   C37   1.397246 A    
O4    C2    1.272270 A    
O7    C6    1.267611 A    
C42   C46   1.403547 A    
C2    C7    1.432733 S    
C60   N4    1.435444 S    
C69   C70   1.403316 A    
C97   O47   1.221394 D    
C81   C82   1.436568 S    
O2    C1    1.275638 A    
C79   C80   1.418644 A    
C93   O29   1.220633 D    
C71   C72   1.439012 S    
N2    O34   1.301123 A    
C27   C93   1.486305 S    
C40   C41   1.393922 A    
O3    Cr2   2.057518 S    
C44   N2    1.435102 S    
C21   H5    1.084280 S    
C68   C71   1.399730 A    
O15   C85   1.274701 A    
C4    O9    1.267996 A    
C17   C32   1.399224 A    
C45   C47   1.391653 A    
C28   C29   1.423374 A    
C34   C37   1.418837 A    
C11   C12   1.399788 A    
O10   C5    1.277924 A    
O23   C89   1.280025 A    
C47   H8    1.080264 S    
C24   N1    1.434134 S    
C59   C60   1.402680 A    
C66   C70   1.399963 A    
C1    O3    1.259443 A    
C49   C64   1.399213 A    
C41   C43   1.395430 A    
C74   C88   1.433068 S    
C7    C15   1.205221 T    
