data_mof_unit_15424.cif
_audit_creation_date              2012-10-26T17:56:04-0400
_audit_creation_method            fapswitch 2.2
_symmetry_space_group_name_H-M    P1
_symmetry_Int_Tables_number       1
_space_group_crystal_system       triclinic
_cell_length_a                    21.72679
_cell_length_b                    21.730309
_cell_length_c                    30.356855
_cell_angle_alpha                 90.244109
_cell_angle_beta                  89.954267
_cell_angle_gamma                 89.912179
_cell_volume                      14332.2261532

loop_
_atom_site_label
_atom_site_type_symbol
_atom_type_description
_atom_site_fract_x
_atom_site_fract_y
_atom_site_fract_z
_atom_type_partial_charge
C1    C     C_R   0.118703 0.499961 0.499998 0.636842
C2    C     C_R   0.380886 0.499949 0.500014 0.629193
C3    C     C_R   0.945830 0.486588 0.843355 -0.127591
C4    C     C_R   0.501346 0.944704 0.156777 -0.153195
C5    C     C_R   0.055920 0.498639 0.156764 -0.129551
C6    C     C_R   0.497041 0.056176 0.156867 -0.126587
C7    C     C_R   0.944342 0.498324 0.156951 -0.127833
C8    C     C_R   0.000275 0.499433 0.366583 -0.064155
C9    C     C_R   0.499898 0.000369 0.366406 -0.059984
C10   C     C_R   0.999825 0.500425 0.633596 -0.062283
C11   C     C_R   0.499694 0.999553 0.633599 -0.059995
C12   C     C_R   0.499095 0.999655 0.866447 -0.066134
C13   C     C_R   0.499953 0.619110 0.500071 0.629052
C14   C     C_R   0.999891 0.500523 0.866553 -0.069936
C15   C     C_R   0.499386 0.000345 0.133576 -0.066248
C16   C     C_R   0.000066 0.498963 0.133561 -0.069026
C17   C     C_R   0.000385 0.498322 0.274367 0.111249
C18   C     C_R   0.499509 0.000895 0.274153 0.140259
C19   C     C_R   0.999398 0.501054 0.725882 0.117385
C20   C     C_R   0.498988 0.998923 0.725858 0.141087
C21   C     C_R   0.498609 0.999175 0.774207 0.140366
C22   C     C_R   0.999460 0.501331 0.774247 0.117735
C23   C     C_R   0.499255 0.000737 0.225822 0.139735
C24   C     C_R   0.619117 0.500025 0.499988 0.628853
C25   C     C_R   0.000316 0.497859 0.225960 0.113779
C26   C     C_3   0.013062 0.338917 0.289791 -0.135173
C27   C     C_3   0.649682 0.950038 0.286312 -0.130184
C28   C     C_3   0.991250 0.657568 0.288098 -0.132899
C29   C     C_3   0.350011 0.052381 0.287276 -0.130187
C30   C     C_3   0.038984 0.346600 0.711827 -0.134030
C31   C     C_3   0.651711 0.042667 0.713281 -0.128625
C32   C     C_3   0.957512 0.654279 0.711546 -0.140504
C33   C     C_3   0.346990 0.954559 0.712188 -0.129010
C34   C     C_3   0.433942 0.854505 0.787662 -0.127510
C35   C     C_R   0.999333 0.880922 0.999802 0.617566
C36   C     C_3   0.148661 0.480787 0.776036 -0.129382
C37   C     C_3   0.561968 0.144714 0.787394 -0.128019
C38   C     C_3   0.850307 0.522175 0.777205 -0.131065
C39   C     C_3   0.552413 0.851483 0.212940 -0.128782
C40   C     C_3   0.137125 0.557787 0.225068 -0.130391
C41   C     C_3   0.445557 0.149748 0.213112 -0.128009
C42   C     C_3   0.865480 0.436192 0.225854 -0.130799
C43   C     C_3   0.188278 0.631475 0.552907 -0.084225
C44   C     C_3   0.631660 0.811552 0.552418 -0.084216
C45   C     C_3   0.811647 0.368982 0.552697 -0.083901
C46   C     C_R   0.881035 0.999792 0.000033 0.639602
C47   C     C_3   0.367979 0.188983 0.552103 -0.084408
C48   C     C_3   0.188567 0.368413 0.446981 -0.086666
C49   C     C_3   0.631534 0.188110 0.447432 -0.083488
C50   C     C_3   0.811542 0.631062 0.447118 -0.086122
C51   C     C_3   0.368268 0.811362 0.447835 -0.083714
C52   C     C_3   0.689960 0.141041 0.038497 -0.082003
C53   C     C_3   0.126550 0.309419 0.056777 -0.091188
C54   C     C_3   0.321806 0.958824 0.100192 -0.096934
C55   C     C_3   0.860646 0.689522 0.042700 -0.082918
C56   C     C_3   0.689690 0.858017 0.962723 -0.082305
C57   C     C_R   0.998944 0.119231 0.000177 0.607824
C58   C     C_3   0.138260 0.691395 0.959107 -0.091488
C59   C     C_3   0.322001 0.042822 0.900229 -0.101469
C60   C     C_3   0.872458 0.312555 0.941842 -0.084972
C61   C     C_3   0.311024 0.529391 0.605547 0.044152
C62   C     C_3   0.358493 0.555752 0.637583 -0.258620
C63   C     C_3   0.358274 0.521097 0.681197 -0.504668
C64   C     C_3   0.529281 0.689007 0.605429 0.044892
C65   C     C_3   0.555577 0.641423 0.637256 -0.259781
C66   C     C_3   0.520293 0.641112 0.680738 -0.502599
C67   C     C_3   0.688740 0.471523 0.605443 0.044361
C68   C     C_R   0.119446 0.999917 0.999975 0.578772
C69   C     C_3   0.641193 0.445453 0.637440 -0.258469
C70   C     C_3   0.641162 0.480634 0.681051 -0.504591
C71   C     C_3   0.469869 0.312055 0.605143 0.045168
C72   C     C_3   0.443637 0.360174 0.636909 -0.259789
C73   C     C_3   0.478737 0.360910 0.680427 -0.503174
C74   C     C_3   0.311509 0.470225 0.394573 0.044824
C75   C     C_3   0.359364 0.443948 0.362678 -0.260046
C76   C     C_3   0.359517 0.478774 0.319135 -0.502437
C77   C     C_3   0.529222 0.310788 0.394487 0.044575
C78   C     C_3   0.555535 0.358238 0.362599 -0.259507
C79   C     C_R   0.313711 0.499866 0.500044 -0.043354
C80   C     C_3   0.520502 0.358334 0.319052 -0.502762
C81   C     C_3   0.688641 0.528660 0.394578 0.044949
C82   C     C_3   0.640888 0.554698 0.362715 -0.260067
C83   C     C_3   0.640621 0.519317 0.319188 -0.501894
C84   C     C_3   0.470254 0.688128 0.394802 0.044900
C85   C     C_3   0.444084 0.640145 0.362999 -0.259572
C86   C     C_3   0.479110 0.639551 0.319408 -0.503305
C87   C     C_3   0.811612 0.049360 0.101340 0.043607
C88   C     C_3   0.859485 0.081152 0.130340 -0.262076
C89   C     C_3   0.859587 0.055130 0.176929 -0.501000
C90   C     C_R   0.499856 0.686275 0.500173 -0.043644
C91   C     C_3   0.999160 0.184218 0.104747 0.035729
C92   C     C_3   0.998964 0.238541 0.137146 -0.250979
C93   C     C_3   0.956478 0.226386 0.176186 -0.508255
C94   C     C_3   0.189142 0.083135 0.089404 0.044714
C95   C     C_3   0.156746 0.092607 0.133622 -0.238858
C96   C     C_3   0.162629 0.158891 0.149865 -0.488472
C97   C     C_3   0.951214 0.812991 0.102393 0.041968
C98   C     C_3   0.917989 0.859995 0.131550 -0.256475
C99   C     C_3   0.943865 0.860404 0.178261 -0.502378
C100  C     C_3   0.813673 0.944122 0.899807 0.043112
C101  C     C_R   0.686297 0.500056 0.499978 -0.043713
C102  C     C_3   0.862946 0.910679 0.872806 -0.261108
C103  C     C_3   0.864816 0.933698 0.825421 -0.502154
C104  C     C_3   0.024791 0.816252 0.896642 0.031853
C105  C     C_3   0.033937 0.762188 0.864690 -0.248418
C106  C     C_3   0.005089 0.775469 0.819916 -0.504185
C107  C     C_3   0.176958 0.917676 0.913837 0.058991
C108  C     C_3   0.226211 0.887178 0.884865 -0.260937
C109  C     C_3   0.204230 0.825626 0.866436 -0.493191
C110  C     C_3   0.975939 0.188631 0.893285 0.043878
C111  C     C_3   0.948952 0.143747 0.859591 -0.254497
C112  C     C_R   0.500034 0.881287 0.500040 0.636356
C113  C     C_R   0.499729 0.313727 0.499802 -0.043580
C114  C     C_3   0.985904 0.143675 0.816826 -0.498217
C115  C     C_R   0.814130 0.999509 0.000128 -0.039098
C116  C     C_R   0.997363 0.186614 0.000622 -0.056610
C117  C     C_R   0.187224 0.999729 0.999937 -0.072662
C118  C     C_R   0.997985 0.813832 0.999251 -0.050764
C119  C     C_R   0.281474 0.531496 0.533508 0.189347
C120  C     C_R   0.531582 0.718562 0.533476 0.189127
C121  C     C_R   0.718470 0.468735 0.533401 0.189391
C122  C     C_R   0.467955 0.281823 0.533125 0.189393
C123  C     C_R   0.281647 0.468200 0.466589 0.189654
C124  C     C_R   0.881299 0.500037 0.499982 0.636851
C125  C     C_R   0.531443 0.281338 0.466462 0.189089
C126  C     C_R   0.718438 0.531425 0.466570 0.189568
C127  C     C_R   0.468191 0.718282 0.466837 0.189362
C128  C     C_R   0.782052 0.037671 0.029792 0.187225
C129  C     C_R   0.024023 0.219727 0.035987 0.197516
C130  C     C_R   0.219871 0.010475 0.039677 0.194550
C131  C     C_R   0.962607 0.782348 0.030801 0.191846
C132  C     C_R   0.782413 0.960881 0.970682 0.189883
C133  C     C_R   0.032303 0.780873 0.967474 0.195964
C134  C     C_R   0.220218 0.989426 0.960155 0.206196
C135  C     C_R   0.499956 0.118713 0.499958 0.636412
C136  C     C_R   0.969781 0.218490 0.965315 0.191470
C137  C     C_R   0.000073 0.499865 0.414946 0.580896
C138  C     C_R   0.500001 0.000080 0.414882 0.581456
C139  C     C_R   0.999973 0.500120 0.585116 0.581614
C140  C     C_R   0.499950 0.999900 0.585119 0.581619
C141  C     C_R   0.499709 0.999890 0.914898 0.578099
C142  C     C_R   0.000001 0.500124 0.914929 0.577304
C143  C     C_R   0.499781 0.000112 0.085110 0.578574
C144  C     C_R   0.999996 0.499717 0.085111 0.577886
C145  C     C_R   0.185434 0.499884 0.500027 -0.040257
C146  C     C_R   0.618854 0.999938 0.999864 0.627392
C147  C     C_R   0.500058 0.814547 0.500070 -0.040866
C148  C     C_R   0.814573 0.500099 0.499992 -0.040379
C149  C     C_R   0.499835 0.185454 0.499870 -0.040853
C150  C     C_R   0.685861 0.999767 0.999881 -0.044873
C151  C     C_R   0.999923 0.314854 0.999174 -0.042791
C152  C     C_R   0.315595 0.000159 0.999985 -0.040387
C153  C     C_R   0.999728 0.685586 0.000795 -0.047394
C154  C     C_R   0.217109 0.535139 0.531531 0.195017
C155  C     C_R   0.535310 0.782898 0.531451 0.195592
C156  C     C_R   0.782835 0.465107 0.531433 0.194972
C157  C     C_R   0.000026 0.381397 0.999361 0.637225
C158  C     C_R   0.464376 0.217464 0.531171 0.195469
C159  C     C_R   0.217278 0.464612 0.468529 0.195859
C160  C     C_R   0.535136 0.216990 0.468474 0.195331
C161  C     C_R   0.782798 0.535056 0.468529 0.195934
C162  C     C_R   0.464645 0.782652 0.468780 0.195248
C163  C     C_R   0.717726 0.041140 0.027362 0.196953
C164  C     C_R   0.031204 0.283399 0.032512 0.200784
C165  C     C_R   0.284171 0.007241 0.039814 0.193951
C166  C     C_R   0.959644 0.717826 0.029092 0.194906
C167  C     C_R   0.717984 0.957916 0.972740 0.197393
C168  C     C_R   0.381661 0.000048 0.000021 0.637116
C169  C     C_R   0.038416 0.717145 0.971588 0.203493
C170  C     C_R   0.284372 0.993203 0.960106 0.205425
C171  C     C_R   0.966723 0.282999 0.966704 0.193681
C172  C     C_R   0.017995 0.444995 0.297285 0.261259
C173  C     C_R   0.555826 0.997649 0.296746 0.265853
C174  C     C_R   0.982967 0.552226 0.297021 0.261364
C175  C     C_R   0.443410 0.003968 0.297078 0.264688
C176  C     C_R   0.999126 0.444569 0.703129 0.262196
C177  C     C_R   0.555473 0.999955 0.703282 0.266000
C178  C     C_R   0.999593 0.557209 0.703079 0.263967
C179  C     C_R   0.999940 0.618759 0.000641 0.627241
C180  C     C_R   0.442875 0.998093 0.702917 0.265170
C181  C     C_R   0.490091 0.943665 0.796975 0.264485
C182  C     C_R   0.054098 0.514435 0.797178 0.262981
C183  C     C_R   0.506887 0.054988 0.796963 0.263336
C184  C     C_R   0.944998 0.488028 0.797286 0.266094
C185  C     C_R   0.503215 0.944489 0.203012 0.262618
C186  C     C_R   0.056357 0.499423 0.202841 0.266186
C187  C     C_R   0.495051 0.056780 0.203115 0.264319
C188  C     C_R   0.944175 0.496443 0.202990 0.266559
C189  C     C_R   0.019137 0.446636 0.343591 -0.135724
C190  C     C_R   0.499915 0.380891 0.499926 0.629098
C191  C     C_R   0.555580 0.999291 0.343013 -0.133964
C192  C     C_R   0.981646 0.551732 0.343301 -0.135015
C193  C     C_R   0.444031 0.001808 0.343293 -0.133323
C194  C     C_R   0.997504 0.444861 0.656852 -0.135432
C195  C     C_R   0.555296 0.998408 0.657003 -0.134516
C196  C     C_R   0.001778 0.556300 0.656822 -0.134654
C197  C     C_R   0.443743 0.000259 0.656692 -0.133801
C198  C     C_R   0.492391 0.944163 0.843219 -0.127884
C199  C     C_R   0.053701 0.515041 0.843282 -0.131873
C200  C     C_R   0.505101 0.054957 0.843215 -0.152739
Cu1   Cu    Cu3+1 0.000000 0.438210 0.500000 0.923572
Cu2   Cu    Cu3+1 0.500000 0.500000 0.455940 0.911082
Cu3   Cu    Cu3+1 0.000000 0.000000 0.044060 0.925562
Cu4   Cu    Cu3+1 0.000000 0.000000 0.955940 0.918949
Cu5   Cu    Cu3+1 0.438210 0.000000 0.500000 0.925850
Cu6   Cu    Cu3+1 0.000000 0.561790 0.500000 0.923770
Cu7   Cu    Cu3+1 0.561790 0.000000 0.500000 0.925633
Cu8   Cu    Cu3+1 0.500000 0.938210 0.000000 0.930605
Cu9   Cu    Cu3+1 0.938210 0.500000 0.000000 0.928931
Cu10  Cu    Cu3+1 0.500000 0.061790 0.000000 0.932340
Cu11  Cu    Cu3+1 0.061790 0.500000 0.000000 0.933040
Cu12  Cu    Cu3+1 0.500000 0.500000 0.544060 0.911295
H1    H     H_    0.035528 0.407189 0.361786 0.139873
H2    H     H_    0.095444 0.527151 0.860747 0.150086
H3    H     H_    0.832189 0.657242 0.062236 0.128437
H4    H     H_    0.676092 0.856484 0.998099 0.111230
H5    H     H_    0.736537 0.838375 0.958381 0.153392
H6    H     H_    0.657279 0.828136 0.944269 0.126772
H7    H     H_    0.143338 0.672977 0.993071 0.116387
H8    H     H_    0.153716 0.740104 0.958219 0.134297
H9    H     H_    0.169234 0.664485 0.937241 0.126302
H10   H     H_    0.346351 0.077004 0.921308 0.117899
H11   H     H_    0.276039 0.060798 0.890469 0.151378
H12   H     H_    0.349574 0.036684 0.869739 0.144373
H13   H     H_    0.508492 0.098033 0.861027 0.134169
H14   H     H_    0.860402 0.326867 0.976062 0.112730
H15   H     H_    0.854184 0.265793 0.934926 0.154086
H16   H     H_    0.849147 0.344870 0.919086 0.129806
H17   H     H_    0.321970 0.479733 0.599934 0.130053
H18   H     H_    0.264534 0.533316 0.620695 0.174967
H19   H     H_    0.405138 0.552478 0.622652 0.180125
H20   H     H_    0.348122 0.605109 0.643944 0.163049
H21   H     H_    0.312544 0.525178 0.697351 0.151260
H22   H     H_    0.393646 0.540903 0.703481 0.142732
H23   H     H_    0.369069 0.471705 0.675640 0.139682
H24   H     H_    0.904207 0.474215 0.860847 0.147893
H25   H     H_    0.479658 0.678147 0.599835 0.130712
H26   H     H_    0.533048 0.735459 0.620735 0.176541
H27   H     H_    0.552897 0.594881 0.622024 0.181246
H28   H     H_    0.604767 0.651989 0.643858 0.162223
H29   H     H_    0.523627 0.686773 0.697146 0.159784
H30   H     H_    0.540177 0.605786 0.702910 0.141910
H31   H     H_    0.471096 0.629935 0.674942 0.139739
H32   H     H_    0.677787 0.521121 0.599878 0.130054
H33   H     H_    0.735189 0.467774 0.620603 0.175049
H34   H     H_    0.594600 0.448452 0.622469 0.180385
H35   H     H_    0.501349 0.901474 0.138979 0.134413
H36   H     H_    0.651637 0.396193 0.643812 0.163109
H37   H     H_    0.686851 0.476888 0.697230 0.151582
H38   H     H_    0.605777 0.460987 0.703317 0.142588
H39   H     H_    0.630231 0.529928 0.675486 0.139659
H40   H     H_    0.519592 0.322558 0.599660 0.130911
H41   H     H_    0.465742 0.265823 0.620456 0.176445
H42   H     H_    0.446578 0.406505 0.621653 0.181781
H43   H     H_    0.394374 0.349903 0.643463 0.161693
H44   H     H_    0.475165 0.315472 0.696851 0.158406
H45   H     H_    0.458893 0.396590 0.702566 0.141763
H46   H     H_    0.099421 0.498167 0.139317 0.147672
H47   H     H_    0.528000 0.371833 0.674677 0.139897
H48   H     H_    0.322142 0.519914 0.400196 0.130705
H49   H     H_    0.265155 0.466186 0.379300 0.177139
H50   H     H_    0.405854 0.447123 0.377797 0.180875
H51   H     H_    0.349169 0.394623 0.356181 0.162598
H52   H     H_    0.313949 0.474832 0.302805 0.159752
H53   H     H_    0.395128 0.459001 0.296942 0.142766
H54   H     H_    0.370190 0.528127 0.324831 0.139701
H55   H     H_    0.479583 0.321785 0.400084 0.130327
H56   H     H_    0.533045 0.264297 0.379228 0.176472
H57   H     H_    0.496984 0.099246 0.139131 0.142582
H58   H     H_    0.552600 0.404843 0.377725 0.180678
H59   H     H_    0.604799 0.347666 0.356108 0.163378
H60   H     H_    0.524168 0.312627 0.302726 0.158836
H61   H     H_    0.540333 0.393630 0.296858 0.142994
H62   H     H_    0.471215 0.369417 0.324740 0.139515
H63   H     H_    0.677882 0.479059 0.400186 0.130740
H64   H     H_    0.735028 0.532418 0.379288 0.177177
H65   H     H_    0.594382 0.551881 0.377879 0.180993
H66   H     H_    0.651260 0.603903 0.356188 0.162814
H67   H     H_    0.686221 0.522847 0.302826 0.160621
H68   H     H_    0.900741 0.498919 0.139686 0.150010
H69   H     H_    0.605119 0.538968 0.297011 0.142787
H70   H     H_    0.629718 0.470085 0.324911 0.139776
H71   H     H_    0.519967 0.677462 0.400263 0.130553
H72   H     H_    0.466150 0.734399 0.379530 0.176298
H73   H     H_    0.447167 0.593758 0.378165 0.181342
H74   H     H_    0.394785 0.650471 0.356561 0.162636
H75   H     H_    0.475336 0.685032 0.303055 0.157536
H76   H     H_    0.459362 0.603916 0.297262 0.142657
H77   H     H_    0.528425 0.628654 0.325044 0.139789
H78   H     H_    0.821950 0.998996 0.100746 0.127909
H79   H     H_    0.016090 0.303262 0.263647 0.135685
H80   H     H_    0.765230 0.056754 0.116006 0.177309
H81   H     H_    0.905919 0.074687 0.115635 0.176050
H82   H     H_    0.849353 0.131249 0.131850 0.158820
H83   H     H_    0.813839 0.061818 0.192612 0.158881
H84   H     H_    0.894780 0.079369 0.197015 0.139420
H85   H     H_    0.870908 0.005264 0.176185 0.139157
H86   H     H_    0.008388 0.141386 0.123471 0.141892
H87   H     H_    0.952434 0.178643 0.089934 0.127035
H88   H     H_    0.046366 0.246854 0.149492 0.192043
H89   H     H_    0.982478 0.280601 0.120197 0.198443
H90   H     H_    0.040502 0.322079 0.318140 0.117227
H91   H     H_    0.908690 0.218369 0.164603 0.142322
H92   H     H_    0.956348 0.267011 0.198471 0.148034
H93   H     H_    0.972588 0.185638 0.194930 0.138680
H94   H     H_    0.163917 0.109544 0.063673 0.143464
H95   H     H_    0.236950 0.101196 0.092120 0.164599
H96   H     H_    0.107264 0.080699 0.130102 0.173257
H97   H     H_    0.177398 0.061504 0.158581 0.170560
H98   H     H_    0.211598 0.169952 0.156726 0.138626
H99   H     H_    0.135744 0.164907 0.180711 0.140170
H100  H     H_    0.144768 0.191353 0.124861 0.187670
H101  H     H_    0.963586 0.343715 0.298906 0.093028
H102  H     H_    0.001260 0.824513 0.101904 0.131269
H103  H     H_    0.945078 0.766460 0.116863 0.175951
H104  H     H_    0.923081 0.906686 0.117155 0.183676
H105  H     H_    0.868132 0.848710 0.132841 0.162273
H106  H     H_    0.938491 0.814371 0.193561 0.150663
H107  H     H_    0.918557 0.894746 0.198550 0.138710
H108  H     H_    0.993384 0.873039 0.177824 0.144673
H109  H     H_    0.823415 0.994540 0.898735 0.131206
H110  H     H_    0.767892 0.935261 0.884699 0.176392
H111  H     H_    0.908745 0.918235 0.888181 0.182521
H112  H     H_    0.598789 0.999880 0.360687 0.137348
H113  H     H_    0.683209 0.940674 0.259525 0.131544
H114  H     H_    0.853333 0.860442 0.872713 0.159248
H115  H     H_    0.819725 0.925956 0.809106 0.156853
H116  H     H_    0.900869 0.908252 0.806824 0.139588
H117  H     H_    0.875968 0.983570 0.824739 0.140288
H118  H     H_    0.037649 0.859473 0.879578 0.137126
H119  H     H_    0.974935 0.820827 0.905096 0.123708
H120  H     H_    0.083841 0.752933 0.860208 0.196629
H121  H     H_    0.011905 0.720339 0.878356 0.197278
H122  H     H_    0.954910 0.784061 0.823544 0.137539
H123  H     H_    0.012001 0.735222 0.797815 0.178987
H124  H     H_    0.676397 0.964237 0.315806 0.111883
H125  H     H_    0.027121 0.816259 0.804651 0.139326
H126  H     H_    0.132132 0.915368 0.896404 0.172807
H127  H     H_    0.171024 0.891350 0.945089 0.131997
H128  H     H_    0.237897 0.917973 0.856934 0.192798
H129  H     H_    0.268407 0.879201 0.904663 0.190873
H130  H     H_    0.191654 0.794101 0.893635 0.167081
H131  H     H_    0.241626 0.804062 0.846743 0.139744
H132  H     H_    0.163726 0.832625 0.844719 0.150070
H133  H     H_    0.024655 0.175148 0.899862 0.131041
H134  H     H_    0.975053 0.235714 0.879056 0.177553
H135  H     H_    0.624507 0.906299 0.292667 0.115675
H136  H     H_    0.948960 0.096505 0.873527 0.179518
H137  H     H_    0.900572 0.156965 0.852334 0.164624
H138  H     H_    0.985640 0.190254 0.801882 0.154726
H139  H     H_    0.965038 0.110709 0.793135 0.141256
H140  H     H_    0.034186 0.129382 0.823195 0.147810
H141  H     H_    0.040663 0.651077 0.296782 0.092783
H142  H     H_    0.965233 0.676761 0.316513 0.116845
H143  H     H_    0.989328 0.692122 0.261337 0.137085
H144  H     H_    0.375710 0.095962 0.293335 0.116763
H145  H     H_    0.323638 0.038899 0.317047 0.111697
H146  H     H_    0.316155 0.061685 0.260784 0.133957
H147  H     H_    0.084062 0.367671 0.703018 0.094572
H148  H     H_    0.965357 0.591750 0.361179 0.140491
H149  H     H_    0.019889 0.320487 0.683457 0.116969
H150  H     H_    0.047795 0.313074 0.738555 0.137142
H151  H     H_    0.628871 0.087489 0.706119 0.116822
H152  H     H_    0.678030 0.026141 0.684169 0.111909
H153  H     H_    0.685346 0.051032 0.740109 0.131388
H154  H     H_    0.913171 0.631942 0.702322 0.097907
H155  H     H_    0.976318 0.680767 0.683395 0.118460
H156  H     H_    0.947198 0.687627 0.738303 0.130052
H157  H     H_    0.370408 0.909865 0.705279 0.118216
H158  H     H_    0.321128 0.970412 0.682806 0.112232
H159  H     H_    0.400919 0.001043 0.361132 0.138145
H160  H     H_    0.312889 0.946224 0.738708 0.132146
H161  H     H_    0.420676 0.821988 0.761064 0.130193
H162  H     H_    0.446667 0.826576 0.816821 0.115263
H163  H     H_    0.392882 0.883654 0.794971 0.120336
H164  H     H_    0.188467 0.491516 0.754503 0.137607
H165  H     H_    0.166566 0.474212 0.810003 0.107773
H166  H     H_    0.127662 0.437380 0.763552 0.116371
H167  H     H_    0.574733 0.176989 0.760702 0.131296
H168  H     H_    0.549039 0.172921 0.816557 0.111867
H169  H     H_    0.603385 0.116141 0.794587 0.118356
H170  H     H_    0.994202 0.401794 0.639022 0.138233
H171  H     H_    0.871297 0.565789 0.765328 0.115995
H172  H     H_    0.832646 0.528118 0.811355 0.105685
H173  H     H_    0.810338 0.511935 0.755685 0.137976
H174  H     H_    0.595737 0.877406 0.206591 0.117100
H175  H     H_    0.538736 0.824588 0.183358 0.112202
H176  H     H_    0.562288 0.818073 0.239551 0.131768
H177  H     H_    0.179238 0.557699 0.245702 0.139135
H178  H     H_    0.150876 0.571453 0.191191 0.106349
H179  H     H_    0.104872 0.592351 0.239408 0.115556
H180  H     H_    0.435420 0.183345 0.239768 0.130728
H181  H     H_    0.598474 0.996068 0.639308 0.137170
H182  H     H_    0.459358 0.176448 0.183616 0.116013
H183  H     H_    0.402340 0.123663 0.206609 0.120170
H184  H     H_    0.898545 0.403286 0.240981 0.116510
H185  H     H_    0.853031 0.420790 0.192016 0.107063
H186  H     H_    0.822902 0.435609 0.246035 0.139614
H187  H     H_    0.174579 0.641066 0.518250 0.112007
H188  H     H_    0.235161 0.649718 0.559346 0.153466
H189  H     H_    0.155922 0.656854 0.574686 0.128437
H190  H     H_    0.641189 0.825257 0.517759 0.111126
H191  H     H_    0.649915 0.764609 0.558630 0.153218
H192  H     H_    0.005028 0.599181 0.639006 0.138504
H193  H     H_    0.657083 0.843799 0.574180 0.128396
H194  H     H_    0.825407 0.359066 0.518023 0.111874
H195  H     H_    0.764763 0.350775 0.559129 0.153525
H196  H     H_    0.843980 0.343826 0.574435 0.128668
H197  H     H_    0.358579 0.174881 0.517433 0.111118
H198  H     H_    0.349643 0.235970 0.558325 0.153142
H199  H     H_    0.342525 0.156945 0.573838 0.128509
H200  H     H_    0.174628 0.358765 0.481590 0.112138
H201  H     H_    0.235505 0.350067 0.440632 0.153909
H202  H     H_    0.156374 0.343184 0.425084 0.123385
H203  H     H_    0.400774 0.002822 0.638814 0.138019
H204  H     H_    0.641065 0.174548 0.482115 0.111291
H205  H     H_    0.649764 0.234974 0.441084 0.153585
H206  H     H_    0.656981 0.155695 0.425723 0.129104
H207  H     H_    0.825395 0.641027 0.481743 0.111866
H208  H     H_    0.764618 0.649344 0.440790 0.153907
H209  H     H_    0.843786 0.656096 0.425261 0.124165
H210  H     H_    0.358756 0.825313 0.482538 0.111304
H211  H     H_    0.349972 0.764456 0.441483 0.153455
H212  H     H_    0.342864 0.843577 0.426176 0.129090
H213  H     H_    0.676483 0.143659 0.003149 0.110248
H214  H     H_    0.489017 0.901285 0.861022 0.141844
H215  H     H_    0.737015 0.159898 0.043115 0.152822
H216  H     H_    0.657819 0.170887 0.057339 0.127431
H217  H     H_    0.139464 0.326694 0.023564 0.116125
H218  H     H_    0.141866 0.260896 0.060507 0.131641
H219  H     H_    0.151732 0.337394 0.081507 0.133118
H220  H     H_    0.346413 0.924335 0.079431 0.116328
H221  H     H_    0.275903 0.940918 0.110083 0.150638
H222  H     H_    0.349247 0.965543 0.130641 0.146478
H223  H     H_    0.856433 0.675715 0.007443 0.111899
H224  H     H_    0.841377 0.736403 0.047722 0.153359
O1    O     O_R   0.090160 0.447820 0.500030 -0.501361
O2    O     O_R   0.947820 0.409840 0.000030 -0.503936
O3    O     O_R   0.409840 0.052180 0.000030 -0.508612
O4    O     O_R   0.052180 0.590160 0.000030 -0.495472
O5    O     O_R   0.590160 0.052180 0.999970 -0.493016
O6    O     O_R   0.947820 0.590160 0.999970 -0.495743
O7    O     O_R   0.409840 0.947820 0.999970 -0.510492
O8    O     O_R   0.052180 0.409840 0.999970 -0.500288
O9    O     O_R   0.999980 0.447820 0.435750 -0.514306
O10   O     O_R   0.447820 0.000020 0.435750 -0.514366
O11   O     O_R   0.000020 0.552180 0.435750 -0.514081
O12   O     O_R   0.447820 0.909840 0.500030 -0.499777
O13   O     O_R   0.552180 0.999980 0.435750 -0.513913
O14   O     O_R   0.999980 0.552180 0.564250 -0.514242
O15   O     O_R   0.447820 0.999980 0.564250 -0.514499
O16   O     O_R   0.000020 0.447820 0.564250 -0.514287
O17   O     O_R   0.552180 0.000020 0.564250 -0.514033
O18   O     O_R   0.499980 0.947820 0.935750 -0.499386
O19   O     O_R   0.947820 0.500020 0.935750 -0.516153
O20   O     O_R   0.500020 0.052180 0.935750 -0.529548
O21   O     O_R   0.052180 0.499980 0.935750 -0.511447
O22   O     O_R   0.499980 0.052180 0.064250 -0.498925
O23   O     O_R   0.909840 0.552180 0.500030 -0.501316
O24   O     O_R   0.947820 0.499980 0.064250 -0.511808
O25   O     O_R   0.500020 0.947820 0.064250 -0.529574
O26   O     O_R   0.052180 0.500020 0.064250 -0.514594
O27   O     O_R   0.499980 0.409740 0.537200 -0.498550
O28   O     O_R   0.409740 0.500020 0.537200 -0.497944
O29   O     O_R   0.500020 0.590260 0.537200 -0.498291
O30   O     O_R   0.590260 0.499980 0.537200 -0.497723
O31   O     O_R   0.499980 0.590260 0.462800 -0.498263
O32   O     O_R   0.409740 0.499980 0.462800 -0.498397
O33   O     O_R   0.500020 0.409740 0.462800 -0.498067
O34   O     O_R   0.552180 0.090160 0.500030 -0.500142
O35   O     O_R   0.590260 0.500020 0.462800 -0.498116
O36   O     O_R   0.999980 0.909740 0.037200 -0.501997
O37   O     O_R   0.909740 0.000020 0.037200 -0.503815
O38   O     O_R   0.000020 0.090260 0.037200 -0.501750
O39   O     O_R   0.090260 0.999980 0.037200 -0.470678
O40   O     O_R   0.999980 0.090260 0.962800 -0.493895
O41   O     O_R   0.909740 0.999980 0.962800 -0.503561
O42   O     O_R   0.000020 0.909740 0.962800 -0.512486
O43   O     O_R   0.090260 0.000020 0.962800 -0.485815
O44   O     O_3   0.038058 0.394112 0.273228 -0.539018
O45   O     O_R   0.090160 0.552180 0.499970 -0.499390
O46   O     O_3   0.610209 0.997953 0.272632 -0.556408
O47   O     O_3   0.963452 0.602815 0.272808 -0.539107
O48   O     O_3   0.388799 0.003885 0.273308 -0.559160
O49   O     O_3   0.995896 0.390392 0.727244 -0.541860
O50   O     O_3   0.609703 0.997354 0.727467 -0.557082
O51   O     O_3   0.001618 0.611798 0.727097 -0.547233
O52   O     O_3   0.388260 0.000470 0.726724 -0.560141
O53   O     O_3   0.484768 0.889313 0.772996 -0.558199
O54   O     O_3   0.106753 0.530310 0.774263 -0.540979
O55   O     O_3   0.511493 0.109112 0.772956 -0.558928
O56   O     O_R   0.447820 0.090160 0.499970 -0.500095
O57   O     O_3   0.892110 0.472617 0.774450 -0.538812
O58   O     O_3   0.503801 0.890106 0.226917 -0.558217
O59   O     O_3   0.111554 0.498213 0.225474 -0.537485
O60   O     O_3   0.494182 0.111360 0.227118 -0.557458
O61   O     O_3   0.889032 0.496603 0.225738 -0.537916
O62   O     O_3   0.184518 0.568237 0.562925 -0.555144
O63   O     O_3   0.568430 0.815501 0.562728 -0.553774
O64   O     O_3   0.815357 0.432318 0.562792 -0.554994
O65   O     O_3   0.431181 0.185229 0.562446 -0.554019
O66   O     O_3   0.184847 0.431686 0.437048 -0.555950
O67   O     O_R   0.909840 0.447820 0.499970 -0.499230
O68   O     O_3   0.568309 0.184273 0.437191 -0.553910
O69   O     O_3   0.815293 0.567698 0.437093 -0.555477
O70   O     O_3   0.431500 0.814999 0.437519 -0.554144
O71   O     O_3   0.685434 0.080560 0.054948 -0.549835
O72   O     O_3   0.062858 0.315914 0.064581 -0.553070
O73   O     O_3   0.316619 0.015881 0.078583 -0.563469
O74   O     O_3   0.921973 0.685803 0.057773 -0.553738
O75   O     O_3   0.685908 0.918104 0.945429 -0.550900
O76   O     O_3   0.077353 0.684859 0.943705 -0.549323
O77   O     O_3   0.317047 0.985379 0.921317 -0.566190
O78   O     O_R   0.552180 0.909840 0.499970 -0.500466
O79   O     O_3   0.936422 0.315450 0.934059 -0.557898
O80   O     O_3   0.313324 0.563222 0.565902 -0.554073
O81   O     O_3   0.563323 0.686772 0.565743 -0.554460
O82   O     O_3   0.686572 0.437297 0.565761 -0.553820
O83   O     O_3   0.436091 0.313988 0.565380 -0.554395
O84   O     O_3   0.313678 0.436412 0.434230 -0.554536
O85   O     O_3   0.563195 0.313027 0.434161 -0.554270
O86   O     O_3   0.686496 0.562917 0.434250 -0.554327
O87   O     O_3   0.436407 0.686225 0.434572 -0.554152
O88   O     O_3   0.814158 0.075143 0.058703 -0.559696
O89   O     O_R   0.590160 0.947820 0.000030 -0.492835
O90   O     O_3   0.046676 0.190173 0.072916 -0.563254
O91   O     O_3   0.189224 0.019653 0.079155 -0.536750
O92   O     O_3   0.925506 0.815140 0.059693 -0.553611
O93   O     O_3   0.815025 0.921404 0.943339 -0.557860
O94   O     O_3   0.063541 0.810804 0.934065 -0.572720
O95   O     O_3   0.190388 0.980835 0.920321 -0.544459
O96   O     O_3   0.940074 0.186331 0.932100 -0.550936

loop_
_geom_bond_atom_site_label_1
_geom_bond_atom_site_label_2
_ccdc_geom_bond_type
C106  H122  S    
C140  O17   A    
C172  O44   S    
C153  C166  A    
C199  H2    S    
C71   H40   S    
C174  O47   S    
C168  O3    A    
Cu6   O45   S    
C56   H6    S    
C152  C165  A    
C89   H85   S    
C82   H66   S    
C150  C163  A    
C45   O64   S    
C98   H105  S    
C16   C144  S    
C11   C195  A    
C83   H67   S    
Cu4   O43   S    
C13   C90   S    
C73   H45   S    
C141  O18   A    
C94   O91   S    
C108  C109  S    
C179  O4    A    
C28   H142  S    
C34   H163  S    
C110  C111  S    
C118  C131  A    
C50   H207  S    
C146  C150  S    
C55   H223  S    
Cu5   O56   S    
C113  C122  A    
C185  O58   S    
C131  C166  A    
C52   H213  S    
Cu1   Cu6   S    
C57   O40   A    
C147  C155  A    
C3    C184  A    
C42   O61   S    
C64   H26   S    
C44   H193  S    
C45   H196  S    
C171  O79   S    
C103  H115  S    
C100  H109  S    
C161  O69   S    
C5    C186  A    
C176  O49   S    
C104  C105  S    
C84   H71   S    
C77   O85   S    
Cu8   O25   S    
C57   C116  S    
C36   H164  S    
C75   H51   S    
Cu11  O8    S    
C111  H136  S    
C26   H90   S    
C181  O53   S    
Cu8   O89   S    
C110  H133  S    
C59   O77   S    
C29   O48   S    
C173  C191  A    
C120  C155  A    
C186  O59   S    
C129  C164  A    
C80   H60   S    
C74   O84   S    
C75   C76   S    
C38   H173  S    
C152  C170  A    
C9    C138  S    
C13   O31   A    
C136  C171  A    
C87   H80   S    
C122  C158  A    
C78   H59   S    
C99   H107  S    
C70   H37   S    
C32   H154  S    
Cu4   O40   S    
C30   O49   S    
Cu8   O7    S    
C62   H20   S    
C173  O46   S    
C122  O83   S    
C135  O34   A    
C72   H43   S    
C177  C195  A    
C182  C199  A    
C72   C73   S    
C147  C162  A    
C30   H147  S    
C42   H186  S    
C44   H190  S    
C67   H32   S    
C73   H47   S    
C20   C177  A    
C141  O20   A    
C74   H48   S    
Cu2   O35   S    
C107  O95   S    
C14   C199  A    
C139  O14   A    
C87   O88   S    
C127  O87   S    
C17   C25   S    
C34   H161  S    
C48   H200  S    
C30   H149  S    
C64   C65   S    
C130  C165  A    
C51   H212  S    
C138  O10   A    
C123  C159  A    
C8    C192  A    
C52   H215  S    
C53   H218  S    
C9    C193  A    
C69   C70   S    
C59   H12   S    
C96   H99   S    
C74   H49   S    
C38   O57   S    
Cu3   O36   S    
C88   C89   S    
C98   C99   S    
C94   H94   S    
C46   O37   A    
C12   C198  A    
C191  H112  S    
C67   C69   S    
C9    C191  A    
C175  C193  A    
C36   H166  S    
C14   C142  S    
C159  O66   S    
C121  C156  A    
C76   H54   S    
C112  O12   A    
C1    C145  S    
C97   C98   S    
C31   H153  S    
C125  C160  A    
C29   H145  S    
C85   C86   S    
C139  O16   A    
C113  C190  S    
C144  O26   A    
C50   O69   S    
C46   C115  S    
Cu1   O67   S    
C32   H155  S    
C55   H3    S    
C145  C159  A    
C78   C80   S    
C68   O43   A    
C66   H31   S    
C1    O45   A    
C184  O57   S    
C87   H78   S    
C151  C171  A    
C12   C141  S    
C24   C101  S    
C58   H7    S    
C180  O52   S    
C22   C184  A    
C133  O94   S    
C32   H156  S    
C29   H144  S    
Cu4   O42   S    
C19   C176  A    
C58   H8    S    
C146  O89   A    
C71   H41   S    
Cu2   O32   S    
C107  C108  S    
C103  H117  S    
C27   O46   S    
C47   H198  S    
C111  C114  S    
C48   H201  S    
C60   H14   S    
C54   H221  S    
C100  O93   S    
C78   H58   S    
C76   H52   S    
C178  O51   S    
C130  O91   S    
C143  O25   A    
C132  O93   S    
C80   H62   S    
C166  O74   S    
C58   H9    S    
C101  C126  A    
C115  C132  A    
Cu5   Cu7   S    
Cu2   O33   S    
C52   O71   S    
C41   H183  S    
C85   H74   S    
C91   C92   S    
Cu4   O41   S    
C126  O86   S    
C51   H210  S    
C91   H86   S    
C178  C196  A    
C115  C128  A    
C44   O63   S    
C60   H16   S    
C90   C120  A    
C154  O62   S    
C4    H35   S    
C59   H10   S    
C10   C196  A    
C73   H44   S    
C31   H152  S    
C157  O8    A    
C38   H171  S    
C12   C200  A    
C20   C21   S    
C193  H159  S    
Cu12  O27   S    
C33   H158  S    
C46   O41   A    
C189  H1    S    
C15   C143  S    
C145  C154  A    
Cu11  O4    S    
C82   C83   S    
C127  C162  A    
C97   H102  S    
C24   O35   A    
C39   H176  S    
C104  H119  S    
C106  H123  S    
C112  O78   A    
C64   O81   S    
C106  H125  S    
C2    O32   A    
Cu1   O9    S    
C194  H170  S    
C72   H42   S    
C89   H84   S    
C58   O76   S    
C66   H29   S    
C33   O52   S    
C148  C156  A    
C35   O36   A    
C183  C200  A    
C77   H56   S    
Cu11  O21   S    
C81   H64   S    
C109  H132  S    
C32   O51   S    
C71   C72   S    
C22   C182  A    
C83   H70   S    
C30   H150  S    
C63   H22   S    
C23   C187  A    
C134  O95   S    
C67   H33   S    
C43   H188  S    
Cu5   O10   S    
C163  O71   S    
C80   H61   S    
C37   H169  S    
C61   C62   S    
C149  C160  A    
C56   H4    S    
C50   H208  S    
C151  C164  A    
C134  C170  A    
C192  H148  S    
C1    O1    A    
C35   C118  S    
C84   O87   S    
C96   H98   S    
C109  H131  S    
C87   C88   S    
C153  C179  S    
C105  H121  S    
C43   H189  S    
C100  H110  S    
C92   H89   S    
C37   H168  S    
C86   H75   S    
C93   H92   S    
C108  H129  S    
C132  C167  A    
C123  O84   S    
C50   H209  S    
C128  O88   S    
C17   C172  A    
C168  O7    A    
C77   C78   S    
C124  C148  S    
C49   H206  S    
Cu9   O2    S    
C137  O9    A    
C151  C157  S    
C109  H130  S    
Cu9   O24   S    
C10   C194  A    
C26   O44   S    
C81   O86   S    
C110  H134  S    
C54   O73   S    
C2    O28   A    
C157  O2    A    
C138  O13   A    
C68   C117  S    
C133  C169  A    
Cu12  O29   S    
C95   H97   S    
C33   H160  S    
C2    C79   S    
C125  O85   S    
Cu10  O3    S    
C79   C119  A    
C61   H17   S    
C90   C127  A    
C65   H28   S    
Cu10  O20   S    
C39   H174  S    
C126  C161  A    
C40   H177  S    
C70   H38   S    
C55   O74   S    
Cu3   O39   S    
C124  O67   A    
C162  O70   S    
C86   H77   S    
C6    H57   S    
C47   H199  S    
C117  C134  A    
C56   H5    S    
C152  C168  S    
C26   H101  S    
C182  O54   S    
Cu9   O6    S    
C143  O22   A    
C84   C85   S    
C120  O81   S    
C56   O75   S    
C23   C185  A    
C61   O80   S    
C137  O11   A    
Cu5   O12   S    
C6    C187  A    
C41   H180  S    
C101  C121  A    
Cu6   O11   S    
C8    C137  S    
C28   H141  S    
C34   H162  S    
C62   C63   S    
C3    H24   S    
C55   H224  S    
C26   H79   S    
C51   H211  S    
Cu7   O13   S    
C91   H87   S    
C8    C189  A    
C91   O90   S    
C52   H216  S    
Cu5   O15   S    
C53   H217  S    
C140  O15   A    
C64   H25   S    
C3    C14   A    
C59   H11   S    
C96   H100  S    
C60   O79   S    
C7    C16   A    
C164  O72   S    
C40   O59   S    
C103  H116  S    
C10   C139  S    
C36   O54   S    
C7    H68   S    
C95   H96   S    
C17   C174  A    
C54   H220  S    
C48   O66   S    
C129  O90   S    
C156  O64   S    
C144  O24   A    
C131  O92   S    
Cu2   Cu12  S    
C104  H118  S    
C112  C147  S    
C49   H204  S    
C27   H135  S    
C116  C136  A    
C172  C189  A    
C105  C106  S    
C27   H113  S    
C102  H111  S    
C107  H126  S    
C169  O76   S    
C160  O68   S    
C150  C167  A    
C92   C93   S    
C190  O27   A    
Cu11  O26   S    
C88   H82   S    
C39   O58   S    
C43   O62   S    
C71   O83   S    
C99   H108  S    
C40   H179  S    
C167  O75   S    
C25   C186  A    
Cu3   O37   S    
C42   H184  S    
C142  O21   A    
C69   H34   S    
C27   H124  S    
C153  C169  A    
C47   H197  S    
C176  C194  A    
C48   H202  S    
Cu7   O34   S    
C114  H138  S    
C175  O48   S    
C54   H222  S    
C4    C185  A    
Cu3   Cu4   S    
C121  O82   S    
C95   C96   S    
C196  H192  S    
C11   C140  S    
C42   H185  S    
C81   C82   S    
C188  O61   S    
C20   C180  A    
C21   C181  A    
C84   H72   S    
C63   H23   S    
C41   H182  S    
C85   H73   S    
C92   H88   S    
C110  O96   S    
C148  C161  A    
C28   H143  S    
C108  H128  S    
C88   H81   S    
C113  C125  A    
Cu10  O5    S    
C104  O94   S    
C47   O65   S    
C67   O82   S    
Cu6   O23   S    
C53   H219  S    
Cu10  O22   S    
C5    C16   A    
C180  C197  A    
C6    C15   A    
C31   H151  S    
C116  C129  A    
C38   H172  S    
C97   O92   S    
Cu1   O1    S    
Cu12  O28   S    
C33   H157  S    
Cu3   O38   S    
C114  H140  S    
C18   C175  A    
C36   H165  S    
C75   H50   S    
C76   H53   S    
C102  C103  S    
C39   H175  S    
C181  C198  A    
C29   H146  S    
C61   H18   S    
C170  O77   S    
C165  O73   S    
C198  H214  S    
C190  O33   A    
C49   O68   S    
C74   C75   S    
C18   C23   S    
C7    C188  A    
C19   C22   S    
C135  O56   A    
C89   H83   S    
C66   H30   S    
C135  C149  S    
C34   O53   S    
C79   C123  A    
C62   H19   S    
C128  C163  A    
C77   H55   S    
C183  O55   S    
C81   H63   S    
C41   O60   S    
C155  O63   S    
Cu9   O19   S    
C99   H106  S    
C11   C197  A    
C83   H69   S    
C25   C188  A    
C114  H139  S    
C63   H21   S    
C142  O19   A    
C69   H36   S    
C43   H187  S    
Cu2   O31   S    
C146  O5    A    
C100  C102  S    
C187  O60   S    
C94   C95   S    
C179  O6    A    
C117  C130  A    
C19   C178  A    
C118  C133  A    
C197  H203  S    
Cu6   O14   S    
C195  H181  S    
C82   H65   S    
C57   O38   A    
C44   H191  S    
C45   H194  S    
C149  C158  A    
Cu1   O16   S    
C21   C183  A    
C51   O70   S    
C93   H93   S    
C105  H120  S    
C37   H167  S    
C86   H76   S    
C93   H91   S    
Cu7   O17   S    
C158  O65   S    
C119  C154  A    
C49   H205  S    
C94   H95   S    
C60   H15   S    
C4    C15   A    
C119  O80   S    
Cu8   O18   S    
C136  O96   S    
C31   O50   S    
C28   O47   S    
C5    H46   S    
Cu9   Cu11  S    
C37   O55   S    
C200  H13   S    
C102  H114  S    
Cu12  O30   S    
C107  H127  S    
C124  O23   A    
C18   C173  A    
C13   O29   A    
C68   O39   A    
Cu8   Cu10  S    
C65   C66   S    
C111  H137  S    
C35   O42   A    
C174  C192  A    
C177  O50   S    
C97   H103  S    
C24   O30   A    
C65   H27   S    
C98   H104  S    
C45   H195  S    
Cu7   O78   S    
C40   H178  S    
C70   H39   S    
C53   O72   S    
