data_mof_unit_63023.cif
_audit_creation_date              2012-12-10T18:14:10-0500
_audit_creation_method            fapswitch 2.2
_symmetry_space_group_name_H-M    P1
_symmetry_Int_Tables_number       1
_space_group_crystal_system       triclinic
_cell_length_a                    32.260937
_cell_length_b                    32.263204
_cell_length_c                    23.701379
_cell_angle_alpha                 89.960974
_cell_angle_beta                  89.92157
_cell_angle_gamma                 90.018868
_cell_volume                      24669.3413821

loop_
_atom_site_label
_atom_site_type_symbol
_atom_type_description
_atom_site_fract_x
_atom_site_fract_y
_atom_site_fract_z
_atom_type_partial_charge
C1    C     C_R   0.999992 0.420427 0.500022 0.818132
C2    C     C_R   0.420428 0.999988 0.500032 0.817707
C3    C     C_R   0.000008 0.579568 0.499956 0.821763
C4    C     C_R   0.579569 0.000002 0.499969 0.818477
C5    C     C_R   0.499994 0.920432 0.000000 0.819757
C6    C     C_R   0.920428 0.499995 0.000033 0.817617
C7    C     C_R   0.500006 0.079567 1.000000 0.820178
C8    C     C_R   0.079572 0.500006 0.999966 0.817639
C9    C     C_1   0.999855 0.161359 0.498385 -0.011242
C10   C     C_1   0.161355 0.999583 0.498458 -0.011223
C11   C     C_1   0.000253 0.838667 0.501391 -0.010737
C12   C     C_1   0.838658 0.999450 0.501262 -0.010460
C13   C     C_1   0.499993 0.661340 0.999935 -0.007453
C14   C     C_1   0.661356 0.500024 0.998383 -0.010930
C15   C     C_1   0.500012 0.338659 0.000066 -0.007678
C16   C     C_1   0.338644 0.500038 0.001617 -0.010941
C17   C     C_1   0.999911 0.338485 0.498539 0.072357
C18   C     C_1   0.338484 0.999744 0.498654 0.072421
C19   C     C_1   0.000063 0.661502 0.501032 0.022921
C20   C     C_1   0.661503 0.999746 0.501440 0.070389
C21   C     C_1   0.499979 0.838496 0.999976 0.070885
C22   C     C_1   0.838484 0.499996 0.998617 0.072379
C23   C     C_1   0.500024 0.161502 0.000028 0.070899
C24   C     C_1   0.161516 0.500038 0.001383 0.072403
C25   C     C_1   0.999963 0.375893 0.499434 -0.169112
C26   C     C_1   0.375893 0.999921 0.499494 -0.168937
C27   C     C_1   0.000032 0.624095 0.500357 -0.178412
C28   C     C_1   0.624097 0.999961 0.500546 -0.169724
C29   C     C_1   0.499982 0.875905 0.999988 -0.170039
C30   C     C_1   0.875893 0.499987 0.999481 -0.169041
C31   C     C_1   0.500019 0.124094 0.000013 -0.170018
C32   C     C_1   0.124107 0.500023 0.000519 -0.169025
C33   C     C_1   0.999923 0.123966 0.499650 -0.198240
C34   C     C_1   0.123962 0.999825 0.499641 -0.198245
C35   C     C_1   0.000107 0.876054 0.500284 -0.196373
C36   C     C_1   0.876048 0.999772 0.500347 -0.195029
C37   C     C_1   0.499996 0.623944 0.999949 -0.198234
C38   C     C_1   0.623963 0.500010 0.999618 -0.197922
C39   C     C_1   0.500006 0.376055 0.000052 -0.198160
C40   C     C_1   0.376037 0.500018 0.000382 -0.197959
C41   C     C_R   0.000024 0.499992 0.391695 0.822703
C42   C     C_R   0.499989 0.000012 0.391696 0.822994
C43   C     C_R   0.999976 0.500009 0.608305 0.823115
C44   C     C_R   0.500012 0.999988 0.608303 0.822538
C45   C     C_R   0.500024 0.999998 0.891695 0.824304
C46   C     C_R   0.999989 0.500012 0.891696 0.822719
C47   C     C_R   0.499976 0.000003 0.108305 0.824340
C48   C     C_R   0.000011 0.499988 0.108303 0.822691
C49   C     C_R   0.079476 0.999996 0.499953 0.829366
C50   C     C_R   0.000002 0.920529 0.500028 0.829180
C51   C     C_R   0.920527 0.999999 0.500051 0.829181
C52   C     C_R   0.999987 0.079477 0.499965 0.829298
C53   C     C_R   0.579476 0.500000 0.999950 0.829364
C54   C     C_R   0.500000 0.420530 0.000017 0.829204
C55   C     C_R   0.420524 0.500001 0.000050 0.829348
C56   C     C_R   0.500000 0.579470 0.999983 0.829216
C57   C     C_1   0.000072 0.499975 0.330909 -0.178769
C58   C     C_1   0.499958 0.000035 0.330910 -0.177668
C59   C     C_1   0.999928 0.500026 0.669091 -0.178376
C60   C     C_1   0.500045 0.999966 0.669090 -0.177978
C61   C     C_1   0.500073 0.999985 0.830909 -0.177312
C62   C     C_1   0.999958 0.500037 0.830910 -0.178172
C63   C     C_1   0.499928 0.000017 0.169091 -0.177180
C64   C     C_1   0.000042 0.499963 0.169090 -0.178295
C65   C     C_1   0.000081 0.499963 0.279901 0.001345
C66   C     C_1   0.499934 0.000038 0.279902 0.002182
C67   C     C_1   0.999918 0.500038 0.720099 0.001683
C68   C     C_1   0.500069 0.999964 0.720098 0.001943
C69   C     C_1   0.500083 0.999973 0.779900 0.002237
C70   C     C_1   0.999933 0.500044 0.779902 0.001680
C71   C     C_1   0.499919 0.000029 0.220099 0.002414
C72   C     C_1   0.000067 0.499957 0.220098 0.001472
C73   C     C_R   0.037985 0.228056 0.492740 0.070251
C74   C     C_R   0.228047 0.961772 0.506854 0.071309
C75   C     C_R   0.962629 0.772019 0.510904 0.100602
C76   C     C_R   0.772013 0.035100 0.520185 0.070549
C77   C     C_R   0.961533 0.228048 0.497589 0.071389
C78   C     C_R   0.771876 0.962619 0.487163 0.071093
C79   C     C_R   0.038426 0.771923 0.497312 0.068628
C80   C     C_R   0.228049 0.036454 0.484020 0.070185
C81   C     C_R   0.535712 0.728061 0.018549 0.070022
C82   C     C_R   0.728032 0.461792 0.994485 0.071004
C83   C     C_R   0.465259 0.271912 0.021908 0.070242
C84   C     C_R   0.271965 0.538333 0.004025 0.071537
C85   C     C_R   0.464266 0.728055 0.981330 0.070047
C86   C     C_R   0.271937 0.461812 0.005470 0.070956
C87   C     C_R   0.534784 0.271967 0.978227 0.070255
C88   C     C_R   0.728066 0.538311 0.996021 0.071502
C89   C     C_R   0.999777 0.206337 0.495885 0.023616
C90   C     C_R   0.206334 0.999207 0.496090 0.023262
C91   C     C_R   0.000488 0.793710 0.503649 0.008008
C92   C     C_R   0.793675 0.999008 0.502988 0.017625
C93   C     C_R   0.499991 0.706337 0.999934 0.021201
C94   C     C_R   0.706335 0.500047 0.995944 0.023598
C95   C     C_R   0.500019 0.293661 0.000071 0.021182
C96   C     C_R   0.293665 0.500065 0.004056 0.023579
C97   C     C_R   0.961924 0.272051 0.498809 0.174220
C98   C     C_R   0.272050 0.036353 0.485314 0.174747
C99   C     C_R   0.037809 0.727907 0.495584 0.193214
C100  C     C_R   0.727857 0.963330 0.486262 0.174117
C101  C     C_R   0.037702 0.272057 0.493990 0.174528
C102  C     C_R   0.728061 0.034879 0.520521 0.182932
C103  C     C_R   0.962723 0.728174 0.510704 0.166815
C104  C     C_R   0.272054 0.962333 0.507942 0.174060
C105  C     C_R   0.465058 0.772046 0.979890 0.174664
C106  C     C_R   0.772069 0.537952 0.997270 0.174387
C107  C     C_R   0.533919 0.227979 0.976824 0.174872
C108  C     C_R   0.227934 0.462137 0.004203 0.174543
C109  C     C_R   0.534911 0.772049 0.020015 0.174625
C110  C     C_R   0.227962 0.537984 0.002776 0.174328
C111  C     C_R   0.466130 0.227923 0.023288 0.174922
C112  C     C_R   0.772035 0.462108 0.995751 0.174460
C113  C     C_R   0.999834 0.293536 0.496823 -0.005379
C114  C     C_R   0.293534 0.999425 0.497013 -0.005425
C115  C     C_R   0.000142 0.706446 0.502397 -0.024030
C116  C     C_R   0.706439 0.999240 0.503124 -0.002585
C117  C     C_R   0.499982 0.793539 0.999961 -0.003507
C118  C     C_R   0.793535 0.500022 0.996930 -0.005543
C119  C     C_R   0.500025 0.206459 0.000048 -0.003442
C120  C     C_R   0.206466 0.500057 0.003070 -0.005559
Cu1   Cu    Cu3+1 0.958970 0.500000 0.500000 0.958192
Cu2   Cu    Cu3+1 0.500000 0.041030 0.500000 0.964680
Cu3   Cu    Cu3+1 0.041030 0.500000 0.500000 0.962442
Cu4   Cu    Cu3+1 0.500000 0.958970 0.500000 0.960625
Cu5   Cu    Cu3+1 0.458970 0.000000 0.000000 0.960275
Cu6   Cu    Cu3+1 0.000000 0.541030 0.000000 0.961960
Cu7   Cu    Cu3+1 0.541030 0.000000 0.000000 0.960512
Cu8   Cu    Cu3+1 0.000000 0.458970 0.000000 0.962274
Cu9   Cu    Cu3+1 0.000000 0.000000 0.444230 0.949803
Cu10  Cu    Cu3+1 0.000000 0.000000 0.555770 0.949123
Cu11  Cu    Cu3+1 0.500000 0.500000 0.944230 0.949428
Cu12  Cu    Cu3+1 0.500000 0.500000 0.055770 0.949442
O1    O     O_R   0.965350 0.440130 0.499980 -0.577220
O2    O     O_R   0.440130 0.034650 0.499980 -0.576801
O3    O     O_R   0.034650 0.559870 0.499980 -0.574922
O4    O     O_R   0.559870 0.965350 0.499980 -0.578850
O5    O     O_R   0.034650 0.440130 0.500020 -0.577193
O6    O     O_R   0.559870 0.034650 0.500020 -0.576048
O7    O     O_R   0.965350 0.559870 0.500020 -0.583782
O8    O     O_R   0.440130 0.965350 0.500020 -0.578291
O9    O     O_R   0.465350 0.940130 0.999980 -0.578669
O10   O     O_R   0.940130 0.534650 0.999980 -0.577440
O11   O     O_R   0.534650 0.059870 0.999980 -0.578830
O12   O     O_R   0.059870 0.465350 0.999980 -0.577300
O13   O     O_R   0.534650 0.940130 0.000020 -0.578610
O14   O     O_R   0.059870 0.534650 0.000020 -0.577459
O15   O     O_R   0.465350 0.059870 0.000020 -0.578883
O16   O     O_R   0.940130 0.465350 0.000020 -0.577325
O17   O     O_R   0.059790 0.999980 0.452860 -0.581718
O18   O     O_R   0.999980 0.940210 0.452860 -0.580728
O19   O     O_R   0.940210 0.000020 0.452860 -0.580399
O20   O     O_R   0.000020 0.059790 0.452860 -0.581403
O21   O     O_R   0.940210 0.999980 0.547140 -0.581793
O22   O     O_R   0.000020 0.940210 0.547140 -0.581833
O23   O     O_R   0.059790 0.000020 0.547140 -0.580835
O24   O     O_R   0.999980 0.059790 0.547140 -0.581061
O25   O     O_R   0.559790 0.499980 0.952860 -0.581749
O26   O     O_R   0.499980 0.440210 0.952860 -0.580982
O27   O     O_R   0.440210 0.500020 0.952860 -0.580812
O28   O     O_R   0.500020 0.559790 0.952860 -0.581082
O29   O     O_R   0.440210 0.499980 0.047140 -0.581762
O30   O     O_R   0.500020 0.440210 0.047140 -0.580999
O31   O     O_R   0.559790 0.500020 0.047140 -0.580789
O32   O     O_R   0.499980 0.559790 0.047140 -0.581054
O33   O     O_R   0.965350 0.499980 0.418590 -0.579400
O34   O     O_R   0.499980 0.034650 0.418590 -0.578845
O35   O     O_R   0.034650 0.500020 0.418590 -0.579213
O36   O     O_R   0.500020 0.965350 0.418590 -0.579204
O37   O     O_R   0.034650 0.499980 0.581410 -0.578814
O38   O     O_R   0.500020 0.034650 0.581410 -0.578764
O39   O     O_R   0.965350 0.500020 0.581410 -0.579377
O40   O     O_R   0.499980 0.965350 0.581410 -0.579383
O41   O     O_R   0.465350 0.999980 0.918590 -0.578804
O42   O     O_R   0.999980 0.534650 0.918590 -0.579448
O43   O     O_R   0.534650 0.000020 0.918590 -0.579563
O44   O     O_R   0.000020 0.465350 0.918590 -0.578819
O45   O     O_R   0.534650 0.999980 0.081410 -0.578669
O46   O     O_R   0.000020 0.534650 0.081410 -0.578930
O47   O     O_R   0.465350 0.000020 0.081410 -0.579594
O48   O     O_R   0.999980 0.465350 0.081410 -0.579408
N1    N     N_2   0.075141 0.295558 0.494721 -0.423030
H1    H     H_    0.097327 0.286077 0.523145 0.242226
C121  C     C_3   0.091100 0.307242 0.439946 -0.666356
H2    H     H_    0.102844 0.279612 0.417184 0.222937
H3    H     H_    0.117051 0.329483 0.445362 0.224343
H4    H     H_    0.066579 0.322509 0.414446 0.233191
N2    N     N_2   0.295559 0.926395 0.522141 -0.423594
H5    H     H_    0.286082 0.910499 0.557586 0.242234
C122  C     C_3   0.307223 0.900409 0.475062 -0.665386
H6    H     H_    0.279581 0.884665 0.457396 0.222687
H7    H     H_    0.329461 0.876446 0.489629 0.224284
H8    H     H_    0.322489 0.919125 0.441583 0.233925
N3    N     N_2   0.924731 0.706010 0.516920 -0.434698
H9    H     H_    0.920734 0.682624 0.487778 0.256665
C123  C     C_3   0.915862 0.692540 0.573892 -0.668565
H10   H     H_    0.884514 0.678374 0.575415 0.223618
H11   H     H_    0.916400 0.719201 0.603368 0.234837
H12   H     H_    0.938907 0.669106 0.587832 0.224298
N4    N     N_2   0.704979 0.070829 0.536088 -0.420436
H13   H     H_    0.717078 0.098690 0.522602 0.260142
C124  C     C_3   0.691047 0.071387 0.594143 -0.692033
H14   H     H_    0.717969 0.072356 0.623275 0.213788
H15   H     H_    0.672065 0.043507 0.603615 0.237095
H16   H     H_    0.671591 0.099256 0.601446 0.229117
N5    N     N_2   0.924705 0.295544 0.504294 -0.423518
H17   H     H_    0.904491 0.286036 0.535393 0.242231
C125  C     C_3   0.905184 0.307242 0.451778 -0.664542
H18   H     H_    0.891965 0.279616 0.430582 0.223223
H19   H     H_    0.927918 0.322523 0.423289 0.233410
H20   H     H_    0.879713 0.329473 0.460471 0.224497
N6    N     N_2   0.704285 0.928843 0.466646 -0.423342
H21   H     H_    0.713822 0.915936 0.429075 0.242993
C126  C     C_3   0.692462 0.899161 0.509469 -0.666693
H22   H     H_    0.720036 0.882016 0.524769 0.223091
H23   H     H_    0.670217 0.876582 0.491290 0.224977
H24   H     H_    0.677152 0.915025 0.545500 0.233865
N7    N     N_2   0.074448 0.704399 0.485161 -0.420020
H25   H     H_    0.092421 0.714058 0.451690 0.240372
C127  C     C_3   0.097546 0.692531 0.534841 -0.660661
H26   H     H_    0.112147 0.720096 0.554451 0.220852
H27   H     H_    0.122326 0.670374 0.522750 0.223562
H28   H     H_    0.076907 0.677106 0.566014 0.235940
N8    N     N_2   0.295547 0.073334 0.477226 -0.422988
H29   H     H_    0.286060 0.098804 0.500010 0.242226
C128  C     C_3   0.307256 0.082085 0.419536 -0.666744
H30   H     H_    0.279638 0.090777 0.394374 0.223293
H31   H     H_    0.322512 0.054680 0.400171 0.232813
H32   H     H_    0.329515 0.108325 0.418774 0.224474
N9    N     N_2   0.568442 0.795513 0.042702 -0.424029
H33   H     H_    0.579555 0.785779 0.081217 0.242564
C129  C     C_3   0.600121 0.807459 0.002652 -0.666760
H34   H     H_    0.618158 0.779982 0.989005 0.222695
H35   H     H_    0.621617 0.829845 0.022827 0.224817
H36   H     H_    0.586026 0.822643 0.965216 0.235271
N10   N     N_2   0.795512 0.424708 0.998138 -0.423187
H37   H     H_    0.785979 0.403160 0.027501 0.242411
C130  C     C_3   0.807243 0.407550 0.944098 -0.665646
H38   H     H_    0.779629 0.395291 0.921844 0.222990
H39   H     H_    0.829475 0.381746 0.950666 0.224477
H40   H     H_    0.822538 0.431499 0.917543 0.233296
N11   N     N_2   0.433759 0.204433 0.049018 -0.424284
H41   H     H_    0.424493 0.214146 0.088457 0.242538
C131  C     C_3   0.400251 0.192495 0.011970 -0.667145
H42   H     H_    0.381583 0.219969 0.000006 0.222726
H43   H     H_    0.379779 0.170078 0.034085 0.224655
H44   H     H_    0.412541 0.177351 0.973325 0.235639
N12   N     N_2   0.204479 0.575316 0.998944 -0.423300
H45   H     H_    0.214005 0.596241 0.968753 0.242156
C132  C     C_3   0.192759 0.593599 0.052299 -0.665459
H46   H     H_    0.220378 0.606317 0.074061 0.223089
H47   H     H_    0.177466 0.570215 0.079775 0.233366
H48   H     H_    0.170528 0.619257 0.044740 0.224383
N13   N     N_2   0.431524 0.795510 0.957214 -0.424007
H49   H     H_    0.420414 0.785818 0.918694 0.242514
C133  C     C_3   0.399842 0.807379 0.997270 -0.666996
H50   H     H_    0.381806 0.779870 0.010896 0.222682
H51   H     H_    0.378345 0.829776 0.977106 0.224763
H52   H     H_    0.413934 0.822523 0.034716 0.235272
N14   N     N_2   0.204426 0.424745 0.001771 -0.422974
H53   H     H_    0.213942 0.403244 0.972382 0.242479
C134  C     C_3   0.192681 0.407499 0.055790 -0.666268
H54   H     H_    0.220285 0.395198 0.078028 0.222936
H55   H     H_    0.170427 0.381710 0.049190 0.224428
H56   H     H_    0.177407 0.431407 0.082375 0.233206
N15   N     N_2   0.566295 0.204548 0.951086 -0.424378
H57   H     H_    0.575563 0.214319 0.911653 0.242528
C135  C     C_3   0.599801 0.192589 0.988132 -0.666865
H58   H     H_    0.618459 0.220065 0.000123 0.222760
H59   H     H_    0.620283 0.170222 0.966006 0.224629
H60   H     H_    0.587510 0.177379 0.026763 0.235719
N16   N     N_2   0.795582 0.575274 0.001147 -0.423160
H61   H     H_    0.786074 0.596150 0.031365 0.242290
C136  C     C_3   0.807317 0.593645 0.947815 -0.665732
H62   H     H_    0.779708 0.606405 0.926070 0.223090
H63   H     H_    0.822589 0.570305 0.920308 0.233270
H64   H     H_    0.829570 0.619286 0.955406 0.224392
C137  C     C_3   0.078487 0.203951 0.487021 -0.377684
C138  C     C_3   0.083582 0.185795 0.427811 -0.815034
H65   H     H_    0.059350 0.162357 0.418781 0.258189
H66   H     H_    0.081737 0.210634 0.395505 0.247267
H67   H     H_    0.114293 0.170457 0.424343 0.230776
H68   H     H_    0.106128 0.223188 0.495552 0.198514
H69   H     H_    0.079506 0.178609 0.518756 0.196881
C139  C     C_3   0.203931 0.921598 0.516071 -0.377435
C140  C     C_3   0.185744 0.905152 0.460875 -0.819118
H70   H     H_    0.162287 0.926726 0.443426 0.256931
H71   H     H_    0.210567 0.900675 0.429004 0.247833
H72   H     H_    0.170415 0.874858 0.468710 0.231605
H73   H     H_    0.223171 0.896627 0.534299 0.198502
H74   H     H_    0.178597 0.926768 0.547081 0.198541
C141  C     C_3   0.921914 0.795661 0.516645 -0.355170
C142  C     C_3   0.917174 0.815293 0.574994 -0.820789
H75   H     H_    0.919045 0.791343 0.608456 0.247740
H76   H     H_    0.941537 0.838860 0.582662 0.257188
H77   H     H_    0.886526 0.830800 0.577977 0.233915
H78   H     H_    0.920074 0.820159 0.483764 0.188594
H79   H     H_    0.894713 0.775328 0.509266 0.228506
C143  C     C_3   0.795955 0.073390 0.538973 -0.383412
C144  C     C_3   0.808736 0.099903 0.488482 -0.843495
H80   H     H_    0.829368 0.082166 0.459784 0.259918
H81   H     H_    0.780957 0.110196 0.464678 0.247179
H82   H     H_    0.825735 0.127721 0.503474 0.238197
H83   H     H_    0.777744 0.092654 0.568709 0.202590
H84   H     H_    0.824001 0.064344 0.563164 0.205707
C145  C     C_3   0.920807 0.203937 0.496939 -0.380671
C146  C     C_3   0.911853 0.185845 0.438574 -0.814176
H85   H     H_    0.911725 0.210702 0.406190 0.248031
H86   H     H_    0.935312 0.162330 0.426598 0.257764
H87   H     H_    0.880977 0.170623 0.438856 0.233292
H88   H     H_    0.921852 0.178561 0.528622 0.197916
H89   H     H_    0.893851 0.223161 0.508926 0.198878
C147  C     C_3   0.795897 0.923336 0.472356 -0.372167
C148  C     C_3   0.813891 0.902613 0.524978 -0.826769
H90   H     H_    0.837420 0.922603 0.545466 0.255980
H91   H     H_    0.788983 0.895792 0.555960 0.248130
H92   H     H_    0.829090 0.873026 0.512936 0.233679
H93   H     H_    0.776620 0.899992 0.450571 0.199053
H94   H     H_    0.821324 0.930842 0.442373 0.199799
C149  C     C_3   0.079082 0.795963 0.493038 -0.379384
C150  C     C_3   0.091906 0.813967 0.550090 -0.817563
H95   H     H_    0.069279 0.837371 0.565071 0.257867
H96   H     H_    0.094320 0.789036 0.582197 0.247749
H97   H     H_    0.122585 0.829309 0.545972 0.231403
H98   H     H_    0.105104 0.776708 0.477759 0.198159
H99   H     H_    0.075988 0.821385 0.461676 0.198940
C151  C     C_3   0.203941 0.075620 0.468897 -0.379338
C152  C     C_3   0.185849 0.073121 0.409377 -0.811990
H100  H     H_    0.210718 0.067182 0.378020 0.247018
H101  H     H_    0.162397 0.048115 0.406146 0.258857
H102  H     H_    0.170545 0.102943 0.398744 0.230483
H103  H     H_    0.178564 0.080637 0.499888 0.196904
H104  H     H_    0.223166 0.103942 0.470855 0.198545
C153  C     C_3   0.574408 0.704008 0.035871 -0.371389
C154  C     C_3   0.597449 0.686713 0.984573 -0.829349
H105  H     H_    0.578583 0.663193 0.962189 0.256023
H106  H     H_    0.605284 0.711959 0.954579 0.248274
H107  H     H_    0.626645 0.671681 0.998571 0.233232
H108  H     H_    0.596663 0.723119 0.059920 0.198699
H109  H     H_    0.565758 0.678207 0.064650 0.199841
C155  C     C_3   0.703907 0.421185 0.990437 -0.379391
C156  C     C_3   0.685876 0.414839 0.931414 -0.815668
H110  H     H_    0.662369 0.438783 0.921387 0.258305
H111  H     H_    0.710768 0.416150 0.899100 0.247765
H112  H     H_    0.670657 0.384012 0.929114 0.230543
H113  H     H_    0.723111 0.393744 0.000191 0.198880
H114  H     H_    0.678494 0.420835 0.022124 0.198197
C157  C     C_3   0.427442 0.295938 0.042661 -0.373430
C158  C     C_3   0.402058 0.313212 0.993506 -0.825885
H115  H     H_    0.419834 0.336753 0.969457 0.255168
H116  H     H_    0.392896 0.287958 0.964307 0.248088
H117  H     H_    0.373544 0.328207 0.010031 0.232721
H118  H     H_    0.406367 0.276810 0.068695 0.198687
H119  H     H_    0.437395 0.321746 0.070555 0.200530
C159  C     C_3   0.296088 0.579013 0.006469 -0.380614
C160  C     C_3   0.314139 0.586611 0.065206 -0.815558
H120  H     H_    0.289261 0.585975 0.097574 0.248028
H121  H     H_    0.337659 0.562897 0.076149 0.258032
H122  H     H_    0.329350 0.617480 0.066287 0.232739
H123  H     H_    0.321491 0.578695 0.974767 0.197782
H124  H     H_    0.276878 0.606235 0.995655 0.198640
C161  C     C_3   0.425575 0.703991 0.963993 -0.371405
C162  C     C_3   0.402532 0.686616 0.015281 -0.829475
H125  H     H_    0.421398 0.663082 0.037657 0.256045
H126  H     H_    0.394693 0.711820 0.045285 0.248252
H127  H     H_    0.373338 0.671580 0.001272 0.233209
H128  H     H_    0.403321 0.723113 0.939947 0.198633
H129  H     H_    0.434233 0.678231 0.935207 0.199803
C163  C     C_3   0.296028 0.421194 0.009471 -0.379240
C164  C     C_3   0.314052 0.414749 0.068487 -0.815923
H130  H     H_    0.337579 0.438674 0.078543 0.258304
H131  H     H_    0.289162 0.416011 0.100801 0.247686
H132  H     H_    0.329246 0.383916 0.070752 0.230513
H133  H     H_    0.276801 0.393773 0.999685 0.198858
H134  H     H_    0.321441 0.420891 0.977784 0.198188
C165  C     C_3   0.572599 0.296050 0.957487 -0.373480
C166  C     C_3   0.597972 0.313292 0.006652 -0.825769
H135  H     H_    0.580185 0.336787 0.030705 0.255167
H136  H     H_    0.607140 0.288012 0.035844 0.248142
H137  H     H_    0.626483 0.328334 0.990137 0.232748
H138  H     H_    0.593682 0.276970 0.931456 0.198721
H139  H     H_    0.562643 0.321879 0.929596 0.200554
C167  C     C_3   0.703977 0.578999 0.993626 -0.380528
C168  C     C_3   0.685932 0.586697 0.934899 -0.815538
H140  H     H_    0.710811 0.586113 0.902530 0.248019
H141  H     H_    0.662394 0.563005 0.923925 0.258020
H142  H     H_    0.670746 0.617570 0.933856 0.232741
H143  H     H_    0.678574 0.578633 0.025328 0.197829
H144  H     H_    0.723210 0.606199 0.004473 0.198699

loop_
_geom_bond_atom_site_label_1
_geom_bond_atom_site_label_2
_ccdc_geom_bond_type
C133  H51   S    
C87   C165  S    
C82   C94   A    
C101  C113  A    
C108  C120  A    
C141  C142  S    
C105  N13   S    
C42   C58   S    
C153  C154  S    
C77   C89   A    
C2    O2    A    
C46   C62   S    
C79   C99   A    
C139  C140  S    
C98   C114  A    
C145  H88   S    
C128  H32   S    
C62   C70   T    
Cu12  O29   S    
C21   C117  S    
C4    C28   S    
Cu4   O36   S    
C37   C56   S    
N8    H29   S    
Cu2   O38   S    
C18   C26   T    
C107  N15   S    
C125  H20   S    
C46   O42   A    
C151  C152  S    
Cu8   O48   S    
Cu6   O42   S    
C166  H137  S    
C123  H12   S    
C73   C101  A    
C139  H74   S    
N4    H13   S    
C106  C118  A    
C75   C103  A    
C163  C164  S    
C126  H23   S    
C24   C120  S    
C150  H97   S    
C155  C156  S    
Cu9   O20   S    
C53   O31   A    
C20   C28   T    
C73   C137  S    
C126  H22   S    
C21   C29   T    
C23   C31   T    
Cu11  O26   S    
C121  H2    S    
C24   C32   T    
N9    H33   S    
C45   O41   A    
C14   C38   T    
C160  H120  S    
Cu4   O40   S    
C40   C55   S    
C146  H85   S    
C2    C26   S    
Cu7   O11   S    
Cu8   O12   S    
C15   C39   T    
Cu7   O13   S    
C165  H139  S    
C6    C30   S    
C63   C71   T    
C143  C144  S    
C168  H140  S    
N13   C133  S    
C22   C118  S    
C49   O23   A    
C86   C108  A    
N14   C134  S    
C165  C166  S    
C112  N10   S    
C56   O32   A    
C17   C25   T    
C74   C90   A    
C11   C35   T    
Cu12  O31   S    
C140  H71   S    
C163  H134  S    
C102  N4    S    
C47   C63   S    
C154  H107  S    
C38   C53   S    
C159  H124  S    
C142  H76   S    
C158  H115  S    
Cu6   O46   S    
C129  H36   S    
Cu1   Cu3   S    
C73   C89   A    
C123  H10   S    
C11   C91   S    
C152  H100  S    
C87   C107  A    
N3    H9    S    
Cu5   Cu7   S    
Cu10  O24   S    
N16   H61   S    
C110  N12   S    
C86   C163  S    
C137  H68   S    
C47   O45   A    
C136  H64   S    
C48   O46   A    
C17   C113  S    
C165  H138  S    
C33   C52   S    
C132  H46   S    
C45   O43   A    
C23   C119  S    
N13   H49   S    
C135  H60   S    
C85   C161  S    
C148  H91   S    
C39   C54   S    
C54   O26   A    
C162  H125  S    
C153  H109  S    
C20   C116  S    
C88   C106  A    
C147  C148  S    
C111  C119  A    
N11   H41   S    
C122  H7    S    
Cu2   O2    S    
C59   C67   T    
C157  H118  S    
C85   C93   A    
Cu5   O9    S    
C87   C95   A    
C77   C97   A    
C19   C115  S    
C79   C91   A    
C43   C59   S    
C84   C159  S    
C106  N16   S    
C111  N11   S    
C137  C138  S    
C124  H15   S    
C1    O1    A    
C166  H136  S    
C136  H62   S    
C7    O15   A    
C156  H111  S    
C76   C102  A    
C88   C94   A    
C16   C96   S    
C5    O13   A    
C55   O29   A    
C10   C34   T    
C121  H4    S    
C152  H101  S    
C43   O39   A    
C154  H105  S    
C79   C149  S    
C78   C92   A    
N7    H25   S    
C158  H117  S    
C54   O30   A    
Cu3   O3    S    
C150  H96   S    
Cu9   O17   S    
C131  H44   S    
Cu10  O22   S    
Cu11  O27   S    
N15   C135  S    
C60   C68   T    
C160  H121  S    
C78   C147  S    
C151  H104  S    
C147  H94   S    
C3    O7    A    
C155  H113  S    
Cu2   Cu4   S    
C48   O48   A    
C1    O5    A    
C74   C104  A    
Cu9   Cu10  S    
C51   O21   A    
C132  H48   S    
C88   C167  S    
C22   C30   T    
Cu1   O39   S    
C12   C92   S    
C8    O14   A    
C134  H56   S    
C135  H58   S    
N8    C128  S    
C65   C72   S    
Cu1   O33   S    
Cu3   O5    S    
C100  N6    S    
C67   C70   S    
C80   C151  S    
C164  H132  S    
C3    C27   S    
C168  H142  S    
C127  H28   S    
C167  H143  S    
C55   O27   A    
C136  H63   S    
C138  H66   S    
C143  H83   S    
C101  N1    S    
Cu12  O30   S    
C74   C139  S    
C159  C160  S    
C130  H40   S    
C125  H19   S    
C138  H65   S    
C108  N14   S    
C133  H50   S    
C164  H131  S    
C167  C168  S    
C100  C116  A    
C161  H128  S    
C43   O37   A    
C109  C117  A    
N1    H1    S    
C6    O16   A    
Cu9   O19   S    
C15   C95   S    
C48   C64   S    
C131  H42   S    
Cu11  O25   S    
C109  N9    S    
C77   C145  S    
C149  H99   S    
C68   C69   S    
C34   C49   S    
C138  H67   S    
C146  H86   S    
N10   H37   S    
C6    O10   A    
C4    O4    A    
N1    C121  S    
C133  H52   S    
C51   O19   A    
C9    C33   T    
C105  C117  A    
C107  C119  A    
C42   O36   A    
N12   C132  S    
Cu7   O43   S    
Cu8   O44   S    
C146  H87   S    
Cu4   O4    S    
C125  H18   S    
Cu7   O45   S    
Cu2   O6    S    
Cu5   O15   S    
C9    C89   S    
C157  C158  S    
Cu8   O16   S    
C145  H89   S    
Cu6   O10   S    
C13   C93   S    
C82   C112  A    
C103  C115  A    
C144  H80   S    
Cu12  O32   S    
C140  H70   S    
C66   C71   S    
C52   O20   A    
C158  H116  S    
C129  H35   S    
C86   C96   A    
C81   C109  A    
C139  H73   S    
C78   C100  A    
C83   C111  A    
C52   O24   A    
Cu11  Cu12  S    
C127  H26   S    
C126  H24   S    
C149  H98   S    
C80   C98   A    
Cu4   O8    S    
C57   C65   T    
C141  H78   S    
C41   C57   S    
N2    H5    S    
N9    C129  S    
C76   C143  S    
C135  H59   S    
Cu1   O7    S    
C148  H90   S    
C134  H54   S    
C162  H126  S    
C153  H108  S    
C44   C60   S    
C99   C115  A    
C45   C61   S    
C3    O3    A    
C122  H6    S    
C4    O6    A    
C149  C150  S    
C10   C90   S    
C81   C153  S    
C145  C146  S    
N4    C124  S    
C103  N3    S    
C97   N5    S    
C5    O9    A    
C14   C94   S    
C42   O34   A    
C162  H127  S    
Cu2   O34   S    
C124  H14   S    
Cu5   O41   S    
C18   C114  S    
C44   O40   A    
Cu6   O14   S    
N5    H17   S    
C142  H75   S    
C140  H72   S    
C82   C155  S    
C121  H3    S    
C163  H133  S    
C154  H106  S    
C159  H123  S    
C84   C96   A    
C47   O47   A    
C128  H31   S    
C58   C66   T    
N6    H21   S    
N3    C123  S    
C41   O33   A    
Cu10  O23   S    
C12   C36   T    
C83   C157  S    
N15   H57   S    
C13   C37   T    
Cu3   O35   S    
C161  H129  S    
C1    C25   S    
N10   C130  S    
C155  H114  S    
C85   C105  A    
C144  H82   S    
C5    C29   S    
Cu1   O1    S    
C132  H47   S    
C7    C31   S    
C8    C32   S    
C99   N7    S    
C75   C141  S    
C110  C120  A    
C134  H55   S    
C148  H92   S    
C131  H43   S    
C84   C110  A    
N11   C131  S    
C122  H8    S    
C168  H141  S    
C127  H27   S    
C81   C93   A    
C50   O18   A    
Cu5   O47   S    
C167  H144  S    
C137  H69   S    
C83   C95   A    
C98   N8    S    
C35   C50   S    
C128  H30   S    
C8    O12   A    
C143  H84   S    
C157  H119  S    
Cu6   Cu8   S    
C144  H81   S    
Cu3   O37   S    
C36   C51   S    
C76   C92   A    
C104  C114  A    
N6    C126  S    
C16   C40   T    
C130  H39   S    
C124  H16   S    
C46   O44   A    
C97   C113  A    
N14   H53   S    
C129  H34   S    
C19   C27   T    
C166  H135  S    
C164  H130  S    
C156  H112  S    
C61   C69   T    
N16   C136  S    
C104  N2    S    
C142  H77   S    
C7    O11   A    
C152  H102  S    
N12   H45   S    
C75   C91   A    
N7    C127  S    
C161  C162  S    
C53   O25   A    
C49   O17   A    
C2    O8    A    
C150  H95   S    
Cu9   O18   S    
C56   O28   A    
C112  C118  A    
C50   O22   A    
C41   O35   A    
Cu10  O21   S    
C64   C72   T    
C80   C90   A    
Cu11  O28   S    
C141  H79   S    
C44   O38   A    
N2    C122  S    
C102  C116  A    
C160  H122  S    
C151  H103  S    
C156  H110  S    
C147  H93   S    
C123  H11   S    
C130  H38   S    
N5    C125  S    
