data_mof_unit_44693.cif
_audit_creation_date              2012-12-10T20:08:49-0500
_audit_creation_method            fapswitch 2.2
_symmetry_space_group_name_H-M    P1
_symmetry_Int_Tables_number       1
_space_group_crystal_system       triclinic
_cell_length_a                    19.343972
_cell_length_b                    18.545655
_cell_length_c                    14.902249
_cell_angle_alpha                 89.999011
_cell_angle_beta                  90.192024
_cell_angle_gamma                 89.999519
_cell_volume                      5346.10159826

loop_
_atom_site_label
_atom_site_type_symbol
_atom_type_description
_atom_site_fract_x
_atom_site_fract_y
_atom_site_fract_z
_atom_type_partial_charge
C1    C     C_R   0.365759 0.499981 0.499810 1.084896
C2    C     C_R   0.182276 0.521646 0.420875 0.361474
C3    C     C_R   0.181884 0.475707 0.574056 0.361426
C4    C     C_R   0.817737 0.521312 0.579209 0.363333
C5    C     C_R   0.853472 0.498313 0.502907 -0.019860
C6    C     C_R   0.146553 0.498287 0.496979 -0.016652
C7    C     C_R   0.709569 0.499817 0.500912 -0.342046
C8    C     C_R   0.290430 0.499799 0.499086 -0.339894
C9    C     C_R   0.964211 0.564043 0.502250 0.506371
C10   C     C_R   0.035824 0.432720 0.497826 0.504920
C11   C     C_R   0.035873 0.564046 0.499178 0.507487
C12   C     C_R   0.634240 0.499984 0.500218 1.084967
C13   C     C_R   0.964195 0.432714 0.500550 0.505978
C14   C     C_R   0.071533 0.498380 0.497007 -0.275065
C15   C     C_R   0.928505 0.498370 0.502861 -0.279472
C16   C     C_R   0.537667 0.726033 0.562355 0.485494
C17   C     C_R   0.537624 0.273967 0.437931 0.485053
C18   C     C_R   0.462382 0.726047 0.437605 0.485254
C19   C     C_R   0.462400 0.273953 0.562080 0.484941
C20   C     C_R   0.540785 0.801665 0.561362 0.498305
C21   C     C_R   0.540747 0.198336 0.438948 0.497784
C22   C     C_R   0.459277 0.801678 0.438604 0.498234
C23   C     C_R   0.373501 0.492343 0.045567 0.398241
C24   C     C_R   0.459301 0.198320 0.561061 0.497596
C25   C     C_R   0.500029 0.841310 0.499990 -0.175059
C26   C     C_R   0.500028 0.158689 0.500002 -0.174502
C27   C     C_R   0.500123 0.500011 0.327081 1.065646
C28   C     C_R   0.499808 0.500008 0.672917 1.065618
C29   C     C_R   0.501560 0.962166 0.418947 0.544862
C30   C     C_R   0.501605 0.037835 0.581056 0.544731
C31   C     C_R   0.498524 0.962159 0.581041 0.544795
C32   C     C_R   0.498478 0.037842 0.418938 0.544642
C33   C     C_R   0.500038 0.077266 0.499999 -0.230691
C34   C     C_R   0.626421 0.492822 0.954429 0.397590
C35   C     C_R   0.500038 0.922734 0.499992 -0.230843
C36   C     C_R   0.562198 0.492662 0.813153 0.512442
C37   C     C_R   0.437709 0.492476 0.186851 0.513317
C38   C     C_R   0.499762 0.500051 0.768139 -0.301832
C39   C     C_R   0.500132 0.500063 0.231857 -0.302027
C40   C     C_R   0.437344 0.507505 0.812716 0.514425
C41   C     C_R   0.562519 0.507743 0.187269 0.513691
C42   C     C_R   0.436223 0.505351 0.906135 -0.157504
C43   C     C_R   0.563643 0.505598 0.093852 -0.157673
C44   C     C_R   0.499888 0.500197 0.953167 -0.133737
C45   C     C_R   0.745672 0.471409 0.427028 0.260779
C46   C     C_R   0.499997 0.500203 0.046826 -0.133717
C47   C     C_R   0.563438 0.494815 0.906549 -0.159407
C48   C     C_R   0.436468 0.494598 0.093449 -0.159575
C49   C     C_R   0.373288 0.506655 0.953625 0.398308
C50   C     C_R   0.626572 0.507154 0.046358 0.397841
C51   C     C_3   0.295994 0.589495 0.899653 0.191559
C52   C     C_3   0.263099 0.621113 0.984509 -0.429180
C53   C     C_3   0.233161 0.695930 0.967224 -0.911564
C54   C     C_3   0.703313 0.590445 0.100540 0.194163
C55   C     C_3   0.736138 0.622428 0.015860 -0.430577
C56   C     C_R   0.254559 0.527705 0.424333 0.264727
C57   C     C_3   0.765041 0.697676 0.033228 -0.911105
C58   C     C_3   0.299387 0.406908 0.099960 0.196968
C59   C     C_3   0.267286 0.373313 0.015487 -0.430262
C60   C     C_3   0.242160 0.296658 0.033047 -0.910257
C61   C     C_3   0.700791 0.407741 0.899726 0.199552
C62   C     C_3   0.733262 0.374092 0.983906 -0.430179
C63   C     C_3   0.757256 0.297016 0.966493 -0.911615
C64   C     C_3   0.719717 0.373627 0.338931 0.205217
C65   C     C_3   0.693049 0.353552 0.245608 -0.278529
C66   C     C_3   0.702817 0.273473 0.226048 -0.849451
C67   C     C_R   0.254306 0.471090 0.572794 0.260165
C68   C     C_3   0.280317 0.626241 0.337761 0.209534
C69   C     C_3   0.306109 0.646823 0.244429 -0.278578
C70   C     C_3   0.295504 0.726849 0.225212 -0.850476
C71   C     C_3   0.280168 0.373096 0.660661 0.203908
C72   C     C_3   0.306624 0.352914 0.754060 -0.278721
C73   C     C_3   0.296881 0.272796 0.773392 -0.848900
C74   C     C_3   0.719761 0.625860 0.662502 0.209742
C75   C     C_3   0.693659 0.646505 0.755664 -0.277743
C76   C     C_3   0.704259 0.726535 0.774869 -0.850653
C77   C     C_3   0.858914 0.512836 0.290189 0.095991
C78   C     C_R   0.745473 0.527450 0.575782 0.265509
C79   C     C_3   0.904925 0.490537 0.211898 -0.322846
C80   C     C_3   0.914254 0.551818 0.144774 -0.968939
C81   C     C_3   0.139369 0.484882 0.285851 0.114467
C82   C     C_3   0.112926 0.513099 0.195661 -0.325825
C83   C     C_3   0.095471 0.451710 0.131308 -0.958937
C84   C     C_3   0.141954 0.511314 0.710543 0.093973
C85   C     C_3   0.092379 0.490462 0.785700 -0.324708
C86   C     C_3   0.085274 0.550493 0.855001 -0.969401
C87   C     C_3   0.861543 0.483213 0.713226 0.118635
C88   C     C_3   0.885285 0.510752 0.804995 -0.327887
C89   C     C_R   0.818072 0.476110 0.425680 0.362234
C90   C     C_3   0.904385 0.448889 0.867865 -0.959740
F1    F     F_    0.621124 0.485473 0.764725 -0.635477
F2    F     F_    0.070527 0.369089 0.495562 -0.596537
F3    F     F_    0.070646 0.627660 0.499440 -0.597679
F4    F     F_    0.929478 0.369067 0.501440 -0.595881
F5    F     F_    0.572229 0.689120 0.626343 -0.638075
F6    F     F_    0.572125 0.310885 0.374199 -0.638429
F7    F     F_    0.427918 0.689152 0.373514 -0.637943
F8    F     F_    0.427921 0.310858 0.625843 -0.638231
F9    F     F_    0.584764 0.835342 0.618781 -0.571443
F10   F     F_    0.584691 0.164655 0.381869 -0.571893
F11   F     F_    0.415327 0.835369 0.381157 -0.571529
F12   F     F_    0.378791 0.485160 0.235281 -0.635312
F13   F     F_    0.415377 0.164621 0.618149 -0.572172
F14   F     F_    0.507414 0.927791 0.338922 -0.530640
F15   F     F_    0.507500 0.072210 0.661127 -0.530921
F16   F     F_    0.492678 0.927776 0.661064 -0.530657
F17   F     F_    0.492586 0.072224 0.338870 -0.530955
F18   F     F_    0.378362 0.514776 0.763886 -0.636975
F19   F     F_    0.621478 0.515215 0.236095 -0.636829
F20   F     F_    0.929482 0.627675 0.503431 -0.597265
H1    H     H_    0.258870 0.594928 0.843142 0.172047
H2    H     H_    0.778483 0.586775 0.992112 0.255493
H3    H     H_    0.696300 0.626325 0.962350 0.231751
H4    H     H_    0.723232 0.734455 0.055763 0.283000
H5    H     H_    0.787583 0.719397 0.970352 0.278145
H6    H     H_    0.806229 0.695598 0.085281 0.270401
H7    H     H_    0.262896 0.400460 0.156685 0.174262
H8    H     H_    0.347141 0.376878 0.119468 0.145898
H9    H     H_    0.223121 0.406803 0.992060 0.259169
H10   H     H_    0.306694 0.371441 0.961604 0.232635
H11   H     H_    0.285988 0.261971 0.054600 0.283290
H12   H     H_    0.342506 0.621531 0.880445 0.148036
H13   H     H_    0.219602 0.273974 0.970518 0.278826
H14   H     H_    0.201813 0.296480 0.085893 0.268725
H15   H     H_    0.737149 0.401538 0.842815 0.175128
H16   H     H_    0.653074 0.377577 0.880375 0.145703
H17   H     H_    0.778029 0.407126 0.006393 0.258662
H18   H     H_    0.694341 0.372933 0.038393 0.233300
H19   H     H_    0.712741 0.262778 0.946253 0.283240
H20   H     H_    0.780361 0.274405 0.028729 0.279073
H21   H     H_    0.796870 0.295957 0.912747 0.268331
H22   H     H_    0.691377 0.343066 0.391224 0.193045
H23   H     H_    0.221299 0.584920 0.008606 0.255958
H24   H     H_    0.774874 0.357183 0.342873 0.171923
H25   H     H_    0.637332 0.367347 0.239796 0.287785
H26   H     H_    0.721820 0.385436 0.194853 0.236345
H27   H     H_    0.758640 0.259441 0.227020 0.255644
H28   H     H_    0.681531 0.260763 0.158594 0.270487
H29   H     H_    0.675270 0.240363 0.276636 0.339899
H30   H     H_    0.308954 0.656696 0.390103 0.191859
H31   H     H_    0.225125 0.642450 0.342207 0.170456
H32   H     H_    0.361892 0.633536 0.238316 0.287642
H33   H     H_    0.277222 0.614802 0.193693 0.232316
H34   H     H_    0.303100 0.625603 0.037746 0.231433
H35   H     H_    0.239596 0.740431 0.226893 0.255573
H36   H     H_    0.315837 0.739836 0.157520 0.270793
H37   H     H_    0.323440 0.760078 0.275566 0.339355
H38   H     H_    0.308593 0.342566 0.608423 0.193561
H39   H     H_    0.225016 0.356682 0.656493 0.171586
H40   H     H_    0.362315 0.366756 0.760135 0.288217
H41   H     H_    0.277713 0.384689 0.804794 0.235995
H42   H     H_    0.241071 0.258718 0.772190 0.255522
H43   H     H_    0.318042 0.259991 0.840884 0.270439
H44   H     H_    0.324557 0.239792 0.722819 0.339890
H45   H     H_    0.274367 0.733234 0.944166 0.282878
H46   H     H_    0.691311 0.656335 0.609993 0.191266
H47   H     H_    0.774997 0.641986 0.658395 0.170704
H48   H     H_    0.637845 0.633279 0.761461 0.287877
H49   H     H_    0.722341 0.614489 0.806598 0.232729
H50   H     H_    0.760189 0.740050 0.773606 0.255691
H51   H     H_    0.683623 0.739599 0.842381 0.270866
H52   H     H_    0.676593 0.759762 0.724262 0.339353
H53   H     H_    0.881999 0.561254 0.323068 0.161852
H54   H     H_    0.806626 0.526469 0.263862 0.188970
H55   H     H_    0.956346 0.474351 0.238467 0.232994
H56   H     H_    0.210721 0.717454 0.030268 0.277746
H57   H     H_    0.881575 0.443409 0.177024 0.235779
H58   H     H_    0.863658 0.567290 0.115431 0.273206
H59   H     H_    0.948809 0.533949 0.089751 0.268174
H60   H     H_    0.937857 0.599457 0.178068 0.277519
H61   H     H_    0.101545 0.445441 0.313300 0.159512
H62   H     H_    0.189814 0.457273 0.274464 0.169434
H63   H     H_    0.065871 0.546284 0.206504 0.241806
H64   H     H_    0.153126 0.547988 0.164868 0.234988
H65   H     H_    0.141507 0.417485 0.119852 0.272086
H66   H     H_    0.078181 0.474259 0.065968 0.267991
H67   H     H_    0.191691 0.693179 0.915593 0.270898
H68   H     H_    0.053384 0.417767 0.159052 0.270878
H69   H     H_    0.122513 0.561654 0.678110 0.162275
H70   H     H_    0.194056 0.521274 0.739814 0.193015
H71   H     H_    0.040799 0.478832 0.756089 0.231616
H72   H     H_    0.111498 0.440851 0.819543 0.236585
H73   H     H_    0.135919 0.561307 0.887340 0.273341
H74   H     H_    0.048017 0.533818 0.907578 0.268763
H75   H     H_    0.065933 0.600620 0.822767 0.278874
H76   H     H_    0.901270 0.445846 0.685862 0.157912
H77   H     H_    0.811998 0.453326 0.722345 0.164546
H78   H     H_    0.740293 0.596048 0.157179 0.171985
H79   H     H_    0.931000 0.546373 0.796610 0.242338
H80   H     H_    0.843084 0.543015 0.835706 0.236862
H81   H     H_    0.859932 0.411906 0.876284 0.271470
H82   H     H_    0.919049 0.470784 0.934604 0.267595
H83   H     H_    0.948743 0.417963 0.840641 0.271276
H84   H     H_    0.656562 0.622128 0.119683 0.147591
N1    N     N_R   0.500000 0.689440 0.500000 -0.249779
N2    N     N_R   0.500000 0.310560 0.500000 -0.249673
O1    O     O_R   0.398180 0.560840 0.499980 -0.601761
O2    O     O_3   0.689442 0.515893 0.089743 -0.606946
O3    O     O_3   0.310893 0.481817 0.088407 -0.605518
O4    O     O_3   0.689084 0.482585 0.911601 -0.605908
O5    O     O_3   0.709717 0.448429 0.351874 -0.570055
O6    O     O_3   0.290814 0.551442 0.350139 -0.564921
O7    O     O_3   0.290269 0.447899 0.647852 -0.571255
O8    O     O_3   0.709280 0.551061 0.650082 -0.563592
O9    O     O_3   0.854947 0.454685 0.350887 -0.618341
O10   O     O_3   0.146238 0.543655 0.345314 -0.618541
O11   O     O_3   0.144802 0.453976 0.648544 -0.619778
O12   O     O_R   0.601820 0.439160 0.500020 -0.601076
O13   O     O_3   0.853651 0.542749 0.655129 -0.617317
O14   O     O_R   0.601820 0.560840 0.500020 -0.601497
O15   O     O_R   0.398180 0.439160 0.499980 -0.600896
O16   O     O_R   0.499980 0.560820 0.367840 -0.571700
O17   O     O_R   0.500020 0.439180 0.632160 -0.572391
O18   O     O_R   0.500020 0.560820 0.632160 -0.572132
O19   O     O_R   0.499980 0.439180 0.367840 -0.572654
O20   O     O_3   0.310384 0.515027 0.910209 -0.608221
Zn1   Zn    Zn3+2 0.500000 0.581210 0.500000 1.093067
Zn2   Zn    Zn3+2 0.500000 0.418790 0.500000 1.092489

loop_
_geom_bond_atom_site_label_1
_geom_bond_atom_site_label_2
_ccdc_geom_bond_type
C51   O20   S    
C77   H53   S    
C86   H74   S    
C87   C88   S    
C85   H72   S    
C54   H84   S    
C83   H65   S    
C55   H2    S    
C1    O15   A    
C1    C8    S    
C87   O13   S    
C76   H52   S    
C80   H60   S    
C64   O5    S    
C3    C6    A    
C8    C56   A    
C81   C82   S    
C50   O2    S    
C39   C41   A    
C90   H82   S    
C85   C86   S    
C71   O7    S    
C90   H83   S    
C49   O20   S    
C52   H34   S    
O14   Zn1   S    
C7    C45   A    
C38   C40   A    
C24   C26   A    
C29   C32   A    
C69   C70   S    
C30   C31   A    
C11   C14   A    
C23   C49   A    
C56   O6    S    
C20   C25   A    
C23   O3    S    
C58   H8    S    
C36   C47   A    
C84   H70   S    
C81   H62   S    
C62   H17   S    
C60   H14   S    
C71   H39   S    
C19   F8    S    
C89   O9    S    
C66   H29   S    
C82   H64   S    
C27   C39   S    
C68   C69   S    
C22   C25   A    
C73   H44   S    
C59   H9    S    
C61   H16   S    
C70   H36   S    
C18   F7    S    
C63   H21   S    
C87   H76   S    
C45   C89   A    
C83   H68   S    
C44   C47   A    
C40   F18   S    
C11   F3    S    
C77   H54   S    
C40   C42   A    
C71   H38   S    
C10   F2    S    
C59   C60   S    
C54   H78   S    
C83   H66   S    
C27   O19   A    
C52   H23   S    
C41   C43   A    
C79   H57   S    
C60   H11   S    
C76   H51   S    
C2    C6    A    
C42   C44   A    
C80   H59   S    
O1    Zn1   S    
C61   O4    S    
C21   C26   A    
C44   C46   A    
C57   H6    S    
C64   H24   S    
C90   H81   S    
C77   C79   S    
C59   H10   S    
O12   Zn2   S    
C88   H79   S    
C46   C48   A    
C58   O3    S    
C34   C50   A    
C74   C75   S    
C68   O6    S    
C51   C52   S    
C63   H20   S    
C64   H22   S    
C84   C85   S    
C57   H5    S    
C10   C14   A    
O19   Zn2   S    
C17   F6    S    
C21   F10   S    
C4    C5    A    
C87   H77   S    
C55   H3    S    
C69   H32   S    
C10   C13   A    
C58   H7    S    
C17   C21   A    
C4    O13   S    
C29   F14   S    
C84   H69   S    
C88   H80   S    
C75   C76   S    
C4    C78   A    
C62   C63   S    
C77   O9    S    
C6    C14   S    
C26   C33   S    
C66   H28   S    
C82   H63   S    
C28   C38   S    
C16   C20   A    
C72   H41   S    
C74   H46   S    
C68   H31   S    
C70   H35   S    
C79   H55   S    
C37   C48   A    
C9    C11   A    
C65   H25   S    
C25   C35   S    
C7    C78   A    
C2    O10   S    
C36   F1    S    
C45   O5    S    
C88   C90   S    
C53   H45   S    
C22   F11   S    
C55   C57   S    
C73   H42   S    
C86   H73   S    
C31   F16   S    
C31   C35   A    
C7    C12   S    
C68   H30   S    
C61   H15   S    
C34   C47   A    
C12   O12   A    
N1    Zn1   S    
C52   C53   S    
C75   H48   S    
C63   H19   S    
C75   H49   S    
C28   O17   A    
O15   Zn2   S    
C54   C55   S    
C76   H50   S    
C16   F5    S    
C51   H1    S    
C23   C48   A    
C30   C33   A    
C18   N1    A    
C18   C22   A    
C3    C67   A    
C8    C67   A    
C28   O18   A    
C78   O8    S    
C72   C73   S    
C17   N2    A    
O18   Zn1   S    
C53   H67   S    
N2    Zn2   S    
O17   Zn2   S    
C43   C50   A    
C57   H4    S    
C9    F20   S    
C85   H71   S    
C69   H33   S    
C29   C35   A    
C72   H40   S    
C54   O2    S    
C13   F4    S    
C24   F13   S    
C3    O11   S    
C64   C65   S    
C13   C15   A    
C19   C24   A    
C58   C59   S    
C12   O14   A    
C71   C72   S    
C30   F15   S    
C16   N1    A    
C2    C56   A    
C32   C33   A    
C62   H18   S    
C32   F17   S    
C84   O11   S    
C37   F12   S    
C20   F9    S    
C74   O8    S    
C74   H47   S    
C36   C38   A    
C27   O16   A    
C1    O1    A    
C81   H61   S    
C9    C15   A    
C61   C62   S    
C43   C46   A    
C5    C15   S    
C65   H26   S    
C67   O7    S    
C42   C49   A    
C79   C80   S    
C34   O4    S    
C53   H56   S    
C19   N2    A    
C60   H13   S    
C86   H75   S    
C37   C39   A    
C65   C66   S    
O16   Zn1   S    
C73   H43   S    
C51   H12   S    
C66   H27   S    
C41   F19   S    
C70   H37   S    
C82   C83   S    
C80   H58   S    
C5    C89   A    
C81   O10   S    
