data_mof_unit_35048.cif
_audit_creation_date              2012-12-10T18:15:24-0500
_audit_creation_method            fapswitch 2.2
_symmetry_space_group_name_H-M    P1
_symmetry_Int_Tables_number       1
_space_group_crystal_system       triclinic
_cell_length_a                    12.669417
_cell_length_b                    13.620465
_cell_length_c                    24.177942
_cell_angle_alpha                 88.156108
_cell_angle_beta                  100.499067
_cell_angle_gamma                 86.088412
_cell_volume                      4088.58464979

loop_
_atom_site_label
_atom_site_type_symbol
_atom_type_description
_atom_site_fract_x
_atom_site_fract_y
_atom_site_fract_z
_atom_type_partial_charge
C1    C     C_R   0.442317 0.689330 0.493071 0.867405
C2    C     C_R   0.502623 0.410489 0.888448 0.470473
C3    C     C_R   0.521821 0.411266 0.759548 -0.024787
C4    C     C_R   0.500789 0.500326 0.609344 0.855686
C5    C     C_R   0.532327 0.415374 0.703140 -0.258200
C6    C     C_R   0.511416 0.501007 0.670296 -0.047435
C7    C     C_R   0.497525 0.587687 0.695590 -0.218069
C8    C     C_R   0.479656 0.587193 0.752535 -0.088848
C9    C     C_R   0.500179 0.496274 0.789840 0.132447
C10   C     C_R   0.464981 0.593315 0.237396 0.541381
C11   C     C_R   0.468566 0.588346 0.295766 -0.267262
C12   C     C_R   0.452582 0.673379 0.021680 -0.154961
C13   C     C_R   0.502126 0.501989 0.329067 -0.086102
C14   C     C_R   0.514446 0.414391 0.302241 -0.242671
C15   C     C_R   0.495980 0.415844 0.243407 -0.131191
C16   C     C_R   0.558260 0.310652 0.506764 0.863074
C17   C     C_R   0.485269 0.503318 0.208431 0.093862
C18   C     C_R   0.727702 0.071419 0.520356 -0.209649
C19   C     C_R   0.590698 0.205551 0.510666 -0.049893
C20   C     C_R   0.302405 0.827125 0.479250 -0.175356
C21   C     C_R   0.270749 0.926883 0.476139 -0.119360
C22   C     C_R   0.346827 0.995903 0.484805 -0.168415
C23   C     C_R   0.451647 0.674251 0.963978 -0.114482
C24   C     C_R   0.458205 0.966747 0.495387 0.081900
C25   C     C_R   0.491606 0.864694 0.494863 0.101347
C26   C     C_R   0.537678 0.036664 0.503906 0.079176
C27   C     C_R   0.647504 0.004601 0.510016 0.189541
C28   C     C_R   0.501481 0.500108 0.390192 0.872003
C29   C     C_R   0.676304 0.908170 0.500713 -0.294997
C30   C     C_R   0.603044 0.838859 0.495863 -0.190642
C31   C     C_R   0.511473 0.138421 0.503578 -0.250330
C32   C     C_R   0.699154 0.171777 0.520908 -0.200088
C33   C     C_R   0.412067 0.794862 0.488859 -0.117961
C34   C     C_R   0.475712 0.586370 0.937951 -0.010222
C35   C     C_R   0.075755 0.349971 0.417788 -0.098770
C36   C     C_R   0.808699 0.624021 0.568158 -0.280662
C37   C     C_R   0.918135 0.646011 0.582545 0.410651
C38   C     C_R   0.996168 0.591909 0.558769 0.416907
C39   C     C_R   0.962367 0.523315 0.515486 -0.196817
C40   C     C_R   0.517722 0.411915 0.120499 0.547186
C41   C     C_R   0.850979 0.505335 0.503594 0.165960
C42   C     C_R   0.034801 0.472115 0.484277 0.043332
C43   C     C_R   0.999521 0.399530 0.446254 0.091029
C44   C     C_R   0.889748 0.383248 0.436724 -0.297729
C45   C     C_R   0.502461 0.500030 0.971294 -0.020990
C46   C     C_R   0.818307 0.435018 0.464024 -0.125520
C47   C     C_R   0.141960 0.499421 0.486305 -0.127068
C48   C     C_R   0.187735 0.373300 0.431982 0.012869
C49   C     C_R   0.459349 0.578951 0.110058 0.467338
C50   C     C_R   0.479941 0.585490 0.055030 -0.029478
C51   C     C_R   0.505749 0.499583 0.029838 -0.009732
C52   C     C_R   0.525448 0.411735 0.062621 -0.014047
C53   C     C_2   0.038048 0.275247 0.375031 0.387548
C54   C     C_3   0.180957 0.539367 0.596672 0.033715
C55   C     C_3   0.202322 0.529034 0.658407 -0.369359
C56   C     C_R   0.525254 0.413205 0.946608 0.000316
C57   C     C_3   0.281162 0.440123 0.678728 -0.861706
C58   C     C_3   0.883730 0.767248 0.650010 0.085717
C59   C     C_3   0.834409 0.861246 0.616829 -0.398166
C60   C     C_3   0.744219 0.912089 0.642766 -0.864683
C61   C     C_2   0.544503 0.315053 0.783735 0.523501
C62   C     C_2   0.383227 0.654586 0.751081 0.300450
C63   C     C_3   0.527046 0.720714 0.189539 0.164881
C64   C     C_3   0.607198 0.779827 0.225312 -0.444498
C65   C     C_3   0.684544 0.817845 0.188465 -0.891996
C66   C     C_R   0.552662 0.325544 0.979850 -0.139354
C67   C     C_R   0.550197 0.324385 0.036722 -0.143972
C68   C     C_R   0.491274 0.585255 0.881811 0.545002
H1    H     H_    0.430667 0.741828 0.040015 0.174708
H2    H     H_    0.314515 0.071420 0.481993 0.137264
H3    H     H_    0.186122 0.951190 0.467626 0.152719
H4    H     H_    0.431759 0.743776 0.940113 0.198109
H5    H     H_    0.641970 0.771093 0.484969 0.202077
H6    H     H_    0.246499 0.335058 0.411282 0.170653
H7    H     H_    0.854589 0.330921 0.407885 0.136214
H8    H     H_    0.162274 0.570417 0.497840 0.189244
H9    H     H_    0.747653 0.660406 0.587180 0.176804
H10   H     H_    0.737575 0.416922 0.453403 0.214928
H11   H     H_    0.572497 0.256128 0.961901 0.190526
H12   H     H_    0.448230 0.655342 0.315837 0.165319
H13   H     H_    0.567099 0.254387 0.060108 0.197463
H14   H     H_    0.549831 0.347708 0.683166 0.160233
H15   H     H_    0.476628 0.653655 0.668677 0.142303
H16   H     H_    0.955719 0.255103 0.365362 0.072918
H17   H     H_    0.256466 0.561652 0.584789 0.220387
H18   H     H_    0.159311 0.464942 0.583230 0.160574
H19   H     H_    0.230998 0.598996 0.675290 0.249368
H20   H     H_    0.125484 0.515563 0.671698 0.239330
H21   H     H_    0.239913 0.371049 0.674211 0.263815
H22   H     H_    0.312364 0.446841 0.723842 0.285090
H23   H     H_    0.525212 0.344236 0.326061 0.155013
H24   H     H_    0.344888 0.428511 0.654357 0.280828
H25   H     H_    0.930300 0.792561 0.689373 0.190865
H26   H     H_    0.824280 0.719997 0.663629 0.127689
H27   H     H_    0.895626 0.915398 0.613651 0.231801
H28   H     H_    0.804553 0.834755 0.575433 0.233228
H29   H     H_    0.683337 0.860287 0.649340 0.266861
H30   H     H_    0.704321 0.977061 0.616978 0.274129
H31   H     H_    0.780382 0.940894 0.683447 0.264427
H32   H     H_    0.613828 0.298945 0.815197 0.062800
H33   H     H_    0.460502 0.693036 0.775616 0.336573
H34   H     H_    0.471997 0.348606 0.225076 0.229472
H35   H     H_    0.492486 0.767740 0.151308 0.204719
H36   H     H_    0.579575 0.658586 0.178473 0.103767
H37   H     H_    0.566251 0.842595 0.243292 0.250636
H38   H     H_    0.654028 0.730259 0.259643 0.222531
H39   H     H_    0.726699 0.755388 0.170376 0.260895
H40   H     H_    0.746043 0.859776 0.214070 0.278788
H41   H     H_    0.640304 0.867826 0.153433 0.265124
H42   H     H_    0.761374 0.223158 0.527663 0.170115
H43   H     H_    0.756282 0.888338 0.493510 0.145181
H44   H     H_    0.812192 0.046121 0.526870 0.146535
H45   H     H_    0.429653 0.168237 0.497454 0.162260
H46   H     H_    0.240569 0.775194 0.473692 0.173627
N1    N     N_R   0.492667 0.498566 0.146893 -0.332204
N2    N     N_R   0.495886 0.496499 0.852855 -0.339696
N3    N     N_R   0.222200 0.444670 0.469780 -0.135957
N4    N     N_R   0.776960 0.554790 0.529910 -0.143345
O1    O     O_R   0.366740 0.627150 0.485570 -0.628418
O2    O     O_R   0.410990 0.482290 0.406510 -0.599196
O3    O     O_R   0.589070 0.517660 0.425810 -0.644230
O4    O     O_2   0.532791 0.323074 0.147678 -0.589781
O5    O     O_2   0.099859 0.233128 0.348143 -0.554921
O6    O     O_3   0.102029 0.617816 0.576266 -0.620151
O7    O     O_3   0.958218 0.714863 0.622359 -0.595890
O8    O     O_2   0.483401 0.247811 0.766827 -0.504279
O9    O     O_2   0.381226 0.736617 0.772452 -0.598913
O10   O     O_3   0.440379 0.688725 0.213832 -0.586310
O11   O     O_2   0.380480 0.642518 0.119209 -0.511984
O12   O     O_2   0.521135 0.671064 0.862640 -0.549433
O13   O     O_2   0.472498 0.322024 0.871051 -0.539116
O14   O     O_R   0.544830 0.662520 0.504870 -0.641021
O15   O     O_R   0.410930 0.482340 0.574190 -0.651968
O16   O     O_R   0.589010 0.517710 0.593490 -0.600396
O17   O     O_R   0.455170 0.337480 0.495130 -0.625646
O18   O     O_R   0.633260 0.372850 0.514430 -0.649682
Zn1   Zn    Zn3+2 0.381090 0.476380 0.487110 0.953349
Zn2   Zn    Zn3+2 0.618910 0.523620 0.512890 0.942052

loop_
_geom_bond_atom_site_label_1
_geom_bond_atom_site_label_2
_ccdc_geom_bond_type
C7    H15   S    
C12   H1    S    
O15   Zn1   S    
C57   H24   S    
C35   C53   S    
C60   H31   S    
C19   C31   A    
C1    C33   S    
C64   H37   S    
C39   C41   A    
C66   H11   S    
C12   C23   A    
C26   C27   A    
C29   C30   A    
C32   H42   S    
C21   H3    S    
C53   H16   S    
C21   C22   A    
C36   C37   A    
C58   H25   S    
C18   H44   S    
C47   H8    S    
C60   H30   S    
C36   H9    S    
C62   O9    D    
C40   N1    A    
C27   C29   A    
C45   C51   A    
C10   C17   A    
O14   Zn2   S    
C15   C17   A    
C1    O1    A    
C55   H20   S    
C2    N2    A    
C45   C56   A    
C8    C9    A    
C41   C46   A    
C13   C28   S    
C61   O8    D    
C41   N4    A    
C35   C43   A    
C65   H40   S    
C63   O10   S    
C62   H33   S    
C1    O14   A    
C66   C67   A    
C59   C60   S    
C13   C14   A    
C59   H27   S    
C10   O10   S    
C35   C48   A    
C22   H2    S    
C44   C46   A    
C2    O13   S    
C39   C42   A    
C37   O7    S    
C3    C61   S    
C38   C39   A    
C57   H22   S    
C51   C52   A    
O1    Zn1   S    
C48   H6    S    
C7    C8    A    
C24   C25   A    
C63   H35   S    
C60   H29   S    
C28   O2    A    
C34   C68   A    
C54   H18   S    
C30   H5    S    
C28   O3    A    
C58   C59   S    
C40   C52   A    
C49   O11   S    
O3    Zn2   S    
C44   H7    S    
C46   H10   S    
C43   C44   A    
C37   C38   A    
C3    C9    A    
C11   H12   S    
C47   N3    A    
C23   C34   A    
C19   C32   A    
C50   C51   A    
C34   C45   A    
C68   O12   S    
C65   H41   S    
C48   N3    A    
C52   C67   A    
C57   H21   S    
C68   N2    A    
C20   C33   A    
O18   Zn2   S    
C49   N1    A    
C67   H13   S    
C55   C57   S    
C53   O5    D    
C22   C24   A    
C4    C6    S    
C18   C32   A    
C42   C43   A    
C16   O18   A    
C36   N4    A    
C17   N1    S    
C4    O16   A    
C25   C30   A    
O17   Zn1   S    
C54   O6    S    
C54   C55   S    
C9    N2    S    
C23   H4    S    
C29   H43   S    
N3    Zn1   S    
C18   C27   A    
C24   C26   A    
C63   H36   S    
C3    C5    A    
O16   Zn2   S    
C54   H17   S    
C12   C50   A    
C64   H38   S    
C6    C7    A    
C40   O4    S    
C64   C65   S    
C58   H26   S    
C2    C56   A    
C20   H46   S    
C5    H14   S    
C11   C13   A    
C5    C6    A    
C16   C19   S    
C56   C66   A    
C65   H39   S    
C42   C47   A    
C15   H34   S    
C55   H19   S    
C14   H23   S    
C10   C11   A    
C63   C64   S    
C61   H32   S    
C26   C31   A    
C20   C21   A    
C58   O7    S    
C49   C50   A    
C59   H28   S    
C8    C62   S    
C14   C15   A    
O2    Zn1   S    
N4    Zn2   S    
C16   O17   A    
C31   H45   S    
C38   O6    S    
C25   C33   A    
C4    O15   A    
