data_mof_unit_48334.cif
_audit_creation_date              2012-12-10T18:11:47-0500
_audit_creation_method            fapswitch 2.2
_symmetry_space_group_name_H-M    P1
_symmetry_Int_Tables_number       1
_space_group_crystal_system       triclinic
_cell_length_a                    10.495901
_cell_length_b                    12.619323
_cell_length_c                    13.094679
_cell_angle_alpha                 82.101143
_cell_angle_beta                  90.355676
_cell_angle_gamma                 102.257844
_cell_volume                      1678.31132218

loop_
_atom_site_label
_atom_site_type_symbol
_atom_type_description
_atom_site_fract_x
_atom_site_fract_y
_atom_site_fract_z
_atom_type_partial_charge
C1    C     C_R   0.480488 0.438642 0.691301 0.877571
C2    C     C_R   0.467219 0.447393 0.973870 0.023450
C3    C     C_R   0.432920 0.466243 0.870026 0.080090
C4    C     C_R   0.742213 0.500322 0.500153 0.860145
C5    C     C_R   0.465110 0.529921 0.036137 0.110150
C6    C     C_R   0.407388 0.619798 0.000331 0.175686
C7    C     C_R   0.356668 0.628532 0.901753 -0.257419
C8    C     C_R   0.369746 0.552977 0.836991 -0.179038
C9    C     C_R   0.520233 0.525871 0.133015 -0.259370
C10   C     C_R   0.443344 0.685936 0.165375 -0.205352
C11   C     C_R   0.465384 0.398938 0.801390 -0.190804
C12   C     C_3   0.066783 0.598740 0.518211 -0.139404
C13   C     C_R   0.323647 0.090329 0.343508 -0.317016
C14   C     C_R   0.652223 0.798449 0.631062 0.024091
C15   C     C_R   0.683276 0.902353 0.660205 -0.247343
C16   C     C_R   0.512708 0.561210 0.308736 0.855423
C17   C     C_R   0.625620 0.984338 0.610562 -0.195274
C18   C     C_R   0.536249 0.962382 0.530916 0.013243
C19   C     C_R   0.508179 0.855040 0.504063 0.236226
C20   C     C_R   0.473791 0.042041 0.477165 -0.014273
C21   C     C_R   0.385641 0.012954 0.397660 0.205719
C22   C     C_R   0.360115 0.906991 0.372933 -0.303605
C23   C     C_3   0.964219 0.520394 0.592563 -0.184120
C24   C     C_R   0.420527 0.829295 0.425576 -0.221501
C25   C     C_R   0.495008 0.150165 0.498723 -0.055450
C26   C     C_R   0.349056 0.195732 0.368573 0.011177
C27   C     C_R   0.257844 0.499736 0.499807 0.839126
C28   C     C_3   0.933512 0.401597 0.481662 -0.130515
C29   C     C_3   0.022703 0.421919 0.574204 -0.180083
C30   C     C_3   0.122540 0.500015 0.499813 0.033960
C31   C     C_3   0.036058 0.479961 0.407313 -0.181535
C32   C     C_3   0.977559 0.578430 0.425681 -0.180583
C33   C     C_3   0.444872 0.101944 0.038142 0.085174
C34   C     C_3   0.877677 0.500281 0.500067 0.030481
C35   C     C_3   0.488246 0.997793 0.082442 -0.801919
C36   C     C_R   0.399059 0.698359 0.064733 -0.213197
C37   C     C_R   0.500565 0.597259 0.199885 -0.051827
C38   C     C_R   0.501120 0.300080 0.839425 -0.280310
C39   C     C_R   0.511741 0.270777 0.945020 0.532261
C40   C     C_R   0.501602 0.346638 0.011403 -0.318110
H1    H     H_    0.045838 0.358289 0.634469 0.136031
H2    H     H_    0.696328 0.734169 0.669502 0.140179
H3    H     H_    0.875485 0.320996 0.466802 0.146306
H4    H     H_    0.652967 0.063452 0.636149 0.138918
H5    H     H_    0.751614 0.919291 0.721162 0.152692
H6    H     H_    0.396857 0.749471 0.403129 0.211181
H7    H     H_    0.070080 0.463457 0.332114 0.135043
H8    H     H_    0.954568 0.642140 0.365434 0.135040
H9    H     H_    0.124954 0.679323 0.533007 0.151474
H10   H     H_    0.930335 0.536962 0.667777 0.134799
H11   H     H_    0.426712 0.741664 0.217209 0.148196
H12   H     H_    0.574440 0.464379 0.160670 0.151856
H13   H     H_    0.308998 0.694856 0.874003 0.148035
H14   H     H_    0.353091 0.766147 0.038772 0.136764
H15   H     H_    0.360625 0.079761 0.987336 0.136231
H16   H     H_    0.412801 0.138084 0.103949 0.135235
H17   H     H_    0.570799 0.017278 0.135041 0.263997
H18   H     H_    0.406047 0.940238 0.126727 0.191786
H19   H     H_    0.519564 0.957994 0.019188 0.257546
H20   H     H_    0.524084 0.246803 0.787225 0.173134
H21   H     H_    0.517978 0.323300 0.091939 0.149332
H22   H     H_    0.328251 0.562234 0.761255 0.166336
H23   H     H_    0.302627 0.257069 0.327311 0.134382
H24   H     H_    0.292888 0.883871 0.312617 0.147910
H25   H     H_    0.256629 0.069532 0.282463 0.137315
H26   H     H_    0.560094 0.180108 0.557156 0.124316
N1    N     N_R   0.432930 0.222190 0.444670 -0.100883
N2    N     N_R   0.566370 0.776980 0.554790 -0.131551
O1    O     O_R   0.467970 0.366730 0.627150 -0.614749
O2    O     O_R   0.510820 0.544830 0.662520 -0.616050
O3    O     O_R   0.664630 0.410960 0.482340 -0.625256
O4    O     O_R   0.707470 0.589060 0.517710 -0.617964
O5    O     O_R   0.489180 0.455170 0.337480 -0.614231
O6    O     O_R   0.532030 0.633270 0.372850 -0.632478
O7    O     O_R   0.292530 0.410940 0.482290 -0.614170
O8    O     O_R   0.335370 0.589040 0.517660 -0.650319
O9    O     O_3   0.549640 0.174209 0.981082 -0.607375
Zn1   Zn    Zn3+2 0.471390 0.381080 0.476380 0.933703
Zn2   Zn    Zn3+2 0.528610 0.618920 0.523620 0.921373

loop_
_geom_bond_atom_site_label_1
_geom_bond_atom_site_label_2
_ccdc_geom_bond_type
C33   H15   S    
C1    C11   S    
O8    Zn2   S    
C12   H9    S    
C7    C8    A    
C13   H25   S    
N1    Zn1   S    
C12   C23   S    
C10   C37   A    
C16   O6    A    
C26   N1    A    
C23   C29   S    
C28   C29   S    
O4    Zn2   S    
C5    C6    A    
C7    H13   S    
C20   C25   A    
C35   H19   S    
C18   C19   A    
C25   N1    A    
O5    Zn1   S    
C16   C37   S    
C14   H2    S    
C29   H1    S    
C33   H16   S    
C28   C34   S    
C31   H7    S    
C21   C22   A    
C12   C32   S    
C27   C30   S    
C32   H8    S    
O1    Zn1   S    
C9    H12   S    
C27   O7    A    
C10   H11   S    
C4    C34   S    
C16   O5    A    
C36   H14   S    
C3    C8    A    
C39   C40   A    
C23   H10   S    
C1    O1    A    
C40   H21   S    
C32   C34   S    
C11   C38   A    
C26   H23   S    
C5    C9    A    
C29   C30   S    
C31   C32   S    
C30   C31   S    
C23   C34   S    
C9    C37   A    
C17   C18   A    
C13   C21   A    
C19   N2    A    
C38   H20   S    
O6    Zn2   S    
C35   H18   S    
C22   C24   A    
C13   C26   A    
C2    C5    A    
C15   H5    S    
C27   O8    A    
C39   O9    S    
C4    O4    A    
C15   C17   A    
C12   C30   S    
O2    Zn2   S    
C28   C31   S    
C25   H26   S    
C6    C7    A    
C28   H3    S    
C1    O2    A    
C35   H17   S    
C24   H6    S    
C2    C3    A    
C17   H4    S    
C33   O9    S    
C38   C39   A    
N2    Zn2   S    
C33   C35   S    
C6    C36   A    
C19   C24   A    
C18   C20   A    
O3    Zn1   S    
O7    Zn1   S    
C3    C11   A    
C22   H24   S    
C2    C40   A    
C20   C21   A    
C14   N2    A    
C14   C15   A    
C10   C36   A    
C4    O3    A    
C8    H22   S    
