data_mof_unit_29024.cif
_audit_creation_date              2012-12-10T18:38:07-0500
_audit_creation_method            fapswitch 2.2
_symmetry_space_group_name_H-M    P1
_symmetry_Int_Tables_number       1
_space_group_crystal_system       triclinic
_cell_length_a                    14.96805
_cell_length_b                    15.535623
_cell_length_c                    27.654162
_cell_angle_alpha                 89.988113
_cell_angle_beta                  105.43547
_cell_angle_gamma                 81.949162
_cell_volume                      6132.86699819

loop_
_atom_site_label
_atom_site_type_symbol
_atom_type_description
_atom_site_fract_x
_atom_site_fract_y
_atom_site_fract_z
_atom_type_partial_charge
C1    C     C_R   0.441439 0.662084 0.493637 0.875257
C2    C     C_R   0.434628 0.553892 0.117953 -0.070342
C3    C     C_R   0.505943 0.503162 0.647545 -0.064266
C4    C     C_R   0.494963 0.493023 0.352682 -0.065693
C5    C     C_R   0.442340 0.561059 0.017163 0.019807
C6    C     C_R   0.555716 0.422779 0.982790 0.019537
C7    C     C_R   0.538609 0.415567 0.030624 0.063472
C8    C     C_R   0.459730 0.568455 0.969460 0.063409
C9    C     C_R   0.488135 0.486949 0.048737 0.029717
C10   C     C_R   0.510276 0.497167 0.951316 0.029378
C11   C     C_R   0.378445 0.622609 0.034573 0.178491
C12   C     C_R   0.558543 0.337902 0.507495 0.871821
C13   C     C_R   0.619297 0.361057 0.965230 0.179040
C14   C     C_R   0.382132 0.622363 0.085546 -0.149015
C15   C     C_R   0.615899 0.361796 0.914274 -0.149258
C16   C     C_R   0.501551 0.500767 0.594112 0.879781
C17   C     C_R   0.498607 0.498702 0.405926 0.879846
C18   C     C_R   0.435066 0.647442 0.940662 -0.223505
C19   C     C_R   0.563679 0.336857 0.059708 -0.223316
C20   C     C_R   0.405696 0.754397 0.493970 -0.059769
C21   C     C_R   0.593588 0.245620 0.518127 -0.061102
C22   C     C_R   0.280143 0.875763 0.476004 -0.199564
C23   C     C_R   0.517272 0.501624 0.901384 -0.055834
C24   C     C_R   0.710662 0.128516 0.562283 -0.197761
C25   C     C_R   0.310051 0.786521 0.476822 -0.191717
C26   C     C_R   0.685571 0.215707 0.545970 -0.190804
C27   C     C_R   0.470061 0.811003 0.512564 -0.263041
C28   C     C_R   0.528445 0.188028 0.505619 -0.252731
C29   C     C_R   0.441736 0.900285 0.513119 0.095413
C30   C     C_R   0.549306 0.102998 0.525451 0.096385
C31   C     C_R   0.345667 0.933054 0.492627 0.176587
C32   C     C_R   0.642944 0.072061 0.552526 0.172381
C33   C     C_R   0.507905 0.957967 0.529903 0.069096
C34   C     C_R   0.481749 0.483021 0.098791 -0.056095
C35   C     C_R   0.479677 0.047681 0.517808 0.069690
C36   C     C_R   0.382826 0.079185 0.499167 -0.228324
C37   C     C_R   0.601309 0.928919 0.557982 -0.220423
C38   C     C_R   0.316845 0.022502 0.487731 -0.233653
C39   C     C_R   0.667350 0.985515 0.569646 -0.229856
C40   C     C_R   0.478982 0.577604 0.820388 0.497009
C41   C     C_R   0.521933 0.408360 0.180260 0.496839
C42   C     C_R   0.846926 0.628369 0.581345 0.008611
C43   C     C_R   0.157585 0.360934 0.424433 0.007459
C44   C     C_R   0.755575 0.607934 0.565850 -0.009664
C45   C     C_R   0.477570 0.577114 0.870726 -0.002055
C46   C     C_R   0.247308 0.385357 0.437864 -0.012144
C47   C     C_R   0.792920 0.513647 0.504478 -0.079782
C48   C     C_R   0.206117 0.488560 0.494187 -0.079897
C49   C     C_R   0.886621 0.529342 0.517732 -0.023323
C50   C     C_R   0.114568 0.467581 0.483782 -0.022814
C51   C     C_R   0.912898 0.589191 0.556205 0.120451
C52   C     C_R   0.090203 0.403235 0.447798 0.120540
C53   C     C_R   0.954430 0.487271 0.494265 0.096056
C54   C     C_R   0.047183 0.508523 0.507832 0.096111
C55   C     C_R   0.070039 0.569168 0.545533 -0.229594
C56   C     C_R   0.522270 0.408025 0.129736 -0.002547
C57   C     C_R   0.932874 0.423521 0.458301 -0.229045
C58   C     C_R   0.004856 0.608031 0.569075 -0.218925
C59   C     C_R   0.999007 0.382506 0.435966 -0.219315
C60   C     C_R   0.563448 0.433666 0.831377 0.501762
C61   C     C_R   0.436450 0.551900 0.168770 0.503423
C62   C     C_R   0.588935 0.533808 0.732717 0.150065
C63   C     C_R   0.414451 0.453681 0.268775 0.150001
C64   C     C_R   0.582854 0.531898 0.681466 -0.244052
C65   C     C_R   0.419654 0.460262 0.319750 -0.243700
C66   C     C_R   0.434090 0.476743 0.665078 -0.219447
C67   C     C_R   0.440338 0.650917 0.891421 -0.153100
C68   C     C_R   0.566185 0.518939 0.334435 -0.220973
C69   C     C_R   0.439647 0.478034 0.715967 -0.137317
C70   C     C_R   0.561220 0.513557 0.283684 -0.137202
C71   C     C_R   0.516588 0.505936 0.749771 0.307038
C72   C     C_R   0.485712 0.481699 0.250843 0.306335
C73   C     C_3   0.875231 0.689602 0.624246 -0.433463
C74   C     C_3   0.799632 0.722605 0.650847 -0.371613
C75   C     C_3   0.835982 0.783072 0.692731 -0.859199
C76   C     C_3   0.133020 0.291243 0.386062 -0.438473
C77   C     C_3   0.212069 0.250807 0.363491 -0.369866
C78   C     C_R   0.559263 0.333967 0.109141 -0.152710
C79   C     C_3   0.179160 0.182868 0.325554 -0.848560
C80   C     C_3   0.332179 0.417731 0.234739 -0.419874
C81   C     C_3   0.339557 0.319519 0.244804 -0.340690
C82   C     C_3   0.254805 0.283410 0.212217 -0.866085
C83   C     C_3   0.672902 0.565160 0.768017 -0.422832
C84   C     C_3   0.666512 0.664244 0.762830 -0.340993
C85   C     C_3   0.751163 0.696240 0.798235 -0.869990
C86   C     C_3   0.294624 0.678815 0.000510 -0.934129
C87   C     C_3   0.702769 0.304200 0.999150 -0.933918
C88   C     C_R   0.564290 0.430877 0.882074 -0.069915
H1    H     H_    0.374047 0.454502 0.639615 0.167338
H2    H     H_    0.624387 0.863133 0.572859 0.136039
H3    H     H_    0.028315 0.653430 0.597700 0.144961
H4    H     H_    0.976912 0.334017 0.409071 0.144837
H5    H     H_    0.230853 0.537635 0.519613 0.136333
H6    H     H_    0.765678 0.470741 0.475546 0.137595
H7    H     H_    0.302049 0.356162 0.421812 0.128167
H8    H     H_    0.701994 0.634616 0.583377 0.127596
H9    H     H_    0.138764 0.587576 0.558837 0.139953
H10   H     H_    0.865410 0.401984 0.446805 0.139663
H11   H     H_    0.384161 0.457067 0.729374 0.141683
H12   H     H_    0.625052 0.544096 0.359183 0.166407
H13   H     H_    0.615776 0.534822 0.269587 0.141729
H14   H     H_    0.416042 0.711922 0.869862 0.187690
H15   H     H_    0.584048 0.273237 0.130934 0.187465
H16   H     H_    0.364480 0.439492 0.333574 0.156059
H17   H     H_    0.638588 0.552909 0.668236 0.153313
H18   H     H_    0.337743 0.672639 0.099003 0.195838
H19   H     H_    0.660084 0.311472 0.900719 0.195760
H20   H     H_    0.413065 0.708054 0.955908 0.170881
H21   H     H_    0.585432 0.276046 0.044598 0.170724
H22   H     H_    0.243438 0.048784 0.473106 0.146777
H23   H     H_    0.460766 0.211264 0.480448 0.147238
H24   H     H_    0.738114 0.961006 0.591334 0.148229
H25   H     H_    0.895960 0.747739 0.721887 0.263315
H26   H     H_    0.858560 0.839896 0.677357 0.258633
H27   H     H_    0.779277 0.807216 0.710417 0.254817
H28   H     H_    0.737974 0.759341 0.623531 0.212221
H29   H     H_    0.777650 0.666553 0.667404 0.219827
H30   H     H_    0.936203 0.654770 0.653114 0.211710
H31   H     H_    0.897410 0.746968 0.609101 0.207263
H32   H     H_    0.156405 0.129463 0.343940 0.260512
H33   H     H_    0.120058 0.213133 0.294100 0.261494
H34   H     H_    0.543291 0.784627 0.524170 0.157991
H35   H     H_    0.237689 0.154915 0.310055 0.252337
H36   H     H_    0.235452 0.302377 0.343929 0.218618
H37   H     H_    0.272276 0.218613 0.393816 0.218636
H38   H     H_    0.110222 0.237832 0.404499 0.206096
H39   H     H_    0.073274 0.320711 0.354624 0.212115
H40   H     H_    0.189624 0.314833 0.220724 0.262928
H41   H     H_    0.249267 0.294948 0.171812 0.266788
H42   H     H_    0.262503 0.212266 0.220064 0.253564
H43   H     H_    0.404051 0.285554 0.236602 0.261537
H44   H     H_    0.344013 0.305625 0.284869 0.214516
H45   H     H_    0.737000 0.259781 0.556087 0.160934
H46   H     H_    0.266302 0.451842 0.241379 0.206357
H47   H     H_    0.327652 0.429890 0.194544 0.209226
H48   H     H_    0.755731 0.678417 0.837814 0.267042
H49   H     H_    0.816569 0.667268 0.789063 0.264931
H50   H     H_    0.744110 0.768149 0.794137 0.253018
H51   H     H_    0.663006 0.683902 0.723645 0.217577
H52   H     H_    0.601900 0.696019 0.771826 0.263165
H53   H     H_    0.679015 0.546687 0.807666 0.211579
H54   H     H_    0.737745 0.533078 0.759322 0.205138
H55   H     H_    0.231485 0.676065 0.014069 0.246590
H56   H     H_    0.259001 0.743181 0.462920 0.160060
H57   H     H_    0.306864 0.747670 0.000659 0.240643
H58   H     H_    0.276622 0.655199 0.961760 0.255984
H59   H     H_    0.765858 0.306016 0.985402 0.246280
H60   H     H_    0.721497 0.327944 0.037854 0.255992
H61   H     H_    0.689668 0.235611 0.999115 0.240619
H62   H     H_    0.206333 0.900169 0.461114 0.137648
H63   H     H_    0.782127 0.105758 0.583551 0.138547
H64   H     H_    0.355720 0.147661 0.494321 0.149977
N1    N     N_R   0.519877 0.505812 0.801729 -0.356750
N2    N     N_R   0.481269 0.480477 0.198758 -0.357556
N3    N     N_R   0.731710 0.552720 0.528410 -0.114385
N4    N     N_R   0.268290 0.447280 0.471590 -0.114294
O1    O     O_R   0.383110 0.605620 0.485680 -0.616293
O2    O     O_2   0.562456 0.337859 0.210793 -0.577707
O3    O     O_2   0.393918 0.620511 0.188198 -0.562480
O4    O     O_2   0.605816 0.365204 0.811763 -0.563071
O5    O     O_R   0.616890 0.394380 0.514320 -0.615582
O6    O     O_R   0.531900 0.639510 0.503910 -0.620147
O7    O     O_R   0.468100 0.360490 0.496090 -0.621562
O8    O     O_R   0.425620 0.483050 0.562130 -0.617606
O9    O     O_R   0.574380 0.516950 0.437870 -0.618417
O10   O     O_R   0.574410 0.516930 0.580360 -0.627844
O11   O     O_R   0.425590 0.483070 0.419640 -0.625156
O12   O     O_2   0.439215 0.648636 0.790156 -0.578681
Zn1   Zn    Zn3+2 0.400660 0.477380 0.487830 0.940722
Zn2   Zn    Zn3+2 0.599340 0.522620 0.512170 0.940777

loop_
_geom_bond_atom_site_label_1
_geom_bond_atom_site_label_2
_ccdc_geom_bond_type
C21   C26   A    
C63   C65   A    
C34   C56   A    
C23   C45   A    
C27   C29   A    
C76   H38   S    
C73   C74   S    
C35   C36   A    
C62   C83   S    
C61   N2    A    
C22   H62   S    
C81   C82   S    
C60   C88   A    
C70   H13   S    
C80   H46   S    
C64   H17   S    
C47   C49   A    
C3    C64   A    
C16   O8    A    
C79   H33   S    
C50   C54   A    
C80   H47   S    
C87   H59   S    
C30   C35   A    
C73   H31   S    
C52   C59   A    
C24   C26   A    
C5    C11   A    
C61   O3    S    
C4    C65   A    
C11   C14   A    
C43   C52   A    
C57   C59   A    
C66   C69   A    
C20   C25   A    
C11   C86   S    
C71   N1    S    
C29   C33   A    
N4    Zn1   S    
C43   C76   S    
C56   C78   A    
C32   C39   A    
C15   H19   S    
C69   C71   A    
C60   N1    A    
C62   C64   A    
O1    Zn1   S    
C12   O5    A    
C46   H7    S    
C84   H51   S    
C16   O10   A    
C49   C51   A    
C22   C25   A    
C45   C67   A    
C50   C52   A    
C75   H25   S    
C82   H42   S    
C58   H3    S    
C2    C61   A    
C42   C51   A    
C2    C34   A    
C48   C50   A    
C48   N4    A    
C13   C87   S    
O8    Zn1   S    
C42   C44   A    
C2    C14   A    
C86   H58   S    
C27   H34   S    
C86   H55   S    
C66   H1    S    
C63   C80   S    
C77   C79   S    
C28   H23   S    
C40   C45   A    
C37   C39   A    
C72   N2    S    
C87   H60   S    
C76   C77   S    
O11   Zn1   S    
C17   O11   A    
C4    C68   A    
C53   C57   A    
C36   H64   S    
C81   H44   S    
C18   C67   A    
C53   C54   A    
C79   H35   S    
C12   C21   S    
C33   C37   A    
C19   C78   A    
C24   C32   A    
C41   C56   A    
C5    C9    A    
C44   H8    S    
C24   H63   S    
C42   C73   S    
C83   H54   S    
C83   C84   S    
O6    Zn2   S    
C74   H28   S    
C79   H32   S    
C55   H9    S    
C8    C18   A    
C51   C58   A    
C84   C85   S    
C82   H41   S    
C82   H40   S    
O5    Zn2   S    
C37   H2    S    
C8    C10   A    
C39   H24   S    
C21   C28   A    
C1    O6    A    
O10   Zn2   S    
C7    C19   A    
C23   C88   A    
C13   C15   A    
C9    C34   A    
C40   N1    A    
C25   H56   S    
C38   H22   S    
C4    C17   S    
C86   H57   S    
C85   H49   S    
C77   H37   S    
C83   H53   S    
C41   N2    A    
C78   H15   S    
O9    Zn2   S    
C7    C9    A    
C74   H29   S    
C54   C55   A    
C1    C20   S    
C73   H30   S    
C22   C31   A    
C44   N3    A    
C75   H26   S    
C68   H12   S    
C60   O4    S    
C80   C81   S    
C6    C10   A    
C5    C8    A    
C6    C7    A    
C20   C27   A    
C10   C23   A    
C46   N4    A    
C31   C38   A    
C69   H11   S    
C36   C38   A    
C28   C30   A    
C29   C31   A    
C77   H36   S    
C17   O9    A    
C12   O7    A    
C30   C32   A    
N3    Zn2   S    
C19   H21   S    
C47   N3    A    
C49   C53   A    
C57   H10   S    
C1    O1    A    
C63   C72   A    
C33   C35   A    
C47   H6    S    
C62   C71   A    
C59   H4    S    
O7    Zn1   S    
C43   C46   A    
C18   H20   S    
C48   H5    S    
C40   O12   S    
C81   H43   S    
C85   H48   S    
C41   O2    S    
C3    C66   A    
C14   H18   S    
C75   H27   S    
C74   C75   S    
C84   H52   S    
C68   C70   A    
C87   H61   S    
C55   C58   A    
C26   H45   S    
C76   H39   S    
C70   C72   A    
C65   H16   S    
C85   H50   S    
C3    C16   S    
C67   H14   S    
C15   C88   A    
C6    C13   A    
