data_mof_unit_60439.cif
_audit_creation_date              2012-12-10T16:56:49-0500
_audit_creation_method            fapswitch 2.2
_symmetry_space_group_name_H-M    P1
_symmetry_Int_Tables_number       1
_space_group_crystal_system       triclinic
_cell_length_a                    21.726209
_cell_length_b                    21.72732
_cell_length_c                    21.957177
_cell_angle_alpha                 118.225354
_cell_angle_beta                  118.661862
_cell_angle_gamma                 91.882536
_cell_volume                      7547.85234331

loop_
_atom_site_label
_atom_site_type_symbol
_atom_type_description
_atom_site_fract_x
_atom_site_fract_y
_atom_site_fract_z
_atom_type_partial_charge
C1    C     C_R   0.499451 0.117086 0.496378 0.802365
C2    C     C_3   0.208863 0.705794 0.917412 0.163402
C3    C     C_3   0.789984 0.212745 0.048659 -0.436949
C4    C     C_3   0.225923 0.789515 0.951401 -0.437172
C5    C     C_3   0.741376 0.164471 0.951644 -0.497599
C6    C     C_3   0.274568 0.837737 0.048414 -0.494616
C7    C     C_1   0.837560 0.338908 0.174889 -0.033714
C8    C     C_1   0.162263 0.660985 0.825114 -0.033070
C9    C     C_1   0.662843 0.165625 0.824986 0.002039
C10   C     C_1   0.337053 0.834258 0.175018 0.002218
C11   C     C_1   0.625238 0.127565 0.749580 -0.104284
C12   C     C_R   0.500546 0.882912 0.503617 0.802990
C13   C     C_1   0.374736 0.872386 0.250422 -0.104472
C14   C     C_R   0.418504 0.114633 0.338426 0.109742
C15   C     C_R   0.581462 0.885368 0.661568 0.109147
C16   C     C_R   0.580081 0.081613 0.659822 0.825218
C17   C     C_R   0.419917 0.918385 0.340179 0.826254
C18   C     C_R   0.355363 0.108338 0.270774 -0.179607
C19   C     C_R   0.644599 0.891673 0.729231 -0.180149
C20   C     C_R   0.325883 0.165627 0.283350 -0.174869
C21   C     C_R   0.674088 0.834391 0.716670 -0.175218
C22   C     C_R   0.364885 0.233418 0.361051 0.169842
C23   C     C_1   0.875518 0.375929 0.250327 -0.122881
C24   C     C_R   0.635100 0.766597 0.638973 0.169920
C25   C     C_R   0.434175 0.243241 0.427279 0.040512
C26   C     C_R   0.565815 0.756764 0.572730 0.040689
C27   C     C_R   0.451628 0.179052 0.419714 0.029665
C28   C     C_R   0.548354 0.820948 0.580285 0.029600
C29   C     C_R   0.501521 0.182898 0.493677 -0.058692
C30   C     C_R   0.498476 0.817099 0.506317 -0.060194
C31   C     C_R   0.545942 0.251855 0.569455 -0.162916
C32   C     C_R   0.454072 0.748141 0.430536 -0.162113
C33   C     C_R   0.541765 0.316545 0.571844 -0.161957
C34   C     C_1   0.124417 0.624050 0.749675 -0.122324
C35   C     C_R   0.458249 0.683453 0.428152 -0.160855
C36   C     C_R   0.487002 0.313253 0.500575 -0.100605
C37   C     C_R   0.513001 0.686748 0.499428 -0.101315
C38   C     C_R   0.757593 0.509343 0.449721 0.620640
C39   C     C_R   0.242551 0.491030 0.550575 0.618955
C40   C     C_R   0.735908 0.460297 0.604742 -0.160097
C41   C     C_R   0.263753 0.539117 0.394698 -0.160398
C42   C     C_R   0.817055 0.499599 0.505610 -0.226709
C43   C     C_R   0.182948 0.500416 0.494416 -0.225769
C44   C     C_R   0.882665 0.500422 0.502678 0.838742
C45   C     C_3   0.708416 0.211750 0.917206 0.153594
C46   C     C_R   0.117343 0.499588 0.497344 0.838272
C47   C     C_R   0.920375 0.420263 0.340090 0.812291
C48   C     C_R   0.079628 0.579736 0.659911 0.811802
C49   C     C_R   0.618881 0.496626 0.500052 0.843500
C50   C     C_R   0.381116 0.503398 0.499946 0.843302
C51   C     C_R   0.493881 0.380833 0.500232 0.812188
C52   C     C_R   0.506120 0.619167 0.499769 0.812185
C53   C     C_R   0.743942 0.480287 0.555631 0.065048
C54   C     C_R   0.255893 0.519420 0.444098 0.065041
C55   C     C_R   0.871756 0.480577 0.621179 -0.172862
C56   C     C_3   0.291335 0.788013 0.082798 0.152833
C57   C     C_R   0.127951 0.518788 0.378356 -0.173174
C58   C     C_R   0.863283 0.463215 0.670875 -0.144953
C59   C     C_R   0.136245 0.535821 0.328351 -0.146638
C60   C     C_R   0.795098 0.451686 0.661578 0.204900
C61   C     C_R   0.204409 0.547377 0.337600 0.204890
C62   C     C_R   0.692925 0.506366 0.447667 -0.232590
C63   C     C_R   0.307213 0.494016 0.552616 -0.233979
C64   C     C_R   0.685870 0.493001 0.500614 -0.172702
C65   C     C_R   0.314117 0.507033 0.499379 -0.172400
C66   C     C_R   0.811525 0.486499 0.560567 0.022654
C67   C     C_3   0.708757 0.292726 0.048117 0.011799
C68   C     C_R   0.188324 0.513193 0.439192 0.023066
C69   C     C_3   0.660519 0.244796 0.950441 0.476112
C70   C     C_3   0.332753 0.739689 0.049536 0.474714
C71   C     C_3   0.773853 0.276415 0.951407 -0.339844
C72   C     C_3   0.216133 0.736096 0.048571 -0.339361
C73   C     C_3   0.822290 0.324503 0.048421 -0.364556
C74   C     C_3   0.167633 0.688045 0.951553 -0.366356
C75   C     C_3   0.284548 0.691585 0.951860 0.014210
C76   C     C_3   0.790762 0.293927 0.082592 0.164144
Cu1   Cu    Cu3+1 0.438180 0.999990 0.500010 1.039500
Cu2   Cu    Cu3+1 0.561820 0.000010 0.499990 1.036781
Cu3   Cu    Cu3+1 0.000200 0.561800 0.499990 1.034420
Cu4   Cu    Cu3+1 0.999800 0.438200 0.500010 1.036356
Cu5   Cu    Cu3+1 0.541330 0.541310 0.582630 1.016322
Cu6   Cu    Cu3+1 0.458670 0.458690 0.417370 1.019075
F1    F     F_    0.761737 0.520874 0.395934 -0.627811
F2    F     F_    0.238544 0.479851 0.604637 -0.629751
F3    F     F_    0.628611 0.285956 0.918979 -0.616784
F4    F     F_    0.350333 0.695858 0.081001 -0.617872
H1    H     H_    0.775838 0.139786 0.928537 0.207434
H2    H     H_    0.173010 0.801793 0.928196 0.202849
H3    H     H_    0.585030 0.255507 0.626422 0.157022
H4    H     H_    0.414997 0.744488 0.373565 0.159832
H5    H     H_    0.329230 0.059106 0.208342 0.164346
H6    H     H_    0.670722 0.940908 0.791660 0.164147
H7    H     H_    0.273269 0.157765 0.232181 0.171266
H8    H     H_    0.726699 0.842261 0.767849 0.171148
H9    H     H_    0.683691 0.449912 0.598772 0.157231
H10   H     H_    0.315949 0.549554 0.400642 0.157222
H11   H     H_    0.581550 0.369135 0.629539 0.187507
H12   H     H_    0.245048 0.873274 0.071526 0.206206
H13   H     H_    0.418472 0.630861 0.370453 0.188646
H14   H     H_    0.648348 0.515795 0.405271 0.193107
H15   H     H_    0.351906 0.484867 0.595237 0.192473
H16   H     H_    0.926088 0.489985 0.631665 0.154027
H17   H     H_    0.073650 0.509391 0.367955 0.153090
H18   H     H_    0.909766 0.458097 0.716247 0.165012
H19   H     H_    0.089651 0.540675 0.282796 0.163277
H20   H     H_    0.809057 0.253948 0.928452 0.172116
H21   H     H_    0.185412 0.769636 0.071579 0.170523
H22   H     H_    0.752080 0.311696 0.928016 0.224926
H23   H     H_    0.767802 0.188805 0.072019 0.184362
H24   H     H_    0.226158 0.699348 0.071891 0.225519
H25   H     H_    0.824388 0.382941 0.071596 0.205908
H26   H     H_    0.153701 0.628312 0.928304 0.204875
H27   H     H_    0.880481 0.324579 0.071628 0.175692
H28   H     H_    0.114006 0.699089 0.928402 0.175704
H29   H     H_    0.695623 0.117761 0.928582 0.187562
H30   H     H_    0.327591 0.875411 0.071515 0.191963
H31   H     H_    0.255479 0.804475 0.928089 0.185247
H32   H     H_    0.614130 0.198704 0.927376 0.076705
H33   H     H_    0.386221 0.776581 0.072576 0.074640
H34   H     H_    0.685517 0.266592 0.069054 0.088508
H35   H     H_    0.315368 0.708692 0.930899 0.090865
H36   H     H_    0.847767 0.211413 0.071859 0.202711
I1    I     I_    0.781237 0.421735 0.733825 -0.366513
I2    I     I_    0.218014 0.576874 0.264918 -0.357441
I3    I     I_    0.477613 0.043562 0.307452 -0.358445
I4    I     I_    0.522327 0.956420 0.692515 -0.354279
I5    I     I_    0.302597 0.304843 0.379755 -0.341035
I6    I     I_    0.697406 0.695187 0.620299 -0.341879
I7    I     I_    0.700246 0.402703 0.100458 -0.166382
I8    I     I_    0.271235 0.575003 0.899523 -0.172580
O1    O     O_R   0.447780 0.090160 0.499990 -0.572896
O2    O     O_R   0.447800 0.909820 0.500020 -0.560338
O3    O     O_R   0.508070 0.060270 0.620570 -0.546408
O4    O     O_R   0.491930 0.939730 0.379430 -0.549060
O5    O     O_R   0.612490 0.060290 0.620560 -0.585631
O6    O     O_R   0.387510 0.939710 0.379440 -0.584698
O7    O     O_R   0.910000 0.552200 0.500000 -0.524301
O8    O     O_R   0.090000 0.447800 0.500000 -0.524326
O9    O     O_R   0.909970 0.447830 0.500020 -0.601133
O10   O     O_R   0.090030 0.552170 0.499980 -0.601497
O11   O     O_R   0.939920 0.491910 0.379430 -0.565128
O12   O     O_R   0.552220 0.909840 0.500010 -0.573111
O13   O     O_R   0.060080 0.508090 0.620570 -0.563476
O14   O     O_R   0.939890 0.387530 0.379440 -0.584594
O15   O     O_R   0.060110 0.612470 0.620560 -0.585119
O16   O     O_R   0.625100 0.534890 0.569750 -0.565656
O17   O     O_R   0.374900 0.465110 0.430250 -0.565427
O18   O     O_R   0.555310 0.465120 0.430190 -0.580285
O19   O     O_R   0.444690 0.534880 0.569810 -0.581310
O20   O     O_R   0.534910 0.444720 0.569790 -0.594816
O21   O     O_R   0.465090 0.555280 0.430210 -0.594142
O22   O     O_R   0.465120 0.374940 0.430230 -0.565853
O23   O     O_R   0.534880 0.625060 0.569770 -0.566259
O24   O     O_R   0.552200 0.090180 0.499980 -0.560410

loop_
_geom_bond_atom_site_label_1
_geom_bond_atom_site_label_2
_ccdc_geom_bond_type
C50   O17   A    
C20   H7    S    
C63   C65   A    
C9    C45   S    
C44   O7    A    
C40   C60   A    
C38   F1    S    
C27   C29   A    
C14   C18   A    
C41   C61   A    
C63   H15   S    
Cu5   Cu6   S    
C22   I5    S    
Cu5   O23   S    
Cu3   O15   S    
C54   C65   A    
Cu1   Cu2   S    
C15   C19   A    
C55   H16   S    
C59   H19   S    
C14   I3    S    
Cu1   O3    S    
C61   I2    S    
C18   H5    S    
C6    H12   S    
C19   C21   A    
C24   C26   A    
C39   F2    S    
C38   C42   A    
Cu2   O12   S    
C74   H26   S    
C53   C64   A    
Cu5   O19   S    
C57   C59   A    
C41   H10   S    
C54   C68   A    
C21   H8    S    
C58   C60   A    
Cu5   O20   S    
C74   H28   S    
C69   H32   S    
C33   C36   A    
C73   H27   S    
Cu1   O1    S    
C62   C64   A    
C19   H6    S    
C32   H4    S    
C51   O20   A    
C43   C68   A    
Cu4   O14   S    
C22   C25   A    
C31   C33   A    
Cu1   O6    S    
C14   C27   A    
C10   C56   S    
Cu2   O5    S    
C33   H11   S    
Cu6   O21   S    
C2    C74   S    
C3    H36   S    
C46   O8    A    
Cu3   O10   S    
C49   C64   S    
C71   H22   S    
C5    H29   S    
C67   I7    S    
C42   C44   S    
C35   H13   S    
C16   O3    A    
C1    O1    A    
C50   C65   S    
C73   H25   S    
Cu6   O17   S    
C57   H17   S    
C72   H24   S    
C59   C61   A    
C23   C47   S    
C45   C69   S    
C32   C35   A    
C42   C66   A    
C4    C6    S    
C71   C73   S    
C37   C52   S    
Cu2   O24   S    
C39   C43   A    
C56   C72   S    
C52   O23   A    
C5    C45   S    
C47   O14   A    
C15   I4    S    
C48   O13   A    
C67   C69   S    
Cu1   O2    S    
C60   I1    S    
C2    C4    S    
C53   C66   A    
C9    C11   T    
C11   C16   S    
C72   H21   S    
C70   H33   S    
Cu4   O13   S    
C48   O15   A    
C17   O6    A    
C1    C29   S    
C8    C34   T    
C3    C76   S    
Cu2   O4    S    
C6    H30   S    
C36   C51   S    
C62   H14   S    
C72   C74   S    
Cu3   O7    S    
C20   C22   A    
C51   O22   A    
Cu5   O16   S    
C44   O9    A    
C56   C70   S    
C73   C76   S    
C4    H31   S    
C55   C58   A    
C34   C48   S    
C21   C24   A    
C57   C68   A    
C70   F4    S    
C70   C75   S    
C55   C66   A    
C69   F3    S    
C45   C71   S    
C35   C37   A    
C46   O10   A    
C67   H34   S    
C12   O2    A    
C12   C30   S    
C75   H35   S    
C2    C8    S    
C6    C56   S    
C3    C5    S    
C10   C13   T    
Cu6   O18   S    
C75   I8    S    
C26   C37   A    
C7    C76   S    
C4    H2    S    
C31   H3    S    
C25   C27   A    
Cu4   O9    S    
C39   C63   A    
C47   O11   A    
C26   C28   A    
Cu4   O8    S    
C13   C17   S    
C28   C30   A    
C29   C31   A    
C30   C32   A    
C50   O19   A    
C15   C28   A    
Cu3   O11   S    
C3    H23   S    
C52   O21   A    
C7    C23   T    
C12   O12   A    
C49   O16   A    
C18   C20   A    
C1    O24   A    
C43   C46   S    
C41   C54   A    
C25   C36   A    
Cu3   Cu4   S    
C5    H1    S    
C58   H18   S    
C49   O18   A    
C40   C53   A    
C71   H20   S    
C17   O4    A    
C24   I6    S    
C67   C76   S    
C40   H9    S    
C16   O5    A    
Cu6   O22   S    
C2    C75   S    
C38   C62   A    
