data_mof_unit_11560.cif
_audit_creation_date              2012-12-10T17:41:01-0500
_audit_creation_method            fapswitch 2.2
_symmetry_space_group_name_H-M    P1
_symmetry_Int_Tables_number       1
_space_group_crystal_system       triclinic
_cell_length_a                    14.837173
_cell_length_b                    15.388446
_cell_length_c                    9.91463
_cell_angle_alpha                 91.436023
_cell_angle_beta                  91.837904
_cell_angle_gamma                 89.461254
_cell_volume                      2261.75968354

loop_
_atom_site_label
_atom_site_type_symbol
_atom_type_description
_atom_site_fract_x
_atom_site_fract_y
_atom_site_fract_z
_atom_type_partial_charge
Br1   Br    Br    0.191701 0.043884 0.445168 -0.411939
Br2   Br    Br    0.296061 0.814177 0.198986 -0.398307
Br3   Br    Br    0.691703 0.543894 0.445055 -0.411964
Br4   Br    Br    0.796093 0.314162 0.198978 -0.398276
Br5   Br    Br    0.538884 0.700853 0.413900 -0.436972
Br6   Br    Br    0.591041 0.260590 0.279426 -0.400728
Br7   Br    Br    0.038875 0.200836 0.414003 -0.436992
Br8   Br    Br    0.091007 0.760619 0.279489 -0.400706
C1    C     C_R   0.386113 0.874818 0.497268 0.953708
C2    C     C_R   0.694133 0.238847 0.400392 0.219241
C3    C     C_R   0.161435 0.229287 0.467703 0.207388
C4    C     C_R   0.194116 0.738863 0.400412 0.219301
C5    C     C_R   0.687365 0.815131 0.497553 -0.187626
C6    C     C_R   0.692428 0.181601 0.508392 -0.251458
C7    C     C_R   0.187362 0.315128 0.497554 -0.187612
C8    C     C_R   0.192426 0.681600 0.508390 -0.251433
C9    C     C_R   0.336198 0.012212 0.132547 -0.103544
C10   C     C_R   0.836196 0.512207 0.132542 -0.103543
C11   C     C_R   0.254957 0.019697 0.059626 -0.233825
C12   C     C_R   0.380509 0.119604 0.500048 0.938812
C13   C     C_R   0.754956 0.519685 0.059619 -0.233788
C14   C     C_R   0.253935 0.017933 0.918853 0.454389
C15   C     C_R   0.753935 0.517918 0.918847 0.454369
C16   C     C_R   0.335191 0.009464 0.852918 -0.113858
C17   C     C_R   0.835192 0.509455 0.852914 -0.113861
C18   C     C_R   0.418964 0.005532 0.924177 0.065094
C19   C     C_R   0.918964 0.505526 0.924176 0.065093
C20   C     C_R   0.419205 0.006211 0.068490 0.077066
C21   C     C_R   0.919205 0.506206 0.068488 0.077062
C22   C     C_R   0.578045 0.994406 0.075883 0.552156
C23   C     C_R   0.886115 0.374817 0.497269 0.953716
C24   C     C_R   0.078046 0.494414 0.075884 0.552139
C25   C     C_R   0.621434 0.118865 0.503022 0.892062
C26   C     C_R   0.619243 0.879842 0.499652 0.911562
C27   C     C_R   0.121433 0.618864 0.503022 0.892056
C28   C     C_R   0.119241 0.379840 0.499652 0.911558
C29   C     C_R   0.577461 0.994176 0.931699 -0.211712
C30   C     C_R   0.077462 0.494186 0.931700 -0.211705
C31   C     C_R   0.434753 0.295423 0.554082 -0.241668
C32   C     C_R   0.408028 0.736279 0.694449 -0.213542
C33   C     C_R   0.934744 0.795412 0.554212 -0.241664
C34   C     C_R   0.880508 0.619604 0.500048 0.938823
C35   C     C_R   0.908012 0.236299 0.694494 -0.213523
C36   C     C_R   0.460511 0.382683 0.572696 0.545003
C37   C     C_R   0.410510 0.677042 0.799594 0.538825
C38   C     C_R   0.960498 0.882666 0.572914 0.544989
C39   C     C_R   0.910478 0.177084 0.799669 0.538808
C40   C     C_R   0.895093 0.947832 0.561921 -0.092542
C41   C     C_R   0.840867 0.118188 0.807846 -0.123859
C42   C     C_R   0.395101 0.447844 0.561696 -0.092551
C43   C     C_R   0.340908 0.618134 0.807758 -0.123841
C44   C     C_R   0.804858 0.926560 0.536643 -0.251281
C45   C     C_R   0.226101 0.164249 0.472436 0.214218
C46   C     C_R   0.769952 0.117516 0.712489 -0.273794
C47   C     C_R   0.304860 0.426567 0.536497 -0.251296
C48   C     C_R   0.269981 0.617476 0.712422 -0.273801
C49   C     C_R   0.778002 0.838938 0.521430 0.058534
C50   C     C_R   0.764249 0.178817 0.607611 0.070004
C51   C     C_R   0.278003 0.338941 0.521363 0.058524
C52   C     C_R   0.264261 0.678800 0.607581 0.069969
C53   C     C_R   0.343516 0.273257 0.526022 0.020344
C54   C     C_R   0.334183 0.739410 0.599836 0.037233
C55   C     C_R   0.843513 0.773253 0.526084 0.020359
C56   C     C_R   0.270527 0.785669 0.382113 0.277750
C57   C     C_R   0.834176 0.239421 0.599861 0.037252
C58   C     C_R   0.315837 0.186956 0.500719 -0.186482
C59   C     C_R   0.331877 0.797482 0.491246 -0.181706
C60   C     C_R   0.815837 0.686957 0.500718 -0.186473
C61   C     C_R   0.831883 0.297478 0.491251 -0.181721
C62   C     C_R   0.726105 0.664256 0.472378 0.214210
C63   C     C_R   0.770546 0.285653 0.382103 0.277778
C64   C     C_R   0.661441 0.729295 0.467645 0.207400
H1    H     H_    0.329400 0.004807 0.745837 0.233228
H2    H     H_    0.842940 0.070565 0.886549 0.170735
H3    H     H_    0.414349 0.515422 0.572468 0.194628
H4    H     H_    0.342996 0.570494 0.886435 0.170719
H5    H     H_    0.756605 0.979084 0.526196 0.151397
H6    H     H_    0.722939 0.065777 0.722172 0.184253
H7    H     H_    0.256605 0.479088 0.526040 0.151413
H8    H     H_    0.222972 0.565730 0.722088 0.184239
H9    H     H_    0.331229 0.005990 0.238615 0.241849
H10   H     H_    0.831229 0.505992 0.238611 0.241857
H11   H     H_    0.192551 0.023866 0.113276 0.208552
H12   H     H_    0.829402 0.504803 0.745834 0.233225
H13   H     H_    0.692550 0.523852 0.113267 0.208569
H14   H     H_    0.123380 0.028139 0.903949 0.370635
H15   H     H_    0.623380 0.528111 0.903939 0.370640
H16   H     H_    0.586741 0.352860 0.605077 0.341036
H17   H     H_    0.525139 0.719422 0.873919 0.339558
H18   H     H_    0.086721 0.852833 0.605365 0.341039
H19   H     H_    0.025107 0.219461 0.874001 0.339552
H20   H     H_    0.708666 0.986162 0.088427 0.318455
H21   H     H_    0.208667 0.486183 0.088428 0.318459
H22   H     H_    0.640171 0.988870 0.879513 0.131228
H23   H     H_    0.140173 0.488891 0.879513 0.131242
H24   H     H_    0.486367 0.245599 0.560900 0.137961
H25   H     H_    0.466757 0.776140 0.684068 0.170533
H26   H     H_    0.986358 0.745587 0.561023 0.137982
H27   H     H_    0.966748 0.276150 0.684106 0.170551
H28   H     H_    0.914340 0.015407 0.572760 0.194600
N1    N     N_R   0.498810 1.000000 0.142780 -0.119899
N2    N     N_R   0.998810 0.500000 0.142780 -0.119899
N3    N     N_R   0.498740 0.000000 0.857170 -0.122576
N4    N     N_R   0.998740 0.500000 0.857170 -0.122582
O1    O     O_R   0.408390 0.908380 0.614690 -0.654489
O2    O     O_R   0.591620 0.908390 0.614640 -0.646731
O3    O     O_R   0.091620 0.591610 0.614640 -0.639602
O4    O     O_R   0.091620 0.408390 0.614640 -0.646725
O5    O     O_R   0.591610 0.091610 0.385310 -0.530757
O6    O     O_R   0.591610 0.908390 0.385310 -0.542625
O7    O     O_R   0.091610 0.591610 0.385310 -0.530762
O8    O     O_R   0.091610 0.408390 0.385310 -0.542645
O9    O     O_3   0.174685 0.022570 0.842503 -0.691959
O10   O     O_3   0.674686 0.522551 0.842494 -0.692003
O11   O     O_3   0.548815 0.406166 0.600164 -0.675602
O12   O     O_R   0.408390 0.091620 0.614690 -0.634802
O13   O     O_3   0.481294 0.673419 0.893048 -0.728620
O14   O     O_3   0.048795 0.906140 0.600463 -0.675625
O15   O     O_3   0.981252 0.173469 0.893139 -0.728605
O16   O     O_3   0.657717 0.989239 0.150747 -0.710359
O17   O     O_3   0.157718 0.489255 0.150748 -0.710370
O18   O     O_R   0.908390 0.408380 0.614690 -0.654503
O19   O     O_R   0.908390 0.591620 0.614690 -0.634817
O20   O     O_R   0.408370 0.908380 0.385360 -0.592326
O21   O     O_R   0.408370 0.091620 0.385360 -0.625663
O22   O     O_R   0.908370 0.408380 0.385360 -0.592324
O23   O     O_R   0.908370 0.591620 0.385360 -0.625649
O24   O     O_R   0.591620 0.091610 0.614640 -0.639605
Zn1   Zn    Zn3+2 0.500010 0.000000 0.653130 0.943089
Zn2   Zn    Zn3+2 0.000010 0.500000 0.653130 0.943080
Zn3   Zn    Zn3+2 0.499980 0.000000 0.346870 1.060311
Zn4   Zn    Zn3+2 0.999980 0.500000 0.346870 1.060307

loop_
_geom_bond_atom_site_label_1
_geom_bond_atom_site_label_2
_ccdc_geom_bond_type
O2    Zn1   S    
C47   C51   A    
C19   C21   A    
C10   C13   A    
O24   Zn1   S    
C6    C25   S    
C39   C41   A    
H19   O15   S    
Br7   C3    S    
C31   H24   S    
C54   C59   A    
H14   O9    S    
H18   O14   S    
C12   C58   S    
H21   O17   S    
Br5   C64   S    
C8    C27   S    
C4    C56   A    
C12   O21   A    
C16   H1    S    
C5    C49   A    
C37   C43   A    
C1    O1    A    
C41   C46   A    
C19   N4    A    
C1    O20   A    
C32   C54   A    
C38   O14   S    
C52   C54   A    
C43   C48   A    
C8    C52   A    
C61   C63   A    
Br1   C45   S    
O23   Zn4   S    
H15   O10   S    
C30   N4    A    
C9    C11   A    
C3    C7    A    
C20   N1    A    
C14   O9    S    
O12   Zn1   S    
C4    C8    A    
C36   O11   S    
C30   H23   S    
C28   O8    A    
C17   H12   S    
C33   C38   A    
C24   C30   A    
O4    Zn2   S    
C3    C45   A    
Br8   C4    S    
C2    C63   A    
C39   O15   S    
N4    Zn2   S    
C34   C60   S    
O3    Zn2   S    
C11   H11   S    
C53   C58   A    
Br2   C56   S    
C34   O19   A    
C49   C55   A    
C38   C40   A    
C32   C37   A    
C40   H28   S    
C13   H13   S    
C51   C53   A    
C26   O2    A    
C56   C59   A    
Br3   C62   S    
C43   H4    S    
C2    C6    A    
C32   H25   S    
C29   N3    A    
O1    Zn1   S    
C25   O24   A    
C48   C52   A    
O20   Zn3   S    
C1    C59   S    
O5    Zn3   S    
C18   N3    A    
C47   H7    S    
O21   Zn3   S    
C50   C57   A    
O22   Zn4   S    
C35   C57   A    
C11   C14   A    
O6    Zn3   S    
C10   C21   A    
O8    Zn4   S    
C45   C58   A    
N3    Zn1   S    
C34   O23   A    
N1    Zn3   S    
C5    C64   A    
H17   O13   S    
C29   H22   S    
C13   C15   A    
O19   Zn2   S    
C26   O6    A    
C14   C16   A    
C25   O5    A    
C33   C55   A    
C44   H5    S    
C7    C28   S    
C31   C53   A    
C27   O7    A    
C12   O12   A    
C46   C50   A    
C36   C42   A    
C55   C60   A    
C33   H26   S    
C9    C20   A    
C7    C51   A    
C24   O17   S    
C16   C18   A    
C23   O18   A    
N2    Zn4   S    
Br6   C2    S    
C31   C36   A    
C24   N2    A    
C17   C19   A    
C18   C20   A    
C42   C47   A    
C48   H8    S    
H16   O11   S    
H20   O16   S    
C5    C26   S    
C42   H3    S    
C35   H27   S    
C15   O10   S    
C22   O16   S    
C57   C61   A    
C22   N1    A    
C10   H10   S    
C21   N2    A    
C9    H9    S    
C15   C17   A    
C37   O13   S    
C27   O3    A    
C44   C49   A    
O7    Zn4   S    
C23   C61   S    
C28   O4    A    
C22   C29   A    
C60   C62   A    
C41   H2    S    
C62   C64   A    
C23   O22   A    
C40   C44   A    
C35   C39   A    
O18   Zn2   S    
Br4   C63   S    
C6    C50   A    
C46   H6    S    
