data_mof_unit_54150.cif
_audit_creation_date              2012-12-10T17:15:54-0500
_audit_creation_method            fapswitch 2.2
_symmetry_space_group_name_H-M    P1
_symmetry_Int_Tables_number       1
_space_group_crystal_system       triclinic
_cell_length_a                    10.274682
_cell_length_b                    10.738888
_cell_length_c                    10.533244
_cell_angle_alpha                 92.37386
_cell_angle_beta                  96.253637
_cell_angle_gamma                 82.664229
_cell_volume                      1145.40563466

loop_
_atom_site_label
_atom_site_type_symbol
_atom_type_description
_atom_site_fract_x
_atom_site_fract_y
_atom_site_fract_z
_atom_type_partial_charge
C1    C     C_R   0.444347 0.516366 0.266298 0.848017
C2    C     C_2   0.504843 0.588197 0.935377 -0.155699
C3    C     C_2   0.068058 0.497626 0.479112 0.161170
C4    C     C_R   0.497990 0.260987 0.497807 0.949269
C5    C     C_2   0.925746 0.521814 0.500848 -0.017595
C6    C     C_R   0.556563 0.496626 0.734318 0.802870
C7    C     C_R   0.501682 0.738733 0.499430 0.857681
C8    C     C_R   0.540866 0.107561 0.264536 0.060096
C9    C     C_R   0.604312 0.033896 0.171578 -0.200518
C10   C     C_R   0.635364 0.906186 0.186445 -0.143318
C11   C     C_R   0.600660 0.851260 0.292598 -0.132523
C12   C     C_R   0.525366 0.055570 0.384418 0.047775
C13   C     C_R   0.546042 0.924803 0.393780 0.050293
C14   C     C_3   0.460861 0.152332 0.734338 -0.415267
C15   C     C_3   0.597354 0.164693 0.803046 -0.891350
C16   C     C_2   0.290651 0.507751 0.060387 0.397777
C17   C     C_2   0.877616 0.633557 0.577235 0.446498
C18   C     C_3   0.104866 0.407409 0.370893 -0.347913
C19   C     C_3   0.045082 0.458628 0.241143 -0.766798
C20   C     C_2   0.467945 0.226014 0.218709 0.334172
C21   C     C_3   0.447434 0.878292 0.732012 -0.419459
C22   C     C_3   0.299664 0.884833 0.744903 -0.771157
C23   C     C_R   0.493104 0.128313 0.495239 -0.158608
C24   C     C_2   0.714281 0.438042 0.931126 0.378674
C25   C     C_R   0.471688 0.073277 0.610246 0.124228
C26   C     C_R   0.473112 0.942500 0.611426 0.141230
C27   C     C_R   0.507896 0.870820 0.501888 -0.151991
C28   C     C_2   0.413805 0.544007 0.130733 -0.183672
C29   C     C_2   0.507061 0.590801 0.073123 -0.119130
C30   C     C_2   0.590935 0.510941 0.871660 -0.196227
H1    H     H_    0.873832 0.367190 0.400771 0.191910
H2    H     H_    0.586760 0.218857 0.894143 0.246161
H3    H     H_    0.406938 0.246997 0.718332 0.233842
H4    H     H_    0.401617 0.113173 0.800824 0.218876
H5    H     H_    0.251559 0.425446 0.087781 0.114752
H6    H     H_    0.806834 0.627411 0.644690 0.104777
H7    H     H_    0.088893 0.544211 0.221609 0.265451
H8    H     H_    0.936811 0.483873 0.237248 0.280302
H9    H     H_    0.063971 0.385804 0.165347 0.258526
H10   H     H_    0.210171 0.386317 0.370496 0.309468
H11   H     H_    0.074986 0.313641 0.384458 0.174687
H12   H     H_    0.129175 0.605256 0.628866 0.197029
H13   H     H_    0.510585 0.281997 0.154453 0.078078
H14   H     H_    0.249817 0.982547 0.738164 0.245583
H15   H     H_    0.251076 0.826988 0.668792 0.288389
H16   H     H_    0.285374 0.848417 0.838860 0.251957
H17   H     H_    0.491288 0.778620 0.733780 0.187357
H18   H     H_    0.498502 0.919163 0.819005 0.206484
H19   H     H_    0.780387 0.383426 0.870320 0.084986
H20   H     H_    0.619761 0.073433 0.082230 0.137031
H21   H     H_    0.679128 0.848339 0.111711 0.148148
H22   H     H_    0.619939 0.750889 0.293062 0.161137
H23   H     H_    0.419715 0.640949 0.883777 0.212358
H24   H     H_    0.596873 0.614214 0.127330 0.190880
H25   H     H_    0.651991 0.070774 0.824976 0.263910
H26   H     H_    0.655244 0.214492 0.742983 0.264426
N1    N     N_2   0.157290 0.551390 0.551110 -0.204405
N2    N     N_2   0.842740 0.448550 0.448960 -0.244168
O1    O     O_R   0.568950 0.489660 0.307530 -0.591340
O2    O     O_2   0.916263 0.734748 0.564384 -0.587440
O3    O     O_2   0.354092 0.254679 0.241203 -0.636594
O4    O     O_2   0.743331 0.436043 0.046505 -0.589409
O5    O     O_R   0.348880 0.522640 0.340350 -0.601143
O6    O     O_R   0.610060 0.300270 0.483590 -0.613728
O7    O     O_R   0.389990 0.333260 0.516410 -0.626775
O8    O     O_R   0.651120 0.477360 0.659650 -0.646486
O9    O     O_R   0.431050 0.510340 0.692470 -0.584514
O10   O     O_R   0.610010 0.666740 0.483590 -0.638882
O11   O     O_R   0.389940 0.699730 0.516410 -0.592912
O12   O     O_2   0.231098 0.569891 0.973049 -0.582575
Zn1   Zn    Zn3+2 0.646940 0.477980 0.478090 0.935615
Zn2   Zn    Zn3+2 0.353060 0.522020 0.521910 0.959726

loop_
_geom_bond_atom_site_label_1
_geom_bond_atom_site_label_2
_ccdc_geom_bond_type
C7    O11   A    
C1    C28   S    
C22   H16   S    
C21   C26   S    
C14   H4    S    
C19   H8    S    
O11   Zn2   S    
O7    Zn2   S    
C9    C10   A    
C4    O6    A    
C16   C28   S    
C8    C12   A    
C2    C30   D    
C21   H18   S    
C15   H26   S    
C20   H13   S    
C14   H3    S    
C23   C25   A    
C25   C26   A    
C3    C5    S    
C16   O12   D    
C15   H2    S    
C14   C25   S    
C21   C22   S    
O5    Zn2   S    
C11   C13   A    
C12   C23   A    
C26   C27   A    
C8    C20   S    
C19   H9    S    
C5    N2    D    
O10   Zn1   S    
C10   H21   S    
C1    O5    A    
H12   N1    S    
C28   C29   D    
C17   H6    S    
C24   H19   S    
C22   H14   S    
O9    Zn2   S    
C1    O1    A    
N1    Zn2   S    
C2    C29   S    
C24   C30   S    
N2    Zn1   S    
O6    Zn1   S    
C5    C17   S    
C29   H24   S    
C17   O2    D    
C16   H5    S    
C3    N1    D    
C6    O8    A    
C22   H15   S    
C7    C27   S    
C12   C13   A    
H1    N2    S    
C3    C18   S    
C18   C19   S    
C10   C11   A    
C18   H11   S    
C20   O3    D    
C4    C23   S    
C18   H10   S    
C4    O7    A    
C6    O9    A    
C24   O4    D    
C11   H22   S    
C19   H7    S    
C6    C30   S    
C7    O10   A    
C14   C15   S    
C13   C27   A    
C9    H20   S    
O8    Zn1   S    
O1    Zn1   S    
C8    C9    A    
C21   H17   S    
C2    H23   S    
C15   H25   S    
