data_mof_unit_42456.cif
_audit_creation_date              2012-12-11T15:58:43-0500
_audit_creation_method            fapswitch 2.2
_symmetry_space_group_name_H-M    P1
_symmetry_Int_Tables_number       1
_space_group_crystal_system       triclinic
_cell_length_a                    8.563778
_cell_length_b                    18.939375
_cell_length_c                    19.079127
_cell_angle_alpha                 98.046908
_cell_angle_beta                  95.128641
_cell_angle_gamma                 91.745607
_cell_volume                      3048.85847974

loop_
_atom_site_label
_atom_site_type_symbol
_atom_type_description
_atom_site_fract_x
_atom_site_fract_y
_atom_site_fract_z
_atom_type_partial_charge
Ba1   Ba    Ba6+2 0.152460 0.535140 0.468980 1.717076
Ba2   Ba    Ba6+2 0.657710 0.464850 0.530960 1.730957
C1    C     C_3   0.378547 0.785785 0.233329 -0.262320
C2    C     C_R   0.073578 0.906282 0.583680 -0.018613
C3    C     C_R   0.210254 0.932306 0.628031 -0.101037
C4    C     C_3   0.937334 0.731097 0.323027 0.260609
C5    C     C_R   0.284249 0.996944 0.617028 -0.038156
C6    C     C_R   0.196886 0.047197 0.582225 0.023150
C7    C     C_R   0.051009 0.024664 0.544621 0.014463
C8    C     C_R   0.245407 0.120673 0.590682 -0.036671
C9    C     C_R   0.165042 0.169848 0.551345 -0.064870
C10   C     C_R   0.019048 0.146136 0.511825 -0.003243
C11   C     C_R   0.963592 0.073453 0.508863 0.007713
C12   C     C_3   0.388531 0.727102 0.282800 0.271888
C13   C     C_R   0.222293 0.241894 0.550564 -0.020664
C14   C     C_R   0.125616 0.288332 0.515617 -0.250028
C15   C     C_R   0.974693 0.268809 0.482214 0.053074
C16   C     C_3   0.896879 0.806024 0.304026 -0.142916
C17   C     C_R   0.925406 0.194964 0.476718 -0.048526
C18   C     C_R   0.845371 0.929909 0.506382 0.018810
C19   C     C_R   0.786242 0.858049 0.504224 0.007356
C20   C     C_R   0.881587 0.807893 0.535038 -0.029454
C21   C     C_R   0.020519 0.833962 0.576540 -0.059515
C22   C     C_R   0.785436 0.167863 0.436162 -0.044776
C23   C     C_3   0.530789 0.687767 0.678013 0.200320
C24   C     C_R   0.730468 0.097046 0.434456 0.038174
C25   C     C_R   0.818497 0.049520 0.470996 0.049978
C26   C     C_R   0.758786 0.978409 0.470711 0.045154
C27   C     C_R   0.585676 0.073426 0.397370 -0.053726
C28   C     C_3   0.817118 0.332569 0.284023 0.156258
C29   C     C_R   0.524020 0.005050 0.400056 -0.078187
C30   C     C_R   0.607128 0.957599 0.438692 0.069096
C31   C     C_R   0.630229 0.837722 0.474176 -0.059281
C32   C     C_R   0.535804 0.892524 0.450707 0.026101
C33   C     C_R   0.577601 0.764105 0.469464 0.075644
C34   C     C_3   0.564134 0.759384 0.727263 -0.322412
C35   C     C_R   0.684550 0.714002 0.490640 -0.206336
C36   C     C_R   0.833528 0.733787 0.525187 -0.034103
C37   C     C_R   0.597159 0.527299 0.298516 -0.155306
C38   C     C_R   0.457191 0.489035 0.272858 0.010163
C39   C     C_R   0.410640 0.477754 0.198895 -0.058561
C40   C     C_3   0.891972 0.294389 0.218414 -0.316905
C41   C     C_R   0.508817 0.506100 0.152473 -0.007295
C42   C     C_R   0.653666 0.540719 0.179421 -0.184405
C43   C     C_R   0.700149 0.549478 0.252298 0.090083
C44   C     C_R   0.409570 0.560508 0.046470 -0.142684
C45   C     C_3   0.959905 0.271620 0.723646 0.285879
C46   C     C_R   0.341116 0.554341 0.976103 -0.043893
C47   C     C_R   0.325614 0.486105 0.933273 0.066412
C48   C     C_R   0.366097 0.424958 0.965371 0.036542
C49   C     C_R   0.439658 0.433398 0.034538 -0.053796
C50   C     C_R   0.459150 0.500421 0.075668 0.055495
C51   C     C_R   0.135989 0.450783 0.825464 -0.130293
C52   C     C_3   0.947218 0.635267 0.700943 0.180542
C53   C     C_R   0.099125 0.438382 0.751922 -0.019300
C54   C     C_R   0.353808 0.493784 0.734916 0.038383
C55   C     C_R   0.393586 0.503285 0.809688 -0.021816
C56   C     C_3   0.896656 0.199310 0.681799 -0.265349
C57   C     C_R   0.284971 0.479441 0.854734 0.054645
C58   C     C_R   0.212017 0.455558 0.707189 -0.194966
C59   C     C_3   0.900849 0.659916 0.776384 -0.343683
C60   C     C_3   0.289923 0.322263 0.376705 0.270307
C61   C     C_3   0.305166 0.241122 0.365094 -0.212377
C62   C     C_3   0.289027 0.660500 0.248618 -0.274139
C63   C     C_2   0.832714 0.318117 0.148861 0.429064
C64   C     C_2   0.101437 0.606472 0.706189 0.404178
C65   C     C_2   0.987954 0.727786 0.811212 0.605534
C66   C     C_2   0.206193 0.205732 0.300354 0.573187
C67   C     C_3   0.466330 0.320641 0.715370 0.384301
C68   C     C_2   0.556862 0.707464 0.291682 0.361831
C69   C     C_2   0.401253 0.759866 0.156725 0.456491
C70   C     C_2   0.433339 0.701387 0.613160 0.538789
C71   C     C_2   0.674856 0.807541 0.696941 0.464192
C72   C     C_2   0.026651 0.263198 0.797732 0.436133
C73   C     C_2   0.793720 0.157175 0.722213 0.560556
C74   C     C_2   0.267682 0.896027 0.689478 0.561732
C75   C     C_2   0.458788 0.004387 0.629299 0.456147
C76   C     C_2   0.343224 0.147213 0.656789 0.501935
C77   C     C_3   0.364230 0.894137 0.461748 -0.316953
C78   C     C_3   0.515530 0.307005 0.790594 -0.333787
C79   C     C_3   0.548474 0.539237 0.842642 -0.337694
C80   C     C_2   0.282855 0.620358 0.951042 0.477020
C81   C     C_3   0.259408 0.436489 0.168182 -0.265157
C82   C     C_3   0.325287 0.349516 0.931056 -0.369685
C83   C     C_3   0.173055 0.433458 0.629703 -0.262488
C84   C     C_2   0.003535 0.862748 0.349054 0.473157
C85   C     C_3   0.896304 0.811266 0.224024 -0.223840
C86   C     C_2   0.643291 0.319705 0.270130 0.562719
C87   C     C_2   0.863904 0.410113 0.291815 0.361166
C88   C     C_R   0.991561 0.953221 0.543703 0.045212
H1    H     H_    0.867621 0.235801 0.213453 0.143720
H2    H     H_    0.429957 0.228736 0.361837 0.154378
H3    H     H_    0.643046 0.665721 0.662543 -0.006176
H4    H     H_    0.613843 0.751348 0.780959 0.144818
H5    H     H_    0.452601 0.786035 0.736062 0.127333
H6    H     H_    0.467926 0.829441 0.253633 0.057429
H7    H     H_    0.776660 0.817446 0.318738 0.019004
H8    H     H_    0.057011 0.289996 0.694645 -0.078700
H9    H     H_    0.996215 0.166566 0.666741 0.119756
H10   H     H_    0.828864 0.208581 0.631722 0.107581
H11   H     H_    0.336439 0.323242 0.709682 -0.063039
H12   H     H_    0.021771 0.303401 0.226844 0.128346
H13   H     H_    0.521677 0.372618 0.708657 0.089453
H14   H     H_    0.435524 0.265892 0.805942 0.132430
H15   H     H_    0.512937 0.357818 0.827012 0.065267
H16   H     H_    0.061335 0.729619 0.342422 0.083030
H17   H     H_    0.636071 0.288586 0.796759 0.186710
H18   H     H_    0.172993 0.340485 0.510482 0.021538
H19   H     H_    0.090213 0.797079 0.601816 0.083216
H20   H     H_    0.715692 0.201468 0.405769 0.121255
H21   H     H_    0.517324 0.108588 0.367900 0.094291
H22   H     H_    0.409840 0.989463 0.372042 0.115181
H23   H     H_    0.864843 0.592382 0.674231 0.094064
H24   H     H_    0.870388 0.721381 0.368107 0.041073
H25   H     H_    0.648878 0.657964 0.482048 0.117922
H26   H     H_    0.419729 0.612072 0.079588 0.074184
H27   H     H_    0.475537 0.386715 0.057857 0.077879
H28   H     H_    0.049883 0.436898 0.860075 0.125761
H29   H     H_    0.730166 0.560641 0.143671 0.099273
H30   H     H_    0.630406 0.537221 0.355225 0.123422
H31   H     H_    0.277015 0.623248 0.287758 0.153684
H32   H     H_    0.171949 0.675682 0.228078 0.151041
H33   H     H_    0.343853 0.631775 0.202969 0.038036
H34   H     H_    0.924841 0.617595 0.810371 0.085774
H35   H     H_    0.709572 0.310048 0.129405 0.024452
H36   H     H_    0.169688 0.604313 0.756405 0.015182
H37   H     H_    0.115275 0.731214 0.815759 0.035075
H38   H     H_    0.079684 0.202781 0.300318 -0.004443
H39   H     H_    0.633026 0.717246 0.251860 0.004376
H40   H     H_    0.512284 0.739009 0.142255 -0.020608
H41   H     H_    0.361595 0.747634 0.613604 -0.039619
H42   H     H_    0.799191 0.798371 0.700141 0.080311
H43   H     H_    0.128580 0.231736 0.805405 0.066889
H44   H     H_    0.688453 0.179287 0.741725 0.038875
H45   H     H_    0.773433 0.665560 0.774883 0.098370
H46   H     H_    0.234134 0.841261 0.692540 -0.041065
H47   H     H_    0.522729 0.983749 0.672871 0.157850
H48   H     H_    0.468743 0.142363 0.659775 0.067887
H49   H     H_    0.343499 0.870140 0.509784 0.118161
H50   H     H_    0.324072 0.949296 0.473139 0.113770
H51   H     H_    0.293077 0.868777 0.413821 0.170233
H52   H     H_    0.611538 0.503759 0.876171 0.119182
H53   H     H_    0.627685 0.552135 0.803453 0.146480
H54   H     H_    0.528613 0.590452 0.875642 0.107527
H55   H     H_    0.317732 0.671997 0.981632 0.070150
H56   H     H_    0.167071 0.335130 0.384027 -0.009226
H57   H     H_    0.184646 0.420909 0.207758 0.145893
H58   H     H_    0.187476 0.469048 0.134613 0.139884
H59   H     H_    0.286097 0.385820 0.135881 0.117470
H60   H     H_    0.431870 0.317629 0.932337 0.127323
H61   H     H_    0.238559 0.325248 0.961564 0.175686
H62   H     H_    0.273327 0.345888 0.875671 0.106795
H63   H     H_    0.265885 0.435475 0.597469 0.146032
H64   H     H_    0.136187 0.376786 0.623051 0.031600
H65   H     H_    0.086478 0.467694 0.606642 0.172820
H66   H     H_    0.018723 0.862882 0.405973 -0.034198
H67   H     H_    0.366401 0.343071 0.425805 0.067238
H68   H     H_    0.009334 0.795471 0.204112 0.148716
H69   H     H_    0.802213 0.775836 0.192529 0.103577
H70   H     H_    0.873263 0.866521 0.213855 0.143132
H71   H     H_    0.571718 0.360524 0.251788 -0.117645
H72   H     H_    0.915825 0.431356 0.249105 0.029326
H73   H     H_    0.263617 0.810790 0.235979 0.167968
H74   H     H_    0.268385 0.217669 0.411159 -0.039761
O1    O     O_2   0.118870 0.674530 0.547560 -0.391896
O2    O     O_2   0.775187 0.453071 0.744740 -0.503840
O3    O     O_3   0.836455 0.319214 0.727135 -0.568955
O4    O     O_3   0.870460 0.585330 0.542110 -0.470920
O5    O     O_3   0.436130 0.464210 0.414140 -0.482850
O6    O     O_2   0.629420 0.533310 0.672080 -0.500559
O7    O     O_3   0.447915 0.640963 0.714082 -0.625284
O8    O     O_2   0.547588 0.243271 0.529610 -0.478081
O9    O     O_3   0.517184 0.266354 0.665651 -0.596698
O10   O     O_3   0.354280 0.631750 0.418430 -0.404828
O11   O     O_2   0.249912 0.752790 0.473154 -0.507245
O12   O     O_3   0.335697 0.351497 0.317665 -0.616333
O13   O     O_3   0.956543 0.691640 0.660801 -0.669880
O14   O     O_3   0.325480 0.757859 0.346025 -0.629806
O15   O     O_2   0.180880 0.466650 0.327890 -0.461936
O16   O     O_3   0.939000 0.596010 0.380670 -0.436352
O17   O     O_2   0.025661 0.552869 0.251265 -0.507563
O18   O     O_2   0.922721 0.345942 0.113665 -0.560955
O19   O     O_2   0.153316 0.586827 0.650532 -0.578563
O20   O     O_2   0.916760 0.779169 0.835134 -0.557312
O21   O     O_2   0.266912 0.178605 0.248227 -0.508482
O22   O     O_2   0.605214 0.673424 0.337747 -0.671725
O23   O     O_3   0.905609 0.678159 0.263326 -0.622298
O24   O     O_2   0.295004 0.762617 0.110212 -0.555528
O25   O     O_2   0.432087 0.659267 0.559100 -0.550397
O26   O     O_2   0.625768 0.856980 0.667979 -0.592899
O27   O     O_2   0.966357 0.290948 0.849797 -0.571070
O28   O     O_2   0.827841 0.097290 0.733104 -0.526809
O29   O     O_2   0.344925 0.929146 0.741228 -0.536395
O30   O     O_2   0.534437 0.031699 0.588076 -0.608614
O31   O     O_2   0.282671 0.171062 0.709962 -0.632031
O32   O     O_2   0.192660 0.618218 0.897532 -0.623101
O33   O     O_2   0.073181 0.908532 0.323152 -0.578590
O34   O     O_2   0.691430 0.325420 0.452420 -0.472758
O35   O     O_2   0.584692 0.260240 0.270199 -0.544208
O36   O     O_2   0.838216 0.450748 0.344021 -0.577576
O37   O     O_3   0.939830 0.414660 0.457830 -0.435843
O38   O     O_3   0.456020 0.368240 0.581510 -0.508529
O39   O     O_3   0.874931 0.299255 0.342249 -0.650136
O40   O     O_3   0.374170 0.535780 0.585810 -0.379614
O41   O     O_3   0.871300 0.403980 0.619270 -0.473563
P1    P     P_3+3 0.947550 0.663200 0.567530 1.044658
P2    P     P_3+3 0.354660 0.445020 0.336980 0.990793
P3    P     P_3+3 0.893529 0.592615 0.288347 1.023575
P4    P     P_3+3 0.862750 0.336790 0.432410 1.044706
P5    P     P_3+3 0.898486 0.404260 0.712084 0.979477
P6    P     P_3+3 0.380321 0.725461 0.426760 1.029389
P7    P     P_3+3 0.453287 0.550114 0.676710 1.039112
P8    P     P_3+3 0.431594 0.276880 0.581068 0.939304

loop_
_geom_bond_atom_site_label_1
_geom_bond_atom_site_label_2
_ccdc_geom_bond_type
C77   H49   S    
C64   O19   D    
C72   H43   S    
C23   H3    S    
C34   H4    S    
Ba2   O5    S    
C12   C68   S    
C70   O25   D    
O9    P8    S    
Ba2   O38   S    
C82   H60   S    
C69   O24   D    
C13   P8    S    
Ba1   O37   S    
C51   C57   A    
C73   H44   S    
C48   C82   S    
C5    C6    A    
O13   P1    S    
C28   O39   S    
C78   H17   S    
C59   H45   S    
C24   C25   A    
C16   C84   S    
C45   H8    S    
C5    C75   S    
C78   H14   S    
C59   H34   S    
O12   P2    S    
C33   C35   A    
C22   C24   A    
Ba1   Ba2   S    
C15   P4    S    
Ba1   O16   S    
C62   H32   S    
C41   C50   S    
C55   C57   A    
C19   C31   A    
C62   H31   S    
C39   C81   S    
C52   H23   S    
C44   C50   A    
C85   H70   S    
C40   H1    S    
C83   H65   S    
O34   P4    D    
C7    C11   A    
C4    H24   S    
C84   H66   S    
C52   C64   S    
C49   H27   S    
C9    C13   A    
C79   H54   S    
C46   C80   S    
C14   C15   A    
C61   H2    S    
C40   C63   S    
C29   H22   S    
C1    H6    S    
C16   H7    S    
O11   P6    D    
O1    P1    D    
C66   H38   S    
C80   O32   D    
C71   O26   D    
C1    H73   S    
C37   C43   A    
C23   O7    S    
C67   H13   S    
C77   H50   S    
C38   P2    S    
C60   O12   S    
Ba2   O40   S    
C19   C20   A    
C39   C41   A    
Ba2   O37   S    
C67   O9    S    
C28   C87   S    
C21   H19   S    
C76   H48   S    
O37   P4    S    
C76   O31   D    
C56   C73   S    
C48   C49   A    
C2    C88   A    
C63   O18   D    
C51   C53   A    
C8    C76   S    
C61   H74   S    
C4    C16   S    
O15   P2    D    
Ba1   O10   S    
C13   C14   A    
O10   P6    S    
C26   C30   A    
O17   P3    D    
C22   H20   S    
O3    P5    S    
C34   C71   S    
C37   C38   A    
C3    C5    A    
C2    C21   A    
C14   H18   S    
C51   H28   S    
C6    C7    A    
C18   C26   A    
C42   H29   S    
C18   C88   A    
C4    O23   S    
C68   H39   S    
C54   C58   A    
C30   C32   A    
O23   P3    S    
C1    C69   S    
C75   O30   D    
C35   C36   A    
C33   P6    S    
C32   C77   S    
C45   O3    S    
C59   C65   S    
C29   C30   A    
Ba1   O1    S    
C58   C83   S    
C12   C62   S    
O40   P7    S    
C60   C61   S    
C31   C32   A    
C4    H16   S    
C60   H67   S    
C56   H10   S    
Ba2   O41   S    
C83   H63   S    
C10   C11   A    
Ba1   P1    S    
C12   O14   S    
C1    C12   S    
Ba2   O6    S    
C81   H57   S    
C82   H62   S    
C38   C39   A    
C66   O21   D    
C47   C48   A    
C43   P3    S    
C8    C9    A    
C41   C42   A    
C65   H37   S    
O4    P1    S    
C54   C55   A    
C28   C86   S    
O8    P8    D    
Ba2   O4    S    
C87   H72   S    
C80   H55   S    
C42   C43   A    
C86   O35   D    
C70   H41   S    
C87   O36   D    
C61   C66   S    
C79   H52   S    
Ba2   P4    S    
C36   P1    S    
C23   C34   S    
Ba2   O34   S    
O39   P4    S    
C27   H21   S    
C28   C40   S    
C56   H9    S    
C45   C72   S    
C75   H47   S    
C2    C3    A    
C69   H40   S    
C7    C88   A    
O5    P2    S    
C9    C10   A    
C85   H68   S    
C54   P7    S    
C15   C17   A    
C35   H25   S    
C52   C59   S    
C67   H11   S    
C62   H33   S    
C16   C85   S    
C47   C57   S    
C52   O13   S    
C44   H26   S    
C44   C46   A    
C3    C74   S    
C17   C22   A    
C49   C50   A    
C27   C29   A    
O16   P3    S    
O2    P5    D    
C53   P5    S    
O7    P7    S    
Ba1   O15   S    
C34   H5    S    
C77   H51   S    
C23   C70   S    
O41   P5    S    
C46   C47   A    
C78   H15   S    
C10   C17   A    
Ba1   O5    S    
C31   C33   A    
C85   H69   S    
O14   P6    S    
C73   O28   D    
C55   C79   S    
C83   H64   S    
O38   P8    S    
C65   O20   D    
Ba1   P2    S    
C71   H42   S    
C74   O29   D    
C68   O22   D    
C84   O33   D    
C81   H58   S    
C74   H46   S    
C82   H61   S    
C64   H36   S    
C79   H53   S    
O6    P7    D    
C18   C19   A    
C40   H12   S    
Ba1   O4    S    
C6    C8    A    
C37   H30   S    
C60   H56   S    
C25   C26   A    
C20   C21   A    
C11   C25   A    
C67   C78   S    
C24   C27   A    
C81   H59   S    
C53   C58   A    
Ba1   O40   S    
C86   H71   S    
C63   H35   S    
C72   O27   D    
C45   C56   S    
C20   C36   A    
