data_mof_unit_28780.cif
_audit_creation_date              2012-12-11T14:52:34-0500
_audit_creation_method            fapswitch 2.2
_symmetry_space_group_name_H-M    P1
_symmetry_Int_Tables_number       1
_space_group_crystal_system       triclinic
_cell_length_a                    18.893495
_cell_length_b                    11.137344
_cell_length_c                    18.708929
_cell_angle_alpha                 89.988094
_cell_angle_beta                  90.828968
_cell_angle_gamma                 90.207471
_cell_volume                      3936.35768367

loop_
_atom_site_label
_atom_site_type_symbol
_atom_type_description
_atom_site_fract_x
_atom_site_fract_y
_atom_site_fract_z
_atom_type_partial_charge
Br1   Br    Br    0.136004 0.772045 0.418299 -0.442563
Br2   Br    Br    0.601263 0.508339 0.898723 -0.490227
Br3   Br    Br    0.898398 0.028164 0.100720 -0.476724
Br4   Br    Br    0.101265 0.008341 0.898730 -0.491087
Br5   Br    Br    0.565088 0.589855 0.606454 -0.372832
Br6   Br    Br    0.542133 0.556799 0.438200 -0.359905
Br7   Br    Br    0.067421 0.092823 0.609074 -0.372474
Br8   Br    Br    0.057617 0.061049 0.440016 -0.386754
Br9   Br    Br    0.702803 0.807586 0.635196 -0.492114
Br10  Br    Br    0.639901 0.277766 0.415670 -0.435898
Br11  Br    Br    0.207698 0.300806 0.615811 -0.506169
Br12  Br    Br    0.411864 0.987783 0.096674 -0.460769
Br13  Br    Br    0.520231 0.114332 0.935416 -0.464485
Br14  Br    Br    0.911853 0.487776 0.096665 -0.454912
Br15  Br    Br    0.020212 0.614341 0.935430 -0.465764
Br16  Br    Br    0.398400 0.528172 0.100739 -0.484829
C1    C     C_R   0.269682 0.048176 0.850497 0.584272
C2    C     C_R   0.678322 0.592142 0.025327 -0.187785
C3    C     C_3   0.039496 0.329500 0.062308 0.013403
C4    C     C_R   0.811145 0.057323 0.971817 -0.166056
C5    C     C_R   0.178326 0.092137 0.025332 -0.187688
C6    C     C_R   0.311918 0.555313 0.047140 0.094489
C7    C     C_R   0.682885 0.571411 0.951388 0.044072
C8    C     C_R   0.811911 0.055298 0.047130 0.093659
C9    C     C_R   0.182891 0.071405 0.951394 0.043974
C10   C     C_R   0.254887 0.602794 0.083879 0.091805
C11   C     C_R   0.744390 0.607326 0.915662 0.058687
C12   C     C_R   0.754881 0.102781 0.083872 0.092662
C13   C     C_R   0.730409 0.048383 0.150084 0.587121
C14   C     C_R   0.244398 0.107315 0.915670 0.057475
C15   C     C_R   0.210139 0.683384 0.049354 0.097407
C16   C     C_R   0.790827 0.688264 0.949186 0.072732
C17   C     C_R   0.710133 0.183371 0.049347 0.097310
C18   C     C_R   0.290840 0.188246 0.949197 0.072392
C19   C     C_R   0.208729 0.687291 0.974873 0.114600
C20   C     C_R   0.789362 0.702262 0.023201 0.087929
C21   C     C_R   0.708727 0.187287 0.974866 0.114072
C22   C     C_R   0.289369 0.202251 0.023210 0.088980
C23   C     C_R   0.257399 0.619946 0.934188 0.017802
C24   C     C_R   0.769679 0.548181 0.850494 0.585082
C25   C     C_R   0.733145 0.652611 0.062722 0.015607
C26   C     C_R   0.757392 0.119932 0.934181 0.018018
C27   C     C_R   0.233149 0.152605 0.062727 0.016807
C28   C     C_R   0.533670 0.727581 0.549736 0.154221
C29   C     C_R   0.532195 0.718944 0.475688 0.121155
C30   C     C_R   0.036159 0.229166 0.550931 0.162454
C31   C     C_R   0.038192 0.220671 0.476962 0.110823
C32   C     C_R   0.520404 0.824134 0.433229 0.000689
C33   C     C_R   0.511345 0.834372 0.582215 0.044633
C34   C     C_R   0.023491 0.324073 0.433937 0.005086
C35   C     C_R   0.230412 0.548389 0.150089 0.585210
C36   C     C_R   0.010799 0.334952 0.582265 0.047853
C37   C     C_R   0.507821 0.935055 0.466913 0.035317
C38   C     C_R   0.505586 0.941016 0.541746 0.043893
C39   C     C_R   0.006885 0.434031 0.466634 0.038286
C40   C     C_R   0.003296 0.440731 0.541229 0.046871
C41   C     C_R   0.470949 0.823719 0.854492 0.576373
C42   C     C_R   0.560368 0.817952 0.137960 0.544866
C43   C     C_R   0.970949 0.323719 0.854492 0.574857
C44   C     C_R   0.060367 0.317952 0.137959 0.543767
C45   C     C_R   0.193337 0.641402 0.533527 -0.141013
C46   C     C_3   0.563656 0.771704 0.954345 -0.158699
C47   C     C_R   0.714829 0.727937 0.490018 -0.147074
C48   C     C_R   0.695279 0.148598 0.532459 -0.152963
C49   C     C_R   0.224274 0.195607 0.477293 -0.101268
C50   C     C_R   0.197983 0.654224 0.461250 0.112732
C51   C     C_R   0.725623 0.695796 0.560873 0.124985
C52   C     C_R   0.699916 0.158451 0.460129 0.092739
C53   C     C_R   0.232160 0.176275 0.549686 0.118255
C54   C     C_R   0.249333 0.588791 0.424204 0.021479
C55   C     C_R   0.753910 0.582739 0.576207 0.089506
C56   C     C_R   0.749529 0.088242 0.423999 0.055544
C57   C     C_3   0.516824 0.721160 0.015743 -0.085045
C58   C     C_R   0.259641 0.066859 0.572451 0.090706
C59   C     C_R   0.305483 0.532485 0.462487 0.048054
C60   C     C_R   0.776053 0.504945 0.521937 0.109990
C61   C     C_R   0.803497 0.027244 0.462602 0.040896
C62   C     C_R   0.284591 0.980400 0.523907 0.112257
C63   C     C_R   0.304848 0.532224 0.536937 0.126160
C64   C     C_R   0.766049 0.537659 0.451019 0.123032
C65   C     C_R   0.802913 0.028624 0.537357 0.084865
C66   C     C_R   0.277884 0.001221 0.450986 0.091622
C67   C     C_R   0.249032 0.589508 0.572486 0.038905
C68   C     C_3   0.063659 0.271710 0.954346 -0.158895
C69   C     C_R   0.734163 0.648827 0.435766 0.022996
C70   C     C_R   0.749071 0.092173 0.571980 0.049571
C71   C     C_R   0.245959 0.107592 0.428808 0.038016
C72   C     C_R   0.263466 0.647222 0.856305 0.567064
C73   C     C_R   0.727151 0.680542 0.140025 0.552717
C74   C     C_R   0.763460 0.147203 0.856299 0.569398
C75   C     C_R   0.227151 0.180541 0.140026 0.551256
C76   C     C_R   0.271626 0.044773 0.646229 0.632807
C77   C     C_R   0.729686 0.047464 0.353145 0.580214
C78   C     C_R   0.770376 0.548145 0.647825 0.628497
C79   C     C_3   0.016828 0.221159 0.015742 -0.084784
C80   C     C_R   0.229688 0.547540 0.353231 0.557102
C81   C     C_R   0.473525 0.824094 0.649721 0.595930
C82   C     C_R   0.535692 0.821443 0.356379 0.584929
C83   C     C_R   0.973202 0.324155 0.649610 0.592677
C84   C     C_R   0.038017 0.321171 0.357192 0.599880
C85   C     C_R   0.259179 0.634709 0.644438 0.597789
C86   C     C_R   0.725909 0.687725 0.363551 0.535372
C87   C     C_R   0.759279 0.135492 0.644184 0.608824
C88   C     C_R   0.240166 0.137424 0.355656 0.554361
C89   C     C_3   0.476761 0.905008 0.034439 0.173517
C90   C     C_R   0.311154 0.557339 0.971825 -0.165373
C91   C     C_3   0.521346 0.952788 0.971959 0.202030
C92   C     C_3   0.976756 0.405001 0.034438 0.173584
C93   C     C_3   0.021340 0.452789 0.971961 0.201430
C94   C     C_3   0.455051 0.798247 0.988351 0.100675
C95   C     C_3   0.584113 0.879729 0.001162 0.046899
C96   C     C_3   0.955052 0.298237 0.988349 0.100790
C97   C     C_3   0.084109 0.379737 0.001165 0.046670
C98   C     C_3   0.499989 0.842050 0.926709 0.023758
C99   C     C_3   0.539499 0.829500 0.062307 0.013459
C100  C     C_3   0.999989 0.342050 0.926709 0.023627
Cr1   Cr    Cr6+3 0.229630 0.835900 0.747350 1.146272
Cr2   Cr    Cr6+3 0.614200 0.677120 0.250660 1.107534
Cr3   Cr    Cr6+3 0.885800 0.177120 0.749340 1.123512
Cr4   Cr    Cr6+3 0.114200 0.177120 0.250660 1.115972
Cr5   Cr    Cr6+3 0.770370 0.835900 0.252650 1.107236
Cr6   Cr    Cr6+3 0.729630 0.335900 0.747350 1.146125
Cr7   Cr    Cr6+3 0.270370 0.335900 0.252650 1.081198
Cr8   Cr    Cr6+3 0.387410 0.989850 0.750850 1.120283
Cr9   Cr    Cr6+3 0.612590 0.989850 0.249150 1.117284
Cr10  Cr    Cr6+3 0.887410 0.489850 0.750850 1.118891
Cr11  Cr    Cr6+3 0.112590 0.489850 0.249150 1.125661
Cr12  Cr    Cr6+3 0.385800 0.677120 0.749340 1.122840
H1    H     H_    0.151035 0.689172 0.559518 0.188044
H2    H     H_    0.631920 0.561711 0.053283 0.158453
H3    H     H_    0.857397 0.026333 0.943946 0.179069
H4    H     H_    0.131923 0.061710 0.053287 0.158426
H5    H     H_    0.357347 0.837339 0.948974 0.222818
H6    H     H_    0.358236 0.775697 0.029881 0.275978
H7    H     H_    0.681358 0.874874 0.047911 0.200064
H8    H     H_    0.681510 0.907799 0.960554 0.237754
H9    H     H_    0.857347 0.337310 0.948967 0.222714
H10   H     H_    0.858236 0.275676 0.029875 0.276149
H11   H     H_    0.181357 0.374874 0.047910 0.200675
H12   H     H_    0.692490 0.814984 0.477153 0.119288
H13   H     H_    0.181504 0.407838 0.960559 0.237032
H14   H     H_    0.351731 0.392299 0.411341 0.272976
H15   H     H_    0.379323 0.531783 0.383786 0.280047
H16   H     H_    0.863376 0.401372 0.517776 0.233002
H17   H     H_    0.787000 0.325338 0.514541 0.263532
H18   H     H_    0.857538 0.874381 0.440613 0.239987
H19   H     H_    0.907220 0.001966 0.440903 0.273940
H20   H     H_    0.371704 0.877542 0.529589 0.232428
H21   H     H_    0.296068 0.801331 0.526017 0.253666
H22   H     H_    0.408826 0.515018 0.562689 0.293969
H23   H     H_    0.654369 0.200716 0.557785 0.191948
H24   H     H_    0.362674 0.384268 0.561022 0.261903
H25   H     H_    0.830407 0.503606 0.367208 0.263130
H26   H     H_    0.749267 0.438934 0.360680 0.304209
H27   H     H_    0.906003 0.001574 0.565256 0.268108
H28   H     H_    0.854969 0.875451 0.564705 0.243926
H29   H     H_    0.344807 0.959955 0.371138 0.247066
H30   H     H_    0.265210 0.891043 0.365447 0.280967
H31   H     H_    0.180374 0.852506 0.077538 0.234623
H32   H     H_    0.114245 0.747434 0.080686 0.276003
H33   H     H_    0.821412 0.847009 0.906631 0.218643
H34   H     H_    0.202466 0.280115 0.458516 0.134185
H35   H     H_    0.890189 0.752330 0.926538 0.285748
H36   H     H_    0.680364 0.352491 0.077537 0.235088
H37   H     H_    0.614235 0.247417 0.080671 0.275751
H38   H     H_    0.321451 0.346990 0.906659 0.217853
H39   H     H_    0.390210 0.252277 0.926559 0.286046
H40   H     H_    0.198803 0.854466 0.949933 0.239641
H41   H     H_    0.119421 0.788193 0.966094 0.294699
H42   H     H_    0.892537 0.717666 0.051255 0.296837
H43   H     H_    0.853197 0.843842 0.028910 0.244010
H44   H     H_    0.698810 0.354477 0.949952 0.239455
H45   H     H_    0.601557 0.741087 0.914313 0.182297
H46   H     H_    0.619424 0.288195 0.966079 0.294643
H47   H     H_    0.392543 0.217677 0.051270 0.296911
H48   H     H_    0.353193 0.343848 0.028923 0.244490
H49   H     H_    0.529223 0.107098 0.438831 0.283069
H50   H     H_    0.442097 0.070111 0.436118 0.229632
H51   H     H_    0.445145 0.088920 0.559018 0.242723
H52   H     H_    0.534005 0.113643 0.563041 0.246481
H53   H     H_    0.022894 0.607506 0.437844 0.281779
H54   H     H_    0.937273 0.562166 0.434176 0.226461
H55   H     H_    0.939944 0.585912 0.556692 0.239014
H56   H     H_    0.514782 0.625593 0.031572 0.205970
H57   H     H_    0.028263 0.615083 0.561993 0.244999
H58   H     H_    0.101564 0.241093 0.914320 0.181290
H59   H     H_    0.014789 0.125592 0.031571 0.205594
H60   H     H_    0.357406 0.526350 0.943955 0.179248
N1    N     N_3   0.380929 0.769333 0.979518 -0.596582
N2    N     N_3   0.791016 0.459441 0.395772 -0.601879
N3    N     N_3   0.856415 0.966511 0.578135 -0.550002
N4    N     N_3   0.305787 0.916753 0.400810 -0.623428
N5    N     N_3   0.167920 0.764016 0.091007 -0.576985
N6    N     N_3   0.838457 0.758372 0.906657 -0.568057
N7    N     N_3   0.667909 0.263998 0.090999 -0.574805
N8    N     N_3   0.338480 0.258344 0.906675 -0.569277
N9    N     N_3   0.168132 0.778290 0.941502 -0.504543
N10   N     N_3   0.845941 0.765975 0.057758 -0.517928
N11   N     N_3   0.668141 0.278304 0.941499 -0.504623
N12   N     N_3   0.655786 0.925228 0.008475 -0.600780
N13   N     N_3   0.345943 0.265976 0.057769 -0.517194
N14   N     N_3   0.493030 0.040004 0.424766 -0.568535
N15   N     N_3   0.493617 0.053942 0.576598 -0.564732
N16   N     N_3   0.989266 0.536807 0.423653 -0.568142
N17   N     N_3   0.988716 0.553542 0.575202 -0.566994
N18   N     N_3   0.880931 0.269311 0.979514 -0.596779
N19   N     N_3   0.155781 0.425243 0.008483 -0.600694
N20   N     N_3   0.364928 0.479321 0.427639 -0.584464
N21   N     N_3   0.813028 0.396366 0.539692 -0.604461
N22   N     N_3   0.858492 0.964864 0.425796 -0.563126
N23   N     N_3   0.320522 0.875417 0.549394 -0.594415
N24   N     N_3   0.360912 0.474468 0.576397 -0.527790
O1    O     O_R   0.214270 0.709000 0.827470 -0.438808
O2    O     O_R   0.543270 0.717630 0.330160 -0.464974
O3    O     O_R   0.956730 0.217630 0.669840 -0.472139
O4    O     O_R   0.043270 0.217630 0.330160 -0.455700
O5    O     O_R   0.320620 0.625640 0.672920 -0.457278
O6    O     O_R   0.679380 0.625640 0.327080 -0.452245
O7    O     O_R   0.820620 0.125640 0.672920 -0.455033
O8    O     O_R   0.179380 0.125640 0.327080 -0.450182
O9    O     O_3   0.334280 0.834290 0.749180 -0.315719
O10   O     O_3   0.665720 0.834290 0.250820 -0.373940
O11   O     O_3   0.834280 0.334290 0.749180 -0.317737
O12   O     O_R   0.785730 0.709000 0.172530 -0.408994
O13   O     O_3   0.165720 0.334290 0.250820 -0.352867
O14   O     O_R   0.236160 0.958490 0.823130 -0.472784
O15   O     O_R   0.763840 0.958490 0.176870 -0.484027
O16   O     O_R   0.736160 0.458490 0.823130 -0.473368
O17   O     O_R   0.263840 0.458490 0.176870 -0.484146
O18   O     O_R   0.332080 0.075470 0.831280 -0.460342
O19   O     O_R   0.667920 0.075470 0.168720 -0.476055
O20   O     O_R   0.832080 0.575470 0.831280 -0.460104
O21   O     O_R   0.167920 0.575470 0.168720 -0.476791
O22   O     O_R   0.446300 0.918110 0.826620 -0.483877
O23   O     O_R   0.714270 0.209000 0.827470 -0.437785
O24   O     O_R   0.553700 0.918110 0.173380 -0.441150
O25   O     O_R   0.946300 0.418110 0.826620 -0.484339
O26   O     O_R   0.053700 0.418110 0.173380 -0.441785
O27   O     O_R   0.457110 0.716200 0.831760 -0.462086
O28   O     O_R   0.542890 0.716200 0.168240 -0.476513
O29   O     O_R   0.957110 0.216200 0.831760 -0.462298
O30   O     O_R   0.042890 0.216200 0.168240 -0.474919
O31   O     O_R   0.320980 0.624310 0.823030 -0.504941
O32   O     O_R   0.679020 0.624310 0.176970 -0.509511
O33   O     O_R   0.820980 0.124310 0.823030 -0.503890
O34   O     O_R   0.285730 0.209000 0.172530 -0.413182
O35   O     O_R   0.179020 0.124310 0.176970 -0.515313
O36   O     O_R   0.213890 0.710430 0.665540 -0.514004
O37   O     O_R   0.786110 0.710430 0.334460 -0.510240
O38   O     O_R   0.713890 0.210430 0.665540 -0.516021
O39   O     O_R   0.286110 0.210430 0.334460 -0.530547
O40   O     O_R   0.235810 0.959820 0.673020 -0.455141
O41   O     O_R   0.764190 0.959820 0.326980 -0.485014
O42   O     O_R   0.735810 0.459820 0.673020 -0.456050
O43   O     O_R   0.264190 0.459820 0.326980 -0.527678
O44   O     O_R   0.331700 0.076900 0.669350 -0.500227
O45   O     O_R   0.445950 0.919440 0.676520 -0.464103
O46   O     O_R   0.668300 0.076900 0.330650 -0.469172
O47   O     O_R   0.831700 0.576900 0.669350 -0.500529
O48   O     O_R   0.168300 0.576900 0.330650 -0.456695
O49   O     O_R   0.554050 0.919440 0.323480 -0.455266
O50   O     O_R   0.945950 0.419440 0.676520 -0.463872
O51   O     O_R   0.054050 0.419440 0.323480 -0.451520
O52   O     O_R   0.456730 0.717630 0.669840 -0.470276

loop_
_geom_bond_atom_site_label_1
_geom_bond_atom_site_label_2
_ccdc_geom_bond_type
C60   N21   S    
C28   C33   A    
C23   C90   A    
C25   C73   S    
C39   C40   A    
Cr3   O3    S    
C68   C97   S    
Br6   C29   S    
C35   O17   A    
C86   O37   A    
C47   H12   S    
Br15  C93   S    
C68   H58   S    
H42   N10   S    
Br13  C91   S    
H52   N15   S    
C72   O31   A    
Br9   C51   S    
Br4   C9    S    
H10   N18   S    
H36   N7    S    
C79   H59   S    
C57   C94   S    
C91   C98   S    
C55   C78   S    
C1    O18   A    
C37   C38   A    
Cr12  O27   S    
C89   C91   S    
H46   N11   S    
C64   C69   A    
C92   C96   S    
C83   O3    A    
Cr10  O47   S    
H54   N16   S    
C48   C52   A    
H6    N1    S    
C12   C13   S    
C43   O25   A    
C89   C94   S    
H38   N8    S    
C46   C98   S    
H43   N10   S    
C42   O24   A    
C79   C96   S    
C78   O42   A    
Br12  C89   S    
C77   O41   A    
C37   N14   S    
C29   C32   A    
C54   C80   S    
Cr2   O10   S    
C3    C97   S    
C18   N8    S    
C66   C71   A    
C74   O33   A    
C30   C36   A    
C92   C93   S    
Cr10  O50   S    
H44   N11   S    
C59   N20   S    
C58   C76   S    
C21   C26   A    
C81   O45   A    
C88   O8    A    
C93   C100  S    
C5    C27   A    
Cr1   O9    S    
C45   C50   A    
C65   N3    S    
C40   N17   S    
C4    C8    A    
C83   O50   A    
C43   C100  S    
C22   N13   S    
C49   H34   S    
Cr2   O6    S    
Cr5   O10   S    
C39   N16   S    
C46   C57   S    
Cr4   O35   S    
H14   N20   S    
C24   O20   A    
H19   N22   S    
Cr8   O45   S    
C94   C98   S    
Cr7   O43   S    
C65   C70   A    
C81   O52   A    
C93   C97   S    
C47   C51   A    
H25   N2    S    
Cr8   O22   S    
C3    C92   S    
Br14  C92   S    
Cr6   O23   S    
H26   N2    S    
C75   O34   A    
C10   C15   A    
C68   C100  S    
C88   O39   A    
C47   C69   A    
Cr3   O7    S    
C1    C14   S    
C20   C25   A    
C32   C37   A    
C64   N2    S    
C23   C72   S    
C73   O12   A    
C42   O28   A    
C70   C87   S    
H37   N7    S    
C48   C70   A    
H16   N21   S    
H18   N22   S    
Cr1   O40   S    
Cr2   O32   S    
C49   C71   A    
C31   C34   A    
H17   N21   S    
H9    N18   S    
C76   O40   A    
C63   N24   S    
C75   O35   A    
Cr1   O14   S    
Cr11  O21   S    
H8    N12   S    
C72   O1    A    
C46   C95   S    
C48   H23   S    
H5    N1    S    
C2    C7    A    
Br7   C30   S    
H21   N23   S    
C33   C38   A    
H47   N13   S    
C16   N6    S    
C45   C67   A    
H20   N23   S    
H7    N12   S    
C15   N5    S    
C57   H56   S    
C14   C18   A    
Cr10  O11   S    
C82   O2    A    
H40   N9    S    
H35   N6    S    
C6    C90   A    
C46   H45   S    
C33   C81   S    
Cr9   O46   S    
C17   C21   A    
C77   O46   A    
C52   C56   A    
C26   C74   S    
C68   C79   S    
H22   N24   S    
C24   O16   A    
Cr10  O20   S    
H33   N6    S    
H13   N19   S    
C5    H4    S    
Cr7   O39   S    
C56   C61   A    
H57   N17   S    
C95   N12   S    
Cr6   O38   S    
C1    O14   A    
C62   C66   A    
Cr5   O37   S    
H15   N20   S    
Cr7   O17   S    
C84   O51   A    
C61   C65   A    
C11   C24   S    
Cr4   O8    S    
Cr6   O16   S    
C80   O48   A    
Br2   C7    S    
Cr3   O11   S    
Br1   C50   S    
C73   O32   A    
C53   C58   A    
Cr2   O2    S    
Cr4   O30   S    
C16   C20   A    
Cr1   O1    S    
Cr3   O29   S    
C13   O19   A    
C41   O27   A    
H27   N3    S    
C61   N22   S    
H11   N19   S    
C76   O44   A    
Br5   C28   S    
H51   N15   S    
C12   C17   A    
C7    C11   A    
Cr6   O11   S    
H50   N14   S    
C58   C62   A    
C42   C99   S    
H55   N17   S    
C15   C19   A    
C2    C25   A    
H53   N16   S    
C44   O26   A    
C56   C77   S    
C4    H3    S    
C78   O47   A    
C97   N19   S    
C96   C100  S    
C3    C79   S    
C28   C29   A    
C19   N9    S    
H41   N9    S    
Cr1   O36   S    
Cr2   O28   S    
C9    C14   A    
H31   N5    S    
C5    C9    A    
C30   C31   A    
C84   O4    A    
Br16  C6    S    
C67   C85   S    
C66   N4    S    
C11   C16   A    
C18   C22   A    
C87   O38   A    
C91   C95   S    
H48   N13   S    
C89   C99   S    
C8    C12   A    
C80   O43   A    
Br3   C8    S    
Cr9   O19   S    
Cr5   O15   S    
Cr12  O9    S    
Cr6   O42   S    
Cr7   O34   S    
C4    C26   A    
C60   C64   A    
Br11  C53   S    
Cr9   O10   S    
Cr5   O41   S    
C41   C98   S    
Cr7   O13   S    
Br10  C52   S    
C3    C44   S    
Cr4   O4    S    
C32   C82   S    
C50   C54   A    
C94   N1    S    
C44   O30   A    
C34   C39   A    
C57   C99   S    
C45   H1    S    
C43   O29   A    
C62   N23   S    
Cr3   O33   S    
H29   N4    S    
C96   N18   S    
C22   C27   A    
Cr9   O24   S    
C10   C35   S    
C63   C67   A    
Cr10  O25   S    
C82   O49   A    
H49   N14   S    
C55   C60   A    
C36   C40   A    
C49   C53   A    
C19   C23   A    
Cr12  O5    S    
Cr5   O12   S    
Cr11  O51   S    
C74   O23   A    
C51   C55   A    
C21   N11   S    
H24   N24   S    
C20   N10   S    
Cr12  O52   S    
C27   C75   S    
C34   C84   S    
Br8   C31   S    
C2    H2    S    
C86   O6    A    
C90   H60   S    
C71   C88   S    
H28   N3    S    
C85   O5    A    
C36   C83   S    
C41   O22   A    
C35   O21   A    
Cr8   O9    S    
C17   N7    S    
Cr11  O26   S    
C6    C10   A    
H39   N8    S    
Cr9   O49   S    
Cr8   O44   S    
Cr11  O13   S    
Cr12  O31   S    
C13   O15   A    
Cr11  O48   S    
C54   C59   A    
C95   C99   S    
C85   O36   A    
C59   C63   A    
Cr4   O13   S    
Cr8   O18   S    
C69   C86   S    
C38   N15   S    
C87   O7    A    
H32   N5    S    
H30   N4    S    
