data_mof_unit_49478.cif
_audit_creation_date              2012-12-10T16:38:04-0500
_audit_creation_method            fapswitch 2.2
_symmetry_space_group_name_H-M    P1
_symmetry_Int_Tables_number       1
_space_group_crystal_system       triclinic
_cell_length_a                    28.018438
_cell_length_b                    18.26488
_cell_length_c                    17.048672
_cell_angle_alpha                 89.99999
_cell_angle_beta                  61.026879
_cell_angle_gamma                 90.00004
_cell_volume                      7632.79203495

loop_
_atom_site_label
_atom_site_type_symbol
_atom_type_description
_atom_site_fract_x
_atom_site_fract_y
_atom_site_fract_z
_atom_type_partial_charge
C1    C     C_R   0.706166 0.277593 0.673058 0.887546
C2    C     C_R   0.080881 0.499661 0.553934 -0.067482
C3    C     C_R   0.190845 0.214077 0.907344 0.076981
C4    C     C_R   0.613229 0.313185 0.045008 -0.205029
C5    C     C_R   0.391062 0.692370 0.952246 -0.191243
C6    C     C_R   0.386771 0.313184 0.954991 -0.205031
C7    C     C_R   0.608937 0.692370 0.047754 -0.191245
C8    C     C_R   0.113229 0.813185 0.045009 -0.205028
C9    C     C_R   0.891062 0.192369 0.952246 -0.191244
C10   C     C_R   0.886771 0.813186 0.954990 -0.205029
C11   C     C_R   0.108938 0.192370 0.047753 -0.191243
C12   C     C_R   0.640260 0.291947 0.091486 -0.220055
C13   C     C_R   0.419119 0.999661 0.446064 -0.067476
C14   C     C_R   0.364473 0.714635 0.905197 -0.212959
C15   C     C_R   0.359740 0.291947 0.908514 -0.220054
C16   C     C_R   0.635526 0.714636 0.094803 -0.212960
C17   C     C_R   0.140260 0.791948 0.091486 -0.220060
C18   C     C_R   0.864473 0.214635 0.905197 -0.212961
C19   C     C_R   0.859739 0.791950 0.908514 -0.220065
C20   C     C_R   0.135527 0.214636 0.094802 -0.212960
C21   C     C_R   0.776847 0.275658 0.763389 -0.183812
C22   C     C_R   0.225867 0.725381 0.233101 -0.182383
C23   C     C_R   0.223154 0.275658 0.236611 -0.183812
C24   C     C_R   0.580882 0.999661 0.553931 -0.067474
C25   C     C_R   0.774133 0.725381 0.766899 -0.182382
C26   C     C_R   0.276846 0.775659 0.763389 -0.183812
C27   C     C_R   0.725866 0.225381 0.233101 -0.182382
C28   C     C_R   0.723154 0.775658 0.236611 -0.183811
C29   C     C_R   0.274134 0.225381 0.766898 -0.182382
C30   C     C_R   0.805888 0.259549 0.808335 -0.218405
C31   C     C_R   0.197307 0.741892 0.187683 -0.219979
C32   C     C_R   0.194112 0.259549 0.191665 -0.218405
C33   C     C_R   0.802692 0.741892 0.812317 -0.219980
C34   C     C_R   0.305887 0.759549 0.808335 -0.218403
C35   C     C_R   0.072152 0.367753 0.571621 0.435907
C36   C     C_R   0.697307 0.241892 0.187683 -0.219978
C37   C     C_R   0.694112 0.759549 0.191665 -0.218403
C38   C     C_R   0.302693 0.241891 0.812317 -0.219977
C39   C     C_R   0.070192 0.104762 0.937942 0.893998
C40   C     C_R   0.928620 0.896310 0.063075 0.902701
C41   C     C_R   0.929808 0.104762 0.062058 0.893998
C42   C     C_R   0.071380 0.896310 0.936924 0.902698
C43   C     C_R   0.570191 0.604762 0.937942 0.893996
C44   C     C_R   0.428620 0.396310 0.063075 0.902704
C45   C     C_R   0.429808 0.604762 0.062058 0.893996
C46   C     C_R   0.927076 0.631763 0.430498 0.433619
C47   C     C_R   0.571380 0.396311 0.936924 0.902705
C48   C     C_R   0.536399 0.132628 0.535111 0.013231
C49   C     C_R   0.464175 0.866743 0.463544 -0.007123
C50   C     C_R   0.463604 0.132628 0.464881 0.013227
C51   C     C_R   0.535826 0.866743 0.536450 -0.007124
C52   C     C_R   0.036397 0.632628 0.535119 0.013218
C53   C     C_R   0.964174 0.366743 0.463549 -0.007123
C54   C     C_R   0.963602 0.632629 0.464889 0.013223
C55   C     C_R   0.035825 0.366743 0.536454 -0.007123
C56   C     C_R   0.517348 0.198893 0.518634 -0.210717
C57   C     C_R   0.927848 0.367754 0.428382 0.435906
C58   C     C_R   0.483076 0.800480 0.480456 -0.212060
C59   C     C_R   0.482654 0.198893 0.481357 -0.210726
C60   C     C_R   0.516925 0.800480 0.519538 -0.212059
C61   C     C_R   0.017345 0.698893 0.518644 -0.210746
C62   C     C_R   0.983075 0.300480 0.480460 -0.212059
C63   C     C_R   0.982652 0.698894 0.481367 -0.210730
C64   C     C_R   0.016924 0.300480 0.519542 -0.212060
C65   C     C_R   0.480985 0.066117 0.484012 0.006011
C66   C     C_R   0.518858 0.933188 0.516351 0.014298
C67   C     C_R   0.519017 0.066117 0.515980 0.006009
C68   C     C_R   0.072923 0.631761 0.569508 0.433623
C69   C     C_R   0.481144 0.933188 0.483642 0.014298
C70   C     C_R   0.980983 0.566117 0.484019 0.006013
C71   C     C_R   0.018857 0.433188 0.516356 0.014298
C72   C     C_R   0.019015 0.566117 0.515987 0.006015
C73   C     C_R   0.981142 0.433188 0.483647 0.014297
C74   C     C_R   0.961436 0.499652 0.468946 -0.066194
C75   C     C_R   0.038564 0.499652 0.531058 -0.066194
C76   C     C_R   0.461437 0.999652 0.468940 -0.066192
C77   C     C_R   0.538565 0.999652 0.531053 -0.066192
C78   C     C_R   0.897508 0.432716 0.435912 -0.030545
C79   C     C_R   0.572152 0.867753 0.571618 0.435906
C80   C     C_R   0.102836 0.566661 0.563092 -0.053521
C81   C     C_R   0.102492 0.432716 0.564091 -0.030546
C82   C     C_R   0.897163 0.566662 0.436912 -0.053526
C83   C     C_R   0.397508 0.932716 0.435908 -0.030547
C84   C     C_R   0.602836 0.066661 0.563089 -0.053532
C85   C     C_R   0.602492 0.932716 0.564088 -0.030546
C86   C     C_R   0.397164 0.066661 0.436907 -0.053529
C87   C     C_R   0.845884 0.434018 0.437205 -0.103698
C88   C     C_R   0.154317 0.565576 0.562126 -0.104109
C89   C     C_R   0.154116 0.434018 0.562797 -0.103698
C90   C     C_R   0.427078 0.131762 0.430491 0.433618
C91   C     C_R   0.845683 0.565577 0.437876 -0.104115
C92   C     C_R   0.345884 0.934018 0.437203 -0.103697
C93   C     C_R   0.654317 0.065576 0.562124 -0.104120
C94   C     C_R   0.654116 0.934018 0.562795 -0.103698
C95   C     C_R   0.345684 0.065576 0.437874 -0.104119
C96   C     C_R   0.822961 0.499838 0.432961 -0.315572
C97   C     C_R   0.177039 0.499837 0.567039 -0.315573
C98   C     C_R   0.322961 0.999837 0.432960 -0.315569
C99   C     C_R   0.677039 0.999838 0.567039 -0.315569
C100  C     C_3   0.036232 0.306123 0.705780 0.063517
C101  C     C_R   0.427849 0.867753 0.428378 0.435907
C102  C     C_3   0.059403 0.337515 0.763743 -0.336565
C103  C     C_3   0.021389 0.322996 0.863234 -0.964120
C104  C     C_3   0.951190 0.684941 0.294105 0.123774
C105  C     C_3   0.002461 0.732542 0.253738 -0.397897
C106  C     C_3   0.988617 0.813913 0.272220 -0.804272
C107  C     C_3   0.963768 0.306125 0.294222 0.063515
C108  C     C_3   0.940596 0.337516 0.236258 -0.336570
C109  C     C_3   0.978611 0.322999 0.136767 -0.964140
C110  C     C_3   0.048801 0.684937 0.705904 0.123757
C111  C     C_3   0.997531 0.732539 0.746260 -0.397888
C112  C     C_R   0.294598 0.723484 0.326162 0.879470
C113  C     C_R   0.572923 0.131762 0.569503 0.433616
C114  C     C_3   0.011377 0.813910 0.727776 -0.804069
C115  C     C_3   0.536232 0.806124 0.705777 0.063511
C116  C     C_3   0.559403 0.837515 0.763741 -0.336571
C117  C     C_3   0.521388 0.822997 0.863232 -0.964144
C118  C     C_3   0.451184 0.184941 0.294101 0.123779
C119  C     C_3   0.502454 0.232543 0.253725 -0.397905
C120  C     C_3   0.488613 0.313913 0.272218 -0.804293
C121  C     C_3   0.463768 0.806121 0.294220 0.063514
C122  C     C_3   0.440598 0.837516 0.236255 -0.336567
C123  C     C_3   0.478612 0.822996 0.136765 -0.964121
C124  C     C_R   0.723366 0.271177 0.951326 0.017739
C125  C     C_3   0.548817 0.184939 0.705894 0.123792
C126  C     C_3   0.497547 0.232543 0.746275 -0.397906
C127  C     C_3   0.511390 0.313911 0.727775 -0.804302
C128  C     C_R   0.280558 0.733156 0.045110 0.016266
C129  C     C_R   0.276634 0.271176 0.048673 0.017738
C130  C     C_R   0.719441 0.733156 0.954890 0.016265
C131  C     C_R   0.223366 0.771177 0.951326 0.017739
C132  C     C_R   0.780558 0.233155 0.045110 0.016266
C133  C     C_R   0.776633 0.771177 0.048674 0.017739
C134  C     C_R   0.219442 0.233155 0.954889 0.016266
C135  C     C_R   0.779869 0.254140 0.902756 0.047501
C136  C     C_R   0.293834 0.277593 0.326942 0.887547
C137  C     C_R   0.224006 0.749631 0.093469 0.048668
C138  C     C_R   0.220131 0.254140 0.097243 0.047502
C139  C     C_R   0.775994 0.749632 0.906532 0.048668
C140  C     C_R   0.279869 0.754141 0.902756 0.047501
C141  C     C_R   0.724005 0.249631 0.093469 0.048667
C142  C     C_R   0.720131 0.754141 0.097244 0.047501
C143  C     C_R   0.275995 0.249631 0.906531 0.048667
C144  C     C_R   0.808596 0.234379 0.949850 0.049183
C145  C     C_R   0.195638 0.770554 0.046466 0.051097
C146  C     C_R   0.191404 0.234380 0.050150 0.049183
C147  C     C_R   0.705402 0.723484 0.673838 0.879469
C148  C     C_R   0.804361 0.770555 0.953534 0.051100
C149  C     C_R   0.308596 0.734380 0.949850 0.049182
C150  C     C_R   0.695638 0.270553 0.046466 0.051097
C151  C     C_R   0.691403 0.734380 0.050150 0.049183
C152  C     C_R   0.304362 0.270553 0.953534 0.051097
C153  C     C_R   0.639906 0.314593 0.951199 0.078545
C154  C     C_R   0.363606 0.689653 0.046205 0.080432
C155  C     C_R   0.360094 0.314593 0.048801 0.078546
C156  C     C_R   0.636393 0.689653 0.953795 0.080432
C157  C     C_R   0.139906 0.814593 0.951199 0.078549
C158  C     C_R   0.206165 0.777593 0.673058 0.887558
C159  C     C_R   0.863606 0.189652 0.046205 0.080432
C160  C     C_R   0.860094 0.814593 0.048800 0.078551
C161  C     C_R   0.136394 0.189652 0.953795 0.080432
C162  C     C_R   0.614332 0.341290 0.901990 -0.143316
C163  C     C_R   0.388328 0.661774 0.096114 -0.139041
C164  C     C_R   0.385669 0.341289 0.098010 -0.143317
C165  C     C_R   0.611672 0.661775 0.903886 -0.139039
C166  C     C_R   0.114331 0.841289 0.901991 -0.143320
C167  C     C_R   0.888328 0.161774 0.096114 -0.139040
C168  C     C_R   0.885669 0.841289 0.098009 -0.143318
C169  C     C_R   0.794598 0.223484 0.326162 0.879470
C170  C     C_R   0.111672 0.161774 0.903886 -0.139041
C171  C     C_R   0.636047 0.325207 0.812641 -0.316944
C172  C     C_R   0.366400 0.677994 0.185694 -0.298374
C173  C     C_R   0.363954 0.325206 0.187359 -0.316947
C174  C     C_R   0.633600 0.677995 0.814306 -0.298374
C175  C     C_R   0.136046 0.825205 0.812641 -0.316945
C176  C     C_R   0.866399 0.177994 0.185694 -0.298374
C177  C     C_R   0.863954 0.825205 0.187358 -0.316947
C178  C     C_R   0.133600 0.177994 0.814306 -0.298374
C179  C     C_R   0.687666 0.296728 0.766186 -0.116581
C180  C     C_R   0.793834 0.777593 0.326942 0.887551
C181  C     C_R   0.314431 0.705767 0.232018 -0.122202
C182  C     C_R   0.312334 0.296728 0.233813 -0.116580
C183  C     C_R   0.685569 0.705768 0.767982 -0.122203
C184  C     C_R   0.187666 0.796727 0.766187 -0.116578
C185  C     C_R   0.814431 0.205767 0.232018 -0.122203
C186  C     C_R   0.812334 0.796727 0.233813 -0.116578
C187  C     C_R   0.185569 0.205767 0.767982 -0.122202
C188  C     C_R   0.719998 0.286527 0.809952 0.067988
C189  C     C_R   0.282796 0.716162 0.187235 0.069505
C190  C     C_R   0.280002 0.286527 0.190047 0.067988
C191  C     C_R   0.205402 0.223484 0.673838 0.879470
C192  C     C_R   0.717203 0.716162 0.812765 0.069506
C193  C     C_R   0.219998 0.786527 0.809953 0.067985
C194  C     C_R   0.782796 0.216161 0.187236 0.069505
C195  C     C_R   0.780002 0.786527 0.190047 0.067986
C196  C     C_R   0.217204 0.216161 0.812764 0.069505
C197  C     C_R   0.690518 0.129539 0.537158 0.912006
C198  C     C_R   0.309602 0.870254 0.462337 0.913712
C199  C     C_R   0.309482 0.129539 0.462842 0.912010
C200  C     C_R   0.690398 0.870254 0.537663 0.913710
C201  C     C_R   0.190518 0.629539 0.537158 0.912023
C202  C     C_R   0.919118 0.499662 0.446069 -0.067477
C203  C     C_R   0.809602 0.370254 0.462337 0.913710
C204  C     C_R   0.809482 0.629539 0.462842 0.912013
C205  C     C_R   0.190398 0.370254 0.537663 0.913713
C206  C     C_R   0.694335 0.289920 0.904304 0.079468
C207  C     C_R   0.309155 0.714078 0.092656 0.076981
C208  C     C_R   0.305665 0.289919 0.095696 0.079468
C209  C     C_R   0.690844 0.714078 0.907344 0.076981
C210  C     C_R   0.194334 0.789920 0.904304 0.079469
C211  C     C_R   0.809155 0.214077 0.092656 0.076981
C212  C     C_R   0.805665 0.789920 0.095696 0.079467
H1    H     H_    0.029808 0.248453 0.533501 0.173501
H2    H     H_    0.216321 0.499883 0.565022 0.194545
H3    H     H_    0.461321 0.848039 0.096637 0.271304
H4    H     H_    0.482955 0.763166 0.123364 0.254770
H5    H     H_    0.575850 0.202819 0.733078 0.157732
H6    H     H_    0.536924 0.127198 0.728735 0.070985
H7    H     H_    0.470811 0.215937 0.718013 0.217166
H8    H     H_    0.474838 0.223191 0.819780 0.177204
H9    H     H_    0.533752 0.332809 0.762760 0.245717
H10   H     H_    0.473408 0.346481 0.752521 0.218754
H11   H     H_    0.536645 0.324311 0.654785 0.275969
H12   H     H_    0.283679 0.999883 0.434978 0.194545
H13   H     H_    0.716321 0.999883 0.565023 0.194544
H14   H     H_    0.613869 0.339417 0.777475 0.188518
H15   H     H_    0.388497 0.663823 0.221121 0.194267
H16   H     H_    0.386131 0.339416 0.222524 0.188520
H17   H     H_    0.611503 0.663824 0.778879 0.194267
H18   H     H_    0.113868 0.839414 0.777477 0.188519
H19   H     H_    0.888497 0.163823 0.221122 0.194267
H20   H     H_    0.886132 0.839414 0.222523 0.188522
H21   H     H_    0.969422 0.750953 0.468218 0.181419
H22   H     H_    0.111503 0.163823 0.778878 0.194267
H23   H     H_    0.570471 0.326502 0.083800 0.169345
H24   H     H_    0.433986 0.679117 0.913929 0.150517
H25   H     H_    0.429529 0.326501 0.916199 0.169343
H26   H     H_    0.566013 0.679118 0.086071 0.150518
H27   H     H_    0.070471 0.826502 0.083802 0.169344
H28   H     H_    0.933986 0.179117 0.913930 0.150517
H29   H     H_    0.929529 0.826504 0.916197 0.169337
H30   H     H_    0.066014 0.179118 0.086070 0.150517
H31   H     H_    0.616606 0.294612 0.163297 0.144531
H32   H     H_    0.970192 0.248453 0.466500 0.173501
H33   H     H_    0.389011 0.714292 0.833317 0.132569
H34   H     H_    0.383394 0.294612 0.836703 0.144532
H35   H     H_    0.610989 0.714293 0.166683 0.132569
H36   H     H_    0.116607 0.794613 0.163297 0.144532
H37   H     H_    0.889011 0.214292 0.833317 0.132569
H38   H     H_    0.883392 0.794616 0.836703 0.144525
H39   H     H_    0.110989 0.214292 0.166682 0.132569
H40   H     H_    0.800615 0.282697 0.691704 0.178230
H41   H     H_    0.201718 0.716450 0.304401 0.177562
H42   H     H_    0.199385 0.282697 0.308295 0.178230
H43   H     H_    0.030574 0.750953 0.531796 0.181414
H44   H     H_    0.798282 0.716450 0.695600 0.177562
H45   H     H_    0.300615 0.782697 0.691704 0.178230
H46   H     H_    0.701718 0.216451 0.304401 0.177563
H47   H     H_    0.699385 0.782697 0.308296 0.178230
H48   H     H_    0.298282 0.216450 0.695599 0.177563
H49   H     H_    0.849193 0.252658 0.766431 0.139142
H50   H     H_    0.153762 0.746509 0.228973 0.138542
H51   H     H_    0.150807 0.252659 0.233569 0.139143
H52   H     H_    0.846238 0.746509 0.771028 0.138541
H53   H     H_    0.349193 0.752660 0.766431 0.139142
H54   H     H_    0.529809 0.748453 0.533498 0.173501
H55   H     H_    0.653762 0.246509 0.228973 0.138544
H56   H     H_    0.650807 0.752660 0.233570 0.139142
H57   H     H_    0.346238 0.246509 0.771027 0.138544
H58   H     H_    0.024091 0.248295 0.725735 0.162053
H59   H     H_    0.998210 0.335919 0.719093 0.117882
H60   H     H_    0.099701 0.312207 0.744057 0.237171
H61   H     H_    0.065297 0.397523 0.752604 0.208897
H62   H     H_    0.980534 0.347178 0.884605 0.267939
H63   H     H_    0.038682 0.348038 0.903361 0.271305
H64   H     H_    0.017044 0.263167 0.876635 0.254770
H65   H     H_    0.469425 0.250953 0.468207 0.181418
H66   H     H_    0.924163 0.702825 0.266912 0.157738
H67   H     H_    0.963083 0.627201 0.271264 0.070990
H68   H     H_    0.029188 0.715942 0.282022 0.217167
H69   H     H_    0.025182 0.723182 0.180232 0.177200
H70   H     H_    0.966275 0.832807 0.237194 0.245694
H71   H     H_    0.026600 0.846479 0.247499 0.218757
H72   H     H_    0.963340 0.824320 0.345211 0.275968
H73   H     H_    0.975910 0.248298 0.274266 0.162056
H74   H     H_    0.001789 0.335923 0.280908 0.117885
H75   H     H_    0.900300 0.312205 0.255944 0.237174
H76   H     H_    0.470192 0.748453 0.466497 0.173501
H77   H     H_    0.934701 0.397523 0.247399 0.208900
H78   H     H_    0.019465 0.347182 0.115397 0.267943
H79   H     H_    0.961318 0.348038 0.096641 0.271307
H80   H     H_    0.982958 0.263170 0.123364 0.254774
H81   H     H_    0.075822 0.702820 0.733107 0.157732
H82   H     H_    0.036906 0.627198 0.728741 0.070998
H83   H     H_    0.970807 0.715938 0.717967 0.217148
H84   H     H_    0.974804 0.723179 0.819768 0.177184
H85   H     H_    0.033720 0.832807 0.762813 0.245659
H86   H     H_    0.973388 0.846473 0.752497 0.218729
H87   H     H_    0.530578 0.250953 0.531782 0.181412
H88   H     H_    0.036661 0.824321 0.654773 0.275919
H89   H     H_    0.524090 0.748297 0.725732 0.162057
H90   H     H_    0.498211 0.835921 0.719090 0.117886
H91   H     H_    0.599700 0.812204 0.744056 0.237175
H92   H     H_    0.565299 0.897522 0.752600 0.208901
H93   H     H_    0.480535 0.847181 0.884602 0.267945
H94   H     H_    0.538681 0.848036 0.903359 0.271308
H95   H     H_    0.517041 0.763169 0.876634 0.254774
H96   H     H_    0.424153 0.202825 0.266917 0.157739
H97   H     H_    0.463076 0.127201 0.271260 0.070988
H98   H     H_    0.783679 0.499883 0.434977 0.194544
H99   H     H_    0.529187 0.215938 0.281994 0.217167
H100  H     H_    0.525167 0.223189 0.180219 0.177203
H101  H     H_    0.466261 0.332811 0.237213 0.245707
H102  H     H_    0.526595 0.346479 0.247486 0.218757
H103  H     H_    0.463346 0.324315 0.345209 0.275971
H104  H     H_    0.475907 0.748293 0.274266 0.162055
H105  H     H_    0.501790 0.835915 0.280907 0.117883
H106  H     H_    0.400300 0.812210 0.255941 0.237170
H107  H     H_    0.434706 0.897524 0.247394 0.208897
H108  H     H_    0.519468 0.847174 0.115394 0.267940
O1    O     O_R   0.746490 0.236330 0.638080 -0.646392
O2    O     O_R   0.325830 0.813840 0.483730 -0.578922
O3    O     O_R   0.325830 0.186160 0.483730 -0.580159
O4    O     O_R   0.674170 0.813840 0.516270 -0.578922
O5    O     O_R   0.174170 0.686160 0.516270 -0.580162
O6    O     O_R   0.825830 0.313840 0.483730 -0.578923
O7    O     O_R   0.825830 0.686160 0.483730 -0.580160
O8    O     O_R   0.174170 0.313840 0.516270 -0.578923
O9    O     O_R   0.739960 0.127620 0.525000 -0.636622
O10   O     O_R   0.260040 0.872380 0.475000 -0.639128
O11   O     O_R   0.260040 0.127620 0.475000 -0.636624
O12   O     O_R   0.253510 0.763670 0.361920 -0.644400
O13   O     O_R   0.739960 0.872380 0.525000 -0.639126
O14   O     O_R   0.239960 0.627620 0.525000 -0.636625
O15   O     O_R   0.760040 0.372380 0.475000 -0.639125
O16   O     O_R   0.760040 0.627620 0.475000 -0.636623
O17   O     O_R   0.239960 0.372380 0.525000 -0.639127
O18   O     O_R   0.680700 0.294870 0.629350 -0.612376
O19   O     O_R   0.319300 0.705130 0.370650 -0.611257
O20   O     O_R   0.319300 0.294870 0.370650 -0.612375
O21   O     O_R   0.680700 0.705130 0.629350 -0.611258
O22   O     O_R   0.180700 0.794870 0.629350 -0.612371
O23   O     O_R   0.253510 0.236330 0.361920 -0.646392
O24   O     O_R   0.819300 0.205130 0.370650 -0.611258
O25   O     O_R   0.819300 0.794870 0.370650 -0.612374
O26   O     O_R   0.180700 0.205130 0.629350 -0.611258
O27   O     O_R   0.062020 0.072840 0.007170 -0.611842
O28   O     O_R   0.937980 0.927160 0.992830 -0.613424
O29   O     O_R   0.937980 0.072840 0.992830 -0.611842
O30   O     O_R   0.062020 0.927160 0.007170 -0.613420
O31   O     O_R   0.562020 0.572840 0.007170 -0.611842
O32   O     O_R   0.437980 0.427160 0.992830 -0.613420
O33   O     O_R   0.437980 0.572840 0.992830 -0.611843
O34   O     O_R   0.746490 0.763670 0.638080 -0.644398
O35   O     O_R   0.562020 0.427160 0.007170 -0.613422
O36   O     O_R   0.947860 0.073950 0.109290 -0.618002
O37   O     O_R   0.052140 0.926050 0.890710 -0.620267
O38   O     O_R   0.052140 0.073950 0.890710 -0.618002
O39   O     O_R   0.947860 0.926050 0.109290 -0.620263
O40   O     O_R   0.447860 0.573950 0.109290 -0.618003
O41   O     O_R   0.552140 0.426050 0.890710 -0.620259
O42   O     O_R   0.552140 0.573950 0.890710 -0.618002
O43   O     O_R   0.447860 0.426050 0.109290 -0.620262
O44   O     O_3   0.076760 0.305768 0.614384 -0.626421
O45   O     O_R   0.246490 0.736330 0.638080 -0.646393
O46   O     O_3   0.922684 0.694106 0.388279 -0.604336
O47   O     O_3   0.923240 0.305769 0.385618 -0.626421
O48   O     O_3   0.077315 0.694103 0.611730 -0.604338
O49   O     O_3   0.576760 0.805769 0.614381 -0.626421
O50   O     O_3   0.422684 0.194107 0.388275 -0.604335
O51   O     O_3   0.423239 0.805768 0.385616 -0.626421
O52   O     O_3   0.577316 0.194107 0.611721 -0.604331
O53   O     O_R   0.753510 0.263670 0.361920 -0.644398
O54   O     O_R   0.753510 0.736330 0.361920 -0.646392
O55   O     O_R   0.246490 0.263670 0.638080 -0.644398
O56   O     O_R   0.674170 0.186160 0.516270 -0.580159
Zn1   Zn    Zn3+2 0.792340 0.208750 0.507670 0.976924
Zn2   Zn    Zn3+2 0.494040 0.500000 0.919480 0.927196
Zn3   Zn    Zn3+2 0.005960 0.000000 0.080520 0.927194
Zn4   Zn    Zn3+2 0.994040 0.000000 0.919480 0.927189
Zn5   Zn    Zn3+2 0.207660 0.791250 0.492330 0.974248
Zn6   Zn    Zn3+2 0.207660 0.208750 0.492330 0.976923
Zn7   Zn    Zn3+2 0.792340 0.791250 0.507670 0.974253
Zn8   Zn    Zn3+2 0.292340 0.708750 0.507670 0.976925
Zn9   Zn    Zn3+2 0.707660 0.291250 0.492330 0.974257
Zn10  Zn    Zn3+2 0.707660 0.708750 0.492330 0.976925
Zn11  Zn    Zn3+2 0.292340 0.291250 0.507670 0.974255
Zn12  Zn    Zn3+2 0.505960 0.500000 0.080520 0.927194

loop_
_geom_bond_atom_site_label_1
_geom_bond_atom_site_label_2
_ccdc_geom_bond_type
C132  C144  A    
C126  C127  S    
C136  O23   A    
O14   Zn8   S    
C10   H29   S    
C170  C178  A    
C50   C59   A    
C103  H64   S    
C52   C61   A    
C79   O49   S    
C68   O48   S    
C54   C63   A    
C58   C60   A    
C184  C193  A    
C28   C195  A    
C159  C211  A    
C108  C109  S    
C39   O38   A    
C61   C63   A    
C110  C111  S    
C62   C64   A    
C131  C140  A    
C197  O56   A    
C134  C143  A    
C42   O30   A    
C107  O47   S    
C50   C90   A    
C89   C205  S    
C162  C171  A    
C118  O50   S    
C70   C74   A    
C105  H69   S    
C4    C12   A    
C24   C85   A    
C88   C97   A    
O30   Zn3   S    
C4    C153  A    
O5    Zn5   S    
C49   C69   A    
C123  H4    S    
C40   O39   A    
C21   H40   S    
O38   Zn4   S    
C8    C157  A    
C104  C105  S    
C25   H44   S    
C126  H8    S    
C109  H78   S    
C121  H105  S    
C134  C146  A    
C110  H81   S    
C11   C20   A    
O16   Zn10  S    
C37   C142  A    
C29   H48   S    
C12   C150  A    
C107  H74   S    
C129  C152  A    
C86   C90   A    
C71   C73   A    
C179  C188  A    
C17   H36   S    
C82   C91   A    
C51   C66   A    
C120  H102  S    
C142  C151  A    
O33   Zn2   S    
O54   Zn10  S    
O21   Zn10  S    
C154  C163  A    
O45   Zn8   S    
C54   C70   A    
C28   H47   S    
C131  C210  A    
C164  C173  A    
C163  C172  A    
C173  C182  A    
C119  H100  S    
C20   C146  A    
C112  O19   A    
C10   C160  A    
C79   C85   A    
C105  C106  S    
C66   C77   A    
C35   O44   S    
C124  C135  A    
C156  C209  A    
C57   C78   A    
C41   O29   A    
C8    C17   A    
C103  H62   S    
C25   C192  A    
C200  O4    A    
C19   H38   S    
C191  O55   A    
C19   C148  A    
C56   C59   A    
O36   Zn3   S    
O11   Zn6   S    
O28   Zn4   S    
C45   C163  S    
C80   C88   A    
C23   C32   A    
C26   H45   S    
C33   C139  A    
C14   C149  A    
C34   C140  A    
C159  C167  A    
C16   C151  A    
C106  H72   S    
C84   C93   A    
C160  C168  A    
C48   C67   A    
C38   H57   S    
C86   C95   A    
C24   C77   A    
C117  H94   S    
C118  H97   S    
O8    Zn6   S    
C121  O51   S    
C2    C81   A    
C182  C190  A    
C55   C71   A    
C2    C75   A    
C5    C154  A    
C100  H59   S    
C78   C87   A    
C38   C143  A    
C67   C77   A    
O29   Zn4   S    
O19   Zn8   S    
C198  O2    A    
C58   H76   S    
C197  O9    A    
C33   H52   S    
C133  C142  A    
C172  H15   S    
C116  H92   S    
C115  C116  S    
C69   C76   A    
C85   C94   A    
C46   C82   A    
C47   C162  S    
C203  O15   A    
C172  C181  A    
C7    C156  A    
C98   H12   S    
C29   C38   A    
C114  H85   S    
C107  C108  S    
C15   H34   S    
C91   C204  S    
C125  H6    S    
C91   C96   A    
C61   H43   S    
C45   O33   A    
C87   C96   A    
O22   Zn5   S    
C171  C179  A    
C132  C211  A    
C72   C75   A    
C92   C198  S    
O7    Zn7   S    
C141  C150  A    
C139  C148  A    
C111  H83   S    
C64   H1    S    
C178  H22   S    
C129  C208  A    
C3    C161  A    
C165  C174  A    
C106  H70   S    
C37   H56   S    
C93   C197  S    
C32   C138  A    
C199  O3    A    
C171  H14   S    
O26   Zn6   S    
C27   C194  A    
C180  C186  S    
C201  O14   A    
O34   Zn7   S    
C122  H106  S    
O9    Zn1   S    
C31   C137  A    
C21   C188  A    
O25   Zn7   S    
C203  O6    A    
C132  C141  A    
C83   C101  A    
O3    Zn11  S    
C6    C155  A    
C60   H54   S    
C112  C181  S    
O20   Zn11  S    
C205  O17   A    
C113  O52   S    
C103  H63   S    
C195  C212  A    
O6    Zn1   S    
C193  C210  A    
C28   C37   A    
C138  C146  A    
O2    Zn8   S    
C131  C145  A    
C115  H90   S    
C102  C103  S    
C50   C65   A    
C51   C79   A    
C9    C18   A    
C136  C182  S    
C105  H68   S    
C48   C113  A    
C130  C209  A    
C119  H99   S    
C51   C60   A    
C1    O18   A    
C115  O49   S    
C140  C149  A    
C109  H80   S    
C23   C190  A    
C204  O16   A    
C96   H98   S    
C123  H3    S    
C187  C196  A    
C73   C74   A    
C34   H53   S    
C185  C194  A    
O39   Zn3   S    
C183  C192  A    
C177  H20   S    
C176  C185  A    
C100  H58   S    
C40   O28   A    
C121  H104  S    
C110  H82   S    
C188  C206  A    
C166  C175  A    
C65   C76   A    
C102  H60   S    
C137  C145  A    
C107  H73   S    
C49   C101  A    
C101  O51   S    
O17   Zn11  S    
C18   H37   S    
C168  C177  A    
C11   C161  A    
C22   H41   S    
C127  H10   S    
C169  O53   A    
C181  C189  A    
C65   C67   A    
C5    H24   S    
C180  O54   A    
C93   C99   A    
C14   H33   S    
C81   C89   A    
C175  H18   S    
O27   Zn3   S    
C114  H88   S    
O12   Zn5   S    
C23   H42   S    
C130  C139  A    
C104  H67   S    
C87   C203  S    
C15   C152  A    
C205  O8    A    
C43   C165  S    
C56   H87   S    
C6    H25   S    
C95   C98   A    
C155  C208  A    
C53   C57   A    
C74   C202  A    
C176  H19   S    
C32   H51   S    
C17   C145  A    
C36   C141  A    
C158  O22   A    
C7    H26   S    
C10   C19   A    
O42   Zn2   S    
O18   Zn9   S    
C5    C14   A    
C99   H13   S    
C125  O52   S    
C178  C187  A    
C7    C16   A    
C147  O34   A    
C117  H93   S    
C59   H65   S    
C125  C126  S    
C36   H55   S    
C126  H7    S    
C82   C202  A    
C109  H79   S    
C16   H35   S    
C27   H46   S    
C124  C150  A    
C123  H108  S    
O43   Zn12  S    
C47   O41   A    
C204  O7    A    
C201  O5    A    
C174  C183  A    
C1    O1    A    
C119  C120  S    
C62   H32   S    
C200  O13   A    
C27   C36   A    
C21   C30   A    
C13   C83   A    
C3    C196  A    
C153  C162  A    
C30   H49   S    
C120  H101  S    
C3    C134  A    
C18   C144  A    
C156  C165  A    
C189  C207  A    
C39   O27   A    
O41   Zn2   S    
C111  C114  S    
C94   C200  S    
C102  H61   S    
C192  C209  A    
C100  O44   S    
C177  C186  A    
C66   C69   A    
C128  C149  A    
C30   C135  A    
C130  C151  A    
C114  H86   S    
C169  O24   A    
C44   C164  S    
C136  O20   A    
C26   C193  A    
C158  C184  S    
O23   Zn6   S    
C42   C166  S    
C175  C184  A    
C43   O42   A    
C125  H5    S    
C68   C80   A    
C84   C113  A    
C44   O32   A    
C45   O40   A    
C35   C81   A    
C41   O36   A    
C92   C98   A    
C199  O11   A    
C83   C92   A    
O35   Zn12  S    
C31   H50   S    
C52   C72   A    
C191  O26   A    
C39   C170  S    
C46   O46   S    
O10   Zn5   S    
C9    C159  A    
O15   Zn9   S    
C42   O37   A    
C116  C117  S    
C106  H71   S    
C44   O43   A    
C118  C119  S    
C194  C211  A    
C26   C34   A    
C129  C138  A    
C117  H95   S    
C118  H96   S    
C13   C86   A    
O55   Zn11  S    
C128  C207  A    
O1    Zn1   S    
C88   C201  S    
O53   Zn9   S    
C187  C191  S    
C52   C68   A    
C127  H11   S    
C6    C15   A    
C157  C210  A    
C104  O46   S    
C46   C54   A    
C57   O47   S    
C9    H28   S    
C90   O50   S    
C160  C212  A    
C110  O48   S    
O37   Zn4   S    
C22   C31   A    
C35   C55   A    
O56   Zn9   S    
C120  H103  S    
C186  C195  A    
C104  H66   S    
C112  O12   A    
C20   H39   S    
C116  H91   S    
C49   C58   A    
C89   C97   A    
C22   C189  A    
C198  O10   A    
C128  C137  A    
C63   H21   S    
C108  H77   S    
C13   C76   A    
C12   H31   S    
C55   C64   A    
C100  C102  S    
C121  C122  S    
C115  H89   S    
C133  C148  A    
O4    Zn10  S    
C180  O25   A    
C161  C170  A    
C190  C208  A    
C135  C144  A    
C4    H23   S    
C158  O45   A    
C47   O35   A    
C8    H27   S    
C147  C183  S    
C48   C56   A    
C143  C152  A    
C111  H84   S    
C124  C206  A    
C53   C73   A    
C78   C202  A    
O24   Zn1   S    
C173  H16   S    
O13   Zn7   S    
C157  C166  A    
C43   O31   A    
C155  C164  A    
C29   C196  A    
O32   Zn2   S    
C97   H2    S    
C24   C84   A    
C169  C185  S    
C108  H75   S    
C71   C75   A    
C1    C179  S    
O31   Zn12  S    
C94   C99   A    
C41   C167  S    
C174  H17   S    
C40   C168  S    
C2    C80   A    
C127  H9    S    
C153  C206  A    
C122  H107  S    
C53   C62   A    
C95   C199  S    
O40   Zn12  S    
C25   C33   A    
C11   H30   S    
C70   C72   A    
C122  C123  S    
C154  C207  A    
C133  C212  A    
C167  C176  A    
C147  O21   A    
