data_mof_unit_9539.cif
_audit_creation_date              2013-03-05T16:12:13-0500
_audit_creation_method            fapswitch 2.2
_symmetry_space_group_name_H-M    P1
_symmetry_Int_Tables_number       1
_space_group_crystal_system       triclinic
_cell_length_a                    11.004371
_cell_length_b                    9.611107
_cell_length_c                    27.739396
_cell_angle_alpha                 89.343038
_cell_angle_beta                  96.314893
_cell_angle_gamma                 90.24779
_cell_volume                      2915.82779024

loop_
_atom_site_label
_atom_site_type_symbol
_atom_site_description
_atom_site_fract_x
_atom_site_fract_y
_atom_site_fract_z
_atom_type_partial_charge
O1    O     O_R   0.317570 0.620260 0.500030 -0.586665
O2    O     O_R   0.317570 0.379740 0.500030 -0.591495
C1    C     C_R   0.258141 0.499772 0.497991 0.760030
O3    O     O_R   0.499900 0.620250 0.430280 -0.595531
O4    O     O_R   0.499900 0.379750 0.430280 -0.601166
C2    C     C_R   0.499027 0.500642 0.407617 0.776787
Cu1   Cu    Cu3+1 0.499860 0.642410 0.500020 0.884966
Cu2   Cu    Cu3+1 0.499860 0.357590 0.500020 0.884134
O5    O     O_R   0.682190 0.620260 0.500010 -0.602224
O6    O     O_R   0.682190 0.379740 0.500010 -0.600084
O7    O     O_R   0.499860 0.620280 0.569750 -0.587517
O8    O     O_R   0.499860 0.379720 0.569750 -0.578222
C3    C     C_R   0.738572 0.500239 0.501546 0.802846
C4    C     C_R   0.496781 0.500177 0.592502 0.792437
C5    C     C_R   0.381461 0.488732 0.173414 0.531507
O9    O     O_2   0.279563 0.462946 0.195063 -0.543710
N1    N     N_R   0.490573 0.509788 0.201055 -0.461023
C6    C     C_R   0.595607 0.534776 0.180224 0.542369
C7    C     C_R   0.496629 0.629950 0.278431 -0.153229
C8    C     C_R   0.499432 0.628641 0.328735 -0.233743
C9    C     C_R   0.500286 0.376468 0.328951 -0.218429
C10   C     C_R   0.498592 0.376867 0.278326 0.217284
C11   C     C_R   0.495095 0.505035 0.252963 0.364810
C12   C     C_R   0.481024 0.525731 0.100334 -0.046872
C13   C     C_R   0.375082 0.494183 0.122601 -0.003554
C14   C     C_R   0.266835 0.462469 0.093718 -0.159024
C15   C     C_R   0.592906 0.541767 0.129472 -0.068380
C16   C     C_R   0.499491 0.502001 0.354448 -0.071885
C17   C     C_R   0.480975 0.507679 0.645246 -0.088421
C18   C     C_R   0.351569 0.545707 0.969166 0.022456
C19   C     C_R   0.574561 0.589050 0.976121 0.058915
C20   C     C_R   0.460943 0.569046 0.947330 0.029718
C21   C     C_R   0.238047 0.551522 0.938377 0.166319
C22   C     C_R   0.238145 0.540547 0.888090 -0.147992
C23   C     C_R   0.346814 0.550397 0.866652 -0.072066
C24   C     C_R   0.456782 0.575804 0.896010 -0.047987
C25   C     C_R   0.562742 0.608385 0.873952 -0.007352
C26   C     C_R   0.559159 0.603055 0.823311 0.535179
N2    N     N_R   0.453384 0.566933 0.795647 -0.462533
C27   C     C_R   0.347437 0.543460 0.816071 0.546221
C28   C     C_R   0.416326 0.651455 0.710499 0.216756
C29   C     C_R   0.428422 0.630050 0.661474 -0.280686
C30   C     C_R   0.519425 0.403271 0.680033 0.147997
C31   C     C_R   0.505581 0.424345 0.729049 -0.146030
C32   C     C_R   0.455977 0.547346 0.744548 0.321063
O10   O     O_2   0.243590 0.512814 0.787591 -0.536718
C33   C     C_R   0.360710 0.522366 0.020305 0.059214
C34   C     C_R   0.475261 0.538840 0.049033 0.027985
C35   C     C_R   0.584404 0.562883 0.027015 0.021770
C36   C     C_R   0.261588 0.470486 0.043531 -0.213086
O11   O     O_2   0.702338 0.551723 0.208551 -0.543866
C37   C     C_R   0.700594 0.554148 0.107526 -0.149536
C38   C     C_R   0.672506 0.644516 0.953048 -0.213078
C39   C     C_R   0.668532 0.649009 0.902846 -0.157414
O12   O     O_2   0.660784 0.631975 0.801860 -0.537705
C40   C     C_R   0.698794 0.552457 0.057053 0.166429
C41   C     C_3   0.072194 0.639919 0.524442 0.384946
C42   C     C_3   0.068996 0.362231 0.526620 0.374935
C43   C     C_3   0.931576 0.626430 0.527831 -0.440674
C44   C     C_3   0.928062 0.371940 0.527366 -0.433572
C45   C     C_3   0.047340 0.498869 0.440673 0.332459
C46   C     C_3   0.115968 0.499963 0.496902 -0.004983
C47   C     C_3   0.873566 0.500365 0.498796 -0.020885
C48   C     C_3   0.900538 0.499497 0.443113 0.368332
C49   C     C_3   0.624842 0.082945 0.517962 0.118999
C50   C     C_3   0.623897 0.914958 0.519298 0.114618
C51   C     C_3   0.415459 0.080671 0.533554 -0.205823
C52   C     C_3   0.411841 0.916698 0.532086 -0.206606
C53   C     C_3   0.467067 0.084668 0.451176 0.122846
C54   C     C_3   0.469574 0.918185 0.450969 0.124439
N3    N     N_3   0.500250 0.143650 0.501060 -0.142896
N4    N     N_3   0.500250 0.856350 0.501060 -0.145192
H1    H     H_    0.537736 0.120153 0.427883 0.107922
H2    H     H_    0.544226 0.888391 0.429029 0.101339
H3    H     H_    0.322949 0.120553 0.524149 0.166028
H4    H     H_    0.318675 0.884665 0.518942 0.165368
H5    H     H_    0.502405 0.278014 0.348389 0.153637
H6    H     H_    0.495349 0.728475 0.259045 0.143495
H7    H     H_    0.788072 0.553750 0.129764 0.195925
H8    H     H_    0.752830 0.687477 0.973285 0.167645
C55   C     C_3   0.580130 0.272504 0.666930 -0.867143
H9    H     H_    0.610185 0.206742 0.699222 0.232290
H10   H     H_    0.514017 0.210671 0.643017 0.233407
H11   H     H_    0.662800 0.299976 0.649364 0.232568
H12   H     H_    0.748563 0.685204 0.886825 0.184330
H13   H     H_    0.536341 0.346018 0.756029 0.144432
C56   C     C_3   0.818606 0.513651 0.038696 -0.895317
H14   H     H_    0.867855 0.435622 0.063408 0.236860
H15   H     H_    0.804713 0.462576 0.002862 0.246184
H16   H     H_    0.878625 0.606540 0.037619 0.232859
C57   C     C_3   0.088287 0.783670 0.498843 -0.852541
H17   H     H_    0.009643 0.818396 0.473861 0.197224
H18   H     H_    0.095767 0.872863 0.524085 0.209408
H19   H     H_    0.168192 0.784232 0.479428 0.248901
C58   C     C_3   0.093167 0.216195 0.505236 -0.854481
H20   H     H_    0.015543 0.170745 0.481902 0.195296
H21   H     H_    0.169318 0.220607 0.484211 0.250665
H22   H     H_    0.114009 0.132677 0.532839 0.211926
C59   C     C_3   0.144895 0.660039 0.576418 -0.785987
H23   H     H_    0.186251 0.764531 0.583094 0.209027
H24   H     H_    0.087613 0.646446 0.606583 0.209176
H25   H     H_    0.225693 0.592215 0.582838 0.216749
C60   C     C_3   0.128683 0.349452 0.580404 -0.822871
H26   H     H_    0.105881 0.248784 0.597443 0.222037
H27   H     H_    0.229849 0.356067 0.583110 0.235989
H28   H     H_    0.091665 0.423434 0.604938 0.224308
H29   H     H_    0.911952 0.614842 0.566154 0.151679
H30   H     H_    0.903545 0.376841 0.565255 0.156821
C61   C     C_3   0.501907 0.241450 0.251798 -0.849077
H31   H     H_    0.508725 0.150892 0.277191 0.216290
H32   H     H_    0.417365 0.229189 0.226450 0.255363
H33   H     H_    0.582400 0.240092 0.230933 0.241189
H34   H     H_    0.881323 0.723422 0.516575 0.188709
H35   H     H_    0.879506 0.276111 0.514314 0.189997
C62   C     C_3   0.089890 0.620320 0.407656 -0.848996
H36   H     H_    0.189981 0.621218 0.409151 0.217240
H37   H     H_    0.057372 0.605436 0.368658 0.238535
H38   H     H_    0.056027 0.725089 0.412265 0.228797
C63   C     C_3   0.088150 0.374177 0.409958 -0.852840
H39   H     H_    0.187687 0.375929 0.409967 0.219951
H40   H     H_    0.056586 0.269759 0.417984 0.228760
H41   H     H_    0.052402 0.383560 0.370989 0.238622
C64   C     C_3   0.835178 0.626151 0.415294 -0.826228
H42   H     H_    0.854206 0.630273 0.376841 0.241492
H43   H     H_    0.734472 0.617971 0.413538 0.236985
H44   H     H_    0.858553 0.727049 0.432140 0.205028
C65   C     C_3   0.835232 0.371354 0.416663 -0.830451
H45   H     H_    0.863047 0.270410 0.433560 0.205974
H46   H     H_    0.734654 0.376036 0.415916 0.238988
H47   H     H_    0.851140 0.369316 0.377863 0.239507
C66   C     C_3   0.685126 0.144238 0.566283 -0.801405
H48   H     H_    0.784041 0.118840 0.571155 0.192455
H49   H     H_    0.681133 0.257081 0.568763 0.273105
H50   H     H_    0.643240 0.102266 0.597634 0.224313
C67   C     C_3   0.676700 0.851366 0.569316 -0.754175
H51   H     H_    0.686143 0.738193 0.569817 0.261474
H52   H     H_    0.771677 0.888187 0.579235 0.190839
H53   H     H_    0.621093 0.876727 0.598933 0.215803
H54   H     H_    0.688268 0.114396 0.491073 0.102581
H55   H     H_    0.690155 0.881896 0.494105 0.104514
H56   H     H_    0.439810 0.114287 0.571354 0.152975
H57   H     H_    0.426549 0.873856 0.569462 0.150392
C68   C     C_3   0.346541 0.143750 0.425239 -0.801096
H58   H     H_    0.265644 0.102954 0.440111 0.203511
H59   H     H_    0.337633 0.253558 0.429437 0.276372
H60   H     H_    0.339232 0.122537 0.385743 0.209435
C69   C     C_3   0.353209 0.855073 0.422381 -0.792998
H61   H     H_    0.266465 0.896892 0.431184 0.200044
H62   H     H_    0.356445 0.868614 0.382744 0.202233
H63   H     H_    0.340005 0.747185 0.430170 0.277475
H64   H     H_    0.186343 0.427695 0.109733 0.184309
H65   H     H_    0.397443 0.711664 0.635878 0.163447
C70   C     C_3   0.363800 0.787250 0.724935 -0.811912
H66   H     H_    0.419857 0.874845 0.712966 0.219640
H67   H     H_    0.268843 0.798146 0.707115 0.231639
H68   H     H_    0.361734 0.795534 0.764656 0.241708
H69   H     H_    0.151499 0.535629 0.865378 0.194926
C71   C     C_3   0.117513 0.594199 0.955173 -0.896217
H70   H     H_    0.070497 0.670528 0.929153 0.238595
H71   H     H_    0.056364 0.502455 0.956814 0.233257
H72   H     H_    0.130082 0.648574 0.990425 0.245095
H73   H     H_    0.179627 0.430913 0.023523 0.167923
H74   H     H_    0.501510 0.726947 0.347379 0.159843

loop_
_geom_bond_atom_site_label_1
_geom_bond_atom_site_label_2
_geom_bond_distance
_ccdc_geom_bond_type
C42   C46   1.661895 S    
C68   H60   1.110830 S    
C56   H14   1.111768 S    
C17   C29   1.412669 A    
C45   C63   1.573559 S    
C64   H42   1.109612 S    
C28   C29   1.398546 A    
C44   H35   1.107117 S    
C58   H20   1.105002 S    
C12   C15   1.405406 A    
C42   C58   1.565137 S    
C66   H50   1.099996 S    
C55   H9    1.111258 S    
C58   H22   1.109990 S    
C67   H51   1.092903 S    
C66   H49   1.088894 S    
C38   C39   1.388621 A    
C15   C37   1.394598 A    
Cu1   O7    1.943501 S    
N1    C11   1.435473 S    
C44   C47   1.546185 S    
C20   C24   1.420020 A    
C14   H64   1.083617 S    
C69   H62   1.110143 S    
C14   C36   1.388258 A    
C26   N2    1.367624 A    
O7    C4    1.311332 A    
C64   H43   1.106404 S    
C36   H73   1.076077 S    
C42   C44   1.556514 S    
C62   H36   1.097649 S    
C41   C59   1.583499 S    
C68   H59   1.069217 S    
C22   C23   1.395284 A    
C53   N3    1.508149 S    
O5    C3    1.310212 A    
C71   H72   1.108971 S    
C55   H10   1.105283 S    
C50   N4    1.507686 S    
C26   O12   1.349775 S    
C69   H61   1.090519 S    
C62   H37   1.112079 S    
C54   H2    1.115024 S    
C52   H57   1.106602 S    
C70   H67   1.110562 S    
C37   H7    1.084692 S    
C29   H65   1.082559 S    
C44   H30   1.115013 S    
C52   N4    1.491356 S    
N2    C32   1.435463 S    
C10   C61   1.504988 S    
C67   H52   1.108636 S    
C9    C10   1.402352 A    
C17   C30   1.417328 A    
C71   H71   1.110430 S    
C53   C54   1.600522 S    
C19   C35   1.423555 A    
O3    Cu1   1.948708 S    
C31   H13   1.083959 S    
C49   C66   1.550142 S    
C6    O11   1.349703 S    
C21   C22   1.400244 A    
C33   C36   1.412822 A    
C28   C70   1.505737 S    
C63   H40   1.089154 S    
C2    C16   1.475368 S    
C6    C15   1.405728 A    
C23   C27   1.406187 A    
C51   C52   1.577163 S    
C12   C34   1.421648 A    
C18   C33   1.426269 A    
Cu1   Cu2   2.737435 S    
C69   H63   1.069331 S    
C12   C13   1.408419 A    
O3    C2    1.316028 A    
C61   H33   1.110317 S    
C57   H17   1.098111 S    
C39   H12   1.083536 S    
C64   H44   1.098522 S    
C8    C16   1.403628 A    
C41   C46   1.653833 S    
C13   C14   1.395087 A    
C49   N3    1.516328 S    
C8    H74   1.081259 S    
C43   H29   1.112053 S    
C47   C48   1.604716 S    
O1    C1    1.326165 A    
C23   C24   1.404447 A    
C49   H54   1.114630 S    
C45   C48   1.624350 S    
C7    C11   1.399073 A    
C30   C31   1.401815 A    
C65   H46   1.105811 S    
C45   C62   1.576610 S    
C25   C26   1.402472 A    
C57   H18   1.110149 S    
C33   C34   1.424552 A    
C3    C47   1.495826 S    
Cu2   O8    1.948349 S    
C62   H38   1.088958 S    
C38   H8    1.076992 S    
N1    C6    1.367056 A    
C60   H27   1.109129 S    
C52   H4    1.093816 S    
C19   C38   1.412266 A    
C70   H68   1.108362 S    
C53   H1    1.114350 S    
C67   H53   1.106927 S    
C25   C39   1.395726 A    
C34   C35   1.422927 A    
C59   H24   1.107889 S    
C9    C16   1.406057 A    
O8    C4    1.327246 A    
C56   H15   1.108825 S    
C71   H70   1.111685 S    
C30   C55   1.493010 S    
C51   H3    1.092708 S    
C27   O10   1.349313 S    
C4    C17   1.494850 S    
C65   H45   1.102359 S    
C48   C64   1.567970 S    
Cu1   N4    2.056713 S    
C55   H11   1.107811 S    
C21   C71   1.513166 S    
C1    C46   1.561493 S    
Cu1   O5    2.018635 S    
C24   C25   1.407649 A    
Cu2   N3    2.056088 S    
C41   C57   1.564459 S    
C18   C21   1.434559 A    
O1    Cu1   2.016367 S    
C19   C20   1.421200 A    
O2    Cu2   2.018199 S    
C31   C32   1.396145 A    
C43   H34   1.110002 S    
C40   C56   1.514273 S    
O6    C3    1.310400 A    
O4    Cu2   1.943853 S    
C63   H39   1.095368 S    
C58   H21   1.072748 S    
C5    N1    1.367288 A    
C42   C60   1.566281 S    
C53   C68   1.544807 S    
C35   C40   1.434344 A    
C43   C47   1.557829 S    
C59   H23   1.109843 S    
C7    H6    1.082969 S    
C7    C8    1.392278 A    
C61   H32   1.109440 S    
C68   H58   1.091085 S    
C65   H47   1.109687 S    
C66   H48   1.109890 S    
C48   C65   1.571205 S    
C18   C20   1.421529 A    
O4    C2    1.314284 A    
C63   H41   1.111705 S    
O2    C1    1.326152 A    
C60   H28   1.099677 S    
C51   N3    1.488982 S    
C45   C46   1.656651 S    
C41   C43   1.565285 S    
C50   C67   1.562846 S    
N2    C27   1.367929 A    
C22   H69   1.084642 S    
C37   C40   1.398328 A    
C59   H25   1.102138 S    
C50   H55   1.113629 S    
C5    C13   1.403933 A    
Cu2   O6    2.016803 S    
C49   C50   1.614557 S    
C56   H16   1.110308 S    
C9    H5    1.082773 S    
C60   H26   1.111751 S    
C28   C32   1.405382 A    
C10   C11   1.410129 A    
C54   N4    1.509126 S    
C54   C69   1.554824 S    
C70   H66   1.110717 S    
C61   H31   1.110930 S    
C5    O9    1.349713 S    
C57   H19   1.080420 S    
C51   H56   1.104934 S    
