data_mof_unit_22808.cif
_audit_creation_date              2012-12-10T20:57:54-0500
_audit_creation_method            fapswitch 2.2
_symmetry_space_group_name_H-M    P1
_symmetry_Int_Tables_number       1
_space_group_crystal_system       triclinic
_cell_length_a                    18.195308
_cell_length_b                    18.249366
_cell_length_c                    18.394058
_cell_angle_alpha                 120.139559
_cell_angle_beta                  89.915797
_cell_angle_gamma                 119.85941
_cell_volume                      4322.07050997

loop_
_atom_site_label
_atom_site_type_symbol
_atom_type_description
_atom_site_fract_x
_atom_site_fract_y
_atom_site_fract_z
_atom_type_partial_charge
C1    C     C_R   0.359734 0.220058 0.361114 0.517213
C2    C     C_3   0.796713 0.941654 0.750461 -0.073484
C3    C     C_3   0.698826 0.897452 0.702730 0.058659
C4    C     C_R   0.640928 0.780942 0.641325 0.511567
C5    C     C_3   0.799325 0.102580 0.806000 0.026208
C6    C     C_3   0.716743 0.059221 0.835135 -0.214851
C7    C     C_3   0.853449 0.061064 0.813706 -0.222978
C8    C     C_3   0.656412 0.381620 0.220012 -0.098343
C9    C     C_3   0.712192 0.382614 0.155552 -0.087650
C10   C     C_3   0.706048 0.562855 0.267274 -0.117878
C11   C     C_3   0.793761 0.544976 0.355311 -0.252592
C12   C     C_3   0.350588 0.609991 0.317625 -0.101485
C13   C     C_3   0.697321 0.496209 0.301134 -0.015372
C14   C     C_3   0.799555 0.495084 0.199729 0.047131
C15   C     C_3   0.768220 0.563825 0.209330 -0.290006
C16   C     C_R   0.359179 0.500677 0.640686 0.517425
C17   C     C_3   0.853686 0.543970 0.296294 -0.065738
C18   C     C_R   0.415378 0.177288 0.577156 -0.095369
C19   C     C_R   0.388009 0.128625 0.485087 -0.082801
C20   C     C_R   0.305179 0.098898 0.441032 0.053559
C21   C     C_R   0.249460 0.116861 0.489727 -0.094277
C22   C     C_R   0.276993 0.165510 0.581799 -0.102053
C23   C     C_3   0.300975 0.501895 0.302459 0.024546
C24   C     C_R   0.360125 0.196190 0.625649 0.051885
C25   C     C_R   0.222996 0.943950 0.288099 -0.153656
C26   C     C_R   0.193814 0.892337 0.195716 0.018988
C27   C     C_R   0.219492 0.949197 0.158107 -0.035007
C28   C     C_R   0.640518 0.499059 0.359444 0.527348
C29   C     C_R   0.274447 0.056066 0.214146 -0.136932
C30   C     C_R   0.303594 0.107674 0.306523 0.027027
C31   C     C_R   0.277514 0.050823 0.344156 -0.030786
C32   C     C_R   0.245411 0.885070 0.011274 -0.060160
C33   C     C_R   0.216459 0.837557 0.919484 -0.100255
C34   C     C_3   0.199244 0.500361 0.199006 0.034342
C35   C     C_R   0.132454 0.806501 0.877455 -0.101756
C36   C     C_R   0.077444 0.823350 0.927207 -0.100248
C37   C     C_R   0.106087 0.870739 0.018969 -0.066559
C38   C     C_R   0.190032 0.901254 0.061370 0.055785
C39   C     C_R   0.910010 0.626652 0.568034 -0.116422
C40   C     C_R   0.641842 0.499848 0.639825 0.509215
C41   C     C_R   0.859230 0.568587 0.599614 -0.081394
C42   C     C_R   0.842379 0.615571 0.679101 0.058310
C43   C     C_R   0.877359 0.721132 0.726940 -0.066318
C44   C     C_R   0.927051 0.778582 0.694492 -0.102457
C45   C     C_3   0.149550 0.469312 0.257898 -0.261324
C46   C     C_R   0.943305 0.731330 0.615035 -0.106273
C47   C     C_R   0.841514 0.553901 0.769814 -0.157662
C48   C     C_R   0.799426 0.498674 0.806071 0.021629
C49   C     C_R   0.705276 0.442963 0.786649 -0.038609
C50   C     C_R   0.655875 0.444969 0.731806 -0.155580
C51   C     C_R   0.698097 0.500682 0.695823 0.023408
C52   C     C_R   0.359067 0.501331 0.359546 0.533540
C53   C     C_R   0.792174 0.555718 0.714824 -0.037394
C54   C     C_R   0.618481 0.275529 0.771320 -0.069968
C55   C     C_R   0.574279 0.218410 0.805635 -0.098975
C56   C     C_3   0.287712 0.610178 0.261033 -0.223227
C57   C     C_R   0.566501 0.266974 0.889950 -0.095707
C58   C     C_R   0.602571 0.372619 0.939888 -0.095802
C59   C     C_R   0.647178 0.430144 0.906002 -0.062657
C60   C     C_R   0.655719 0.381891 0.821669 0.062367
C61   C     C_R   0.403520 0.839325 0.770662 0.025181
C62   C     C_R   0.377973 0.762571 0.786435 0.077871
C63   C     C_R   0.311896 0.657172 0.717739 0.017403
C64   C     C_3   0.279379 0.420420 0.202154 -0.243015
C65   C     C_R   0.270625 0.629597 0.635513 -0.072041
C66   C     C_R   0.296946 0.704684 0.619727 -0.109417
C67   C     C_3   0.706800 0.940804 0.646679 -0.274713
C68   C     C_R   0.363002 0.808481 0.686461 -0.156000
C69   C     C_R   0.226406 0.571227 0.785732 -0.140898
C70   C     C_R   0.191054 0.494805 0.801463 0.027775
C71   C     C_R   0.208410 0.418164 0.761094 -0.023476
C72   C     C_R   0.264473 0.423486 0.710065 -0.145015
C73   C     C_R   0.301055 0.500855 0.695404 0.027867
C74   C     C_R   0.280409 0.575018 0.732624 -0.024295
C75   C     C_R   0.219051 0.326222 0.820364 -0.089371
C76   C     C_3   0.222419 0.421487 0.141364 -0.080498
C77   C     C_R   0.182320 0.239906 0.822815 -0.105400
C78   C     C_3   0.765745 0.060828 0.707210 -0.251678
C79   C     C_R   0.093639 0.154693 0.770586 -0.126188
C80   C     C_R   0.041426 0.155659 0.715884 -0.106895
C81   C     C_R   0.077295 0.242153 0.713661 0.066636
C82   C     C_R   0.166809 0.328367 0.766335 0.055503
C83   C     C_R   0.857240 0.497960 0.142625 0.520592
C84   C     C_R   0.137097 0.498124 0.860184 0.512007
C85   C     C_R   0.856869 0.219028 0.863375 0.500239
C86   C     C_R   0.137901 0.779951 0.141111 0.501994
C87   C     C_R   0.855884 0.500027 0.862324 0.505162
C88   C     C_3   0.210972 0.475909 0.322663 -0.099281
C89   C     C_3   0.655724 0.939169 0.772614 -0.057690
C90   C     C_R   0.140364 0.500273 0.142490 0.510932
C91   C     C_2   0.646188 0.314028 0.249758 0.271472
C92   C     C_2   0.724533 0.295077 0.110516 0.262440
C93   C     C_2   0.616342 0.527209 0.216799 0.227471
C94   C     C_2   0.162257 0.377691 0.318597 0.211720
C95   C     C_2   0.470941 0.952125 0.838763 0.205626
Cl1   Cl    Cl    0.802424 0.889401 0.809214 -0.096149
Cl2   Cl    Cl    0.628237 0.885337 0.835692 -0.031992
Cl3   Cl    Cl    0.280680 0.448902 0.069622 -0.088359
Cl4   Cl    Cl    0.907639 0.486300 0.301688 -0.045390
Cl5   Cl    Cl    0.395145 0.258564 0.741323 -0.114790
Cl6   Cl    Cl    0.427198 0.795121 0.890158 -0.021210
Cl7   Cl    Cl    0.392068 0.717310 0.432231 -0.105998
Cl8   Cl    Cl    0.009273 0.239509 0.643176 -0.102309
H1    H     H_    0.242885 0.341364 0.186588 0.107525
H2    H     H_    0.676893 0.089071 0.832968 0.122957
H3    H     H_    0.343241 0.436827 0.187926 0.165731
H4    H     H_    0.828390 0.919750 0.698823 0.120721
H5    H     H_    0.915197 0.092859 0.796622 0.129776
H6    H     H_    0.875737 0.088483 0.884059 0.136837
H7    H     H_    0.740055 0.087039 0.905448 0.149281
H8    H     H_    0.587181 0.347084 0.182109 0.141885
H9    H     H_    0.669881 0.365925 0.098196 0.065440
H10   H     H_    0.734029 0.537071 0.142299 0.118659
H11   H     H_    0.824422 0.626710 0.412596 0.127694
H12   H     H_    0.271379 0.665534 0.304820 0.142467
H13   H     H_    0.791478 0.504054 0.384839 0.123328
H14   H     H_    0.909777 0.626078 0.326134 0.123267
H15   H     H_    0.738587 0.644096 0.326712 0.151627
H16   H     H_    0.827595 0.644949 0.241136 0.112996
H17   H     H_    0.479617 0.200617 0.610717 0.102092
H18   H     H_    0.431618 0.115216 0.448290 0.111280
H19   H     H_    0.158994 0.342484 0.097343 0.127565
H20   H     H_    0.185386 0.094295 0.456533 0.110031
H21   H     H_    0.233885 0.179664 0.618995 0.112512
H22   H     H_    0.203697 0.901097 0.317460 0.144594
H23   H     H_    0.227032 0.540478 0.391621 0.162798
H24   H     H_    0.293682 0.098941 0.184805 0.154230
H25   H     H_    0.310359 0.908317 0.043139 0.135682
H26   H     H_    0.259040 0.824655 0.880917 0.120246
H27   H     H_    0.110022 0.769526 0.806397 0.112568
H28   H     H_    0.012540 0.799501 0.894658 0.100790
H29   H     H_    0.062764 0.882858 0.056848 0.100464
H30   H     H_    0.982187 0.775948 0.590191 0.102422
H31   H     H_    0.923913 0.590650 0.507337 0.112097
H32   H     H_    0.833761 0.487554 0.562758 0.108263
H33   H     H_    0.866133 0.758565 0.789187 0.110087
H34   H     H_    0.129041 0.521702 0.297601 0.141886
H35   H     H_    0.953448 0.859838 0.731205 0.101292
H36   H     H_    0.913589 0.595596 0.783515 0.144505
H37   H     H_    0.583805 0.403107 0.717998 0.151476
H38   H     H_    0.624711 0.237406 0.706196 0.094401
H39   H     H_    0.546298 0.136609 0.766996 0.088693
H40   H     H_    0.532476 0.222759 0.916546 0.106906
H41   H     H_    0.596110 0.409945 0.004902 0.091565
H42   H     H_    0.086491 0.389854 0.213975 0.117556
H43   H     H_    0.675607 0.512132 0.945524 0.102419
H44   H     H_    0.381778 0.865366 0.672518 0.095920
H45   H     H_    0.638991 0.911683 0.610661 0.131011
H46   H     H_    0.218543 0.549373 0.583211 0.159136
H47   H     H_    0.265551 0.682482 0.555658 0.121690
H48   H     H_    0.212108 0.629150 0.815023 0.140898
H49   H     H_    0.277853 0.364814 0.679944 0.141284
H50   H     H_    0.288255 0.391309 0.860320 0.122565
H51   H     H_    0.222834 0.238820 0.864786 0.121999
H52   H     H_    0.065402 0.087666 0.772204 0.100812
H53   H     H_    0.973042 0.088863 0.674887 0.095503
H54   H     H_    0.410540 0.624156 0.295843 0.147923
H55   H     H_    0.322787 0.637580 0.221369 0.124702
H56   H     H_    0.736771 0.913308 0.595212 0.120998
H57   H     H_    0.704532 0.329233 0.286168 0.150457
H58   H     H_    0.697526 0.241271 0.038360 0.128390
H59   H     H_    0.574854 0.452070 0.153413 0.096560
H60   H     H_    0.135068 0.303305 0.255995 0.107907
H61   H     H_    0.491026 0.005398 0.820054 0.074973
H62   H     H_    0.824164 0.090714 0.685026 0.127841
H63   H     H_    0.726048 0.089012 0.700260 0.128591
H64   H     H_    0.590557 0.915137 0.736032 0.125612
O1    O     O_3   0.500000 0.500000 0.500000 -0.449948
O2    O     O_R   0.113800 0.731630 0.056520 -0.533320
O3    O     O_R   0.819390 0.439310 0.886160 -0.535678
O4    O     O_R   0.383400 0.268380 0.323710 -0.539571
O5    O     O_R   0.115110 0.560720 0.179280 -0.548059
O6    O     O_R   0.941380 0.560750 0.885620 -0.551462
O7    O     O_R   0.115110 0.439270 0.057830 -0.534137
O8    O     O_R   0.942690 0.268390 0.886930 -0.543720
O9    O     O_R   0.114340 0.731630 0.178520 -0.556760
O10   O     O_R   0.820160 0.439310 0.057830 -0.558331
O11   O     O_R   0.113800 0.560730 0.885620 -0.548939
O12   O     O_R   0.383400 0.560740 0.616060 -0.530919
O13   O     O_R   0.555060 0.731630 0.615290 -0.545493
O14   O     O_R   0.383950 0.439280 0.616600 -0.547655
O15   O     O_R   0.677590 0.560710 0.444390 -0.551698
O16   O     O_R   0.556370 0.439260 0.616600 -0.552314
O17   O     O_R   0.382640 0.439290 0.322940 -0.547551
O18   O     O_R   0.678360 0.560700 0.616060 -0.532075
O19   O     O_R   0.382640 0.560750 0.444390 -0.521097
O20   O     O_2   0.571740 0.241034 0.232578 -0.492449
O21   O     O_2   0.764244 0.283398 0.152550 -0.501497
O22   O     O_2   0.590011 0.582980 0.246626 -0.514094
O23   O     O_R   0.555060 0.439270 0.322940 -0.516100
O24   O     O_2   0.152483 0.381075 0.385651 -0.515797
O25   O     O_2   0.504361 0.987788 0.915903 -0.486808
O26   O     O_R   0.383950 0.268380 0.445700 -0.535155
O27   O     O_R   0.677590 0.731610 0.615290 -0.539160
O28   O     O_3   0.997750 0.500010 0.002220 -0.440637
O29   O     O_R   0.942690 0.560750 0.179280 -0.541760
O30   O     O_R   0.114340 0.439270 0.886160 -0.530726
O31   O     O_R   0.820160 0.268410 0.886930 -0.547970
Zn1   Zn    Zn3+2 0.456040 0.586770 0.543190 0.968353
Zn2   Zn    Zn3+2 0.456820 0.413240 0.543960 0.949676
Zn3   Zn    Zn3+2 0.631110 0.586750 0.543190 0.949403
Zn4   Zn    Zn3+2 0.456040 0.413240 0.369660 0.975450
Zn5   Zn    Zn3+2 0.041710 0.413240 0.959030 0.949193
Zn6   Zn    Zn3+2 0.866640 0.413270 0.959030 0.931596
Zn7   Zn    Zn3+2 0.040930 0.586780 0.958260 0.937048
Zn8   Zn    Zn3+2 0.041710 0.586770 0.132560 0.930804

loop_
_geom_bond_atom_site_label_1
_geom_bond_atom_site_label_2
_ccdc_geom_bond_type
C92   H58   S    
C25   C31   A    
C66   C68   A    
C63   C65   A    
C34   C56   S    
C8    C13   S    
O1    Zn1   S    
C27   C29   A    
O15   Zn3   S    
C41   C42   A    
C35   C36   A    
C43   C44   A    
C81   C82   A    
C57   C58   A    
C39   C41   A    
C54   C60   A    
C4    O27   A    
C12   C23   S    
C26   C27   A    
C37   C38   A    
C49   C60   S    
C18   C24   A    
C1    C30   S    
C36   C37   A    
C66   H47   S    
C10   C15   S    
C42   C53   S    
O2    Zn7   S    
C30   C31   A    
C50   H37   S    
C6    C89   S    
O28   Zn5   S    
C27   C38   S    
O9    Zn8   S    
C86   O2    A    
O11   Zn7   S    
C2    H4    S    
O1    Zn3   S    
C18   C19   A    
C73   C74   A    
O18   Zn3   S    
C83   O29   A    
C11   H11   S    
C25   H22   S    
C94   O24   D    
C89   H64   S    
C88   H23   S    
C14   C15   S    
C85   O8    A    
C56   H12   S    
C19   H18   S    
C2    C7    S    
O1    Zn4   S    
C8    C9    S    
C72   H49   S    
C56   H55   S    
C15   H10   S    
C13   C28   S    
C70   C71   A    
C32   C38   A    
C12   H54   S    
C29   C30   A    
C70   C84   S    
O3    Zn6   S    
C16   O12   A    
C17   H14   S    
C47   C53   A    
C62   Cl6   S    
C5    C85   S    
C9    H9    S    
C59   C60   A    
C55   H39   S    
C21   C22   A    
O29   Zn8   S    
C6    H7    S    
C14   C17   S    
C43   H33   S    
C67   C78   S    
C52   O19   A    
C14   C83   S    
C4    O13   A    
C9    C92   S    
C44   C46   A    
C80   H53   S    
C77   C79   A    
C87   O6    A    
C88   C94   S    
C78   H63   S    
O17   Zn4   S    
C57   H40   S    
C16   C73   S    
C69   H48   S    
C45   C88   S    
C72   C73   A    
C8    H8    S    
C5    C7    S    
C83   O10   A    
C16   O14   A    
O23   Zn4   S    
O28   Zn6   S    
C10   C93   S    
C25   C26   A    
O27   Zn3   S    
C1    O4    A    
C7    H6    S    
C89   Cl2   S    
C51   C53   A    
C21   H20   S    
C1    O26   A    
C9    C14   S    
C34   C90   S    
C12   Cl7   S    
C62   C63   A    
C10   H15   S    
C77   H51   S    
C17   Cl4   S    
C75   H50   S    
C47   C48   A    
O28   Zn7   S    
C26   C86   S    
C48   C87   S    
C86   O9    A    
C45   H34   S    
C50   C51   A    
C64   C76   S    
O10   Zn6   S    
C69   C74   A    
C8    C91   S    
C28   O15   A    
C11   H13   S    
C75   C77   A    
C35   H27   S    
C91   H57   S    
C12   C56   S    
C68   H44   S    
C34   C45   S    
C95   O25   D    
C39   C46   A    
C23   C64   S    
C49   C50   A    
C23   C88   S    
C29   H24   S    
O31   Zn6   S    
C84   O11   A    
C45   H42   S    
O19   Zn1   S    
C36   H28   S    
C42   C43   A    
C90   O5    A    
C3    C4    S    
C40   C51   S    
C18   H17   S    
C41   H32   S    
C81   Cl8   S    
C33   H26   S    
C64   H1    S    
C91   O20   D    
C54   C55   A    
C11   C17   S    
C78   H62   S    
C44   H35   S    
O1    Zn2   S    
C24   Cl5   S    
C3    C67   S    
C52   O17   A    
C80   C81   A    
C10   C13   S    
C28   O23   A    
C67   H56   S    
C61   C95   S    
C75   C82   A    
C64   H3    S    
C40   O18   A    
C63   C74   S    
C93   O22   D    
C84   O30   A    
O26   Zn2   S    
C90   O7    A    
O16   Zn2   S    
C37   H29   S    
C3    C89   S    
C76   H19   S    
C22   H21   S    
C71   C82   S    
C19   C20   A    
O5    Zn8   S    
C2    C3    S    
C58   C59   A    
O8    Zn5   S    
C71   C72   A    
O13   Zn1   S    
C40   O16   A    
C95   H61   S    
C32   C33   A    
C46   H30   S    
C11   C13   S    
C61   C68   A    
C32   H25   S    
C23   C52   S    
C5    C6    S    
O28   Zn8   S    
O12   Zn1   S    
C93   H59   S    
O4    Zn4   S    
C48   C49   A    
C2    Cl1   S    
O7    Zn5   S    
C33   C35   A    
C6    H2    S    
C15   H16   S    
O30   Zn5   S    
C22   C24   A    
C65   H46   S    
C61   C62   A    
C69   C70   A    
C79   H52   S    
C79   C80   A    
C59   H43   S    
C58   H41   S    
C85   O31   A    
C87   O3    A    
C54   H38   S    
C20   C21   A    
C65   C66   A    
C47   H36   S    
C67   H45   S    
C7    H5    S    
O6    Zn7   S    
C5    C78   S    
C55   C57   A    
O14   Zn2   S    
C76   Cl3   S    
C94   H60   S    
C39   H31   S    
C92   O21   D    
C34   C76   S    
C20   C31   S    
