data_mof_unit_42744.cif
_audit_creation_date              2012-12-11T14:56:04-0500
_audit_creation_method            fapswitch 2.2
_symmetry_space_group_name_H-M    P1
_symmetry_Int_Tables_number       1
_space_group_crystal_system       triclinic
_cell_length_a                    27.825406
_cell_length_b                    17.315209
_cell_length_c                    18.036967
_cell_angle_alpha                 89.917552
_cell_angle_beta                  137.463352
_cell_angle_gamma                 90.149036
_cell_volume                      5875.13004

loop_
_atom_site_label
_atom_site_type_symbol
_atom_type_description
_atom_site_fract_x
_atom_site_fract_y
_atom_site_fract_z
_atom_type_partial_charge
C1    C     C_R   0.670777 0.919224 0.816769 -0.201302
C2    C     C_3   0.256697 0.654634 0.047045 -0.163016
C3    C     C_3   0.668348 0.774527 0.977506 -0.143075
C4    C     C_3   0.166776 0.730433 0.972765 -0.134385
C5    C     C_3   0.832074 0.273122 0.023137 -0.143500
C6    C     C_3   0.797648 0.771015 0.061686 -0.140239
C7    C     C_3   0.201732 0.227256 0.938284 -0.135772
C8    C     C_3   0.234136 0.701641 0.090662 -0.146351
C9    C     C_3   0.762510 0.300814 0.906139 -0.147327
C10   C     C_3   0.729096 0.742579 0.947141 -0.154179
C11   C     C_3   0.269048 0.256117 0.053420 -0.157687
C12   C     C_3   0.771305 0.244768 0.054614 -0.153918
C13   C     C_3   0.292301 0.300748 0.010170 -0.178295
C14   C     C_3   0.231826 0.754169 0.947985 -0.157236
C15   C     C_3   0.263459 0.200802 0.908262 -0.146823
C16   C     C_3   0.738142 0.802394 0.094348 -0.146684
C17   C     C_3   0.274449 0.771108 0.104870 0.204553
C18   C     C_3   0.725128 0.229305 0.895076 0.209220
C19   C     C_3   0.691826 0.815315 0.932916 0.200016
C20   C     C_3   0.308287 0.185371 0.068215 0.199110
C21   C     C_3   0.809575 0.316243 0.067726 0.199626
C22   C     C_3   0.190666 0.684776 0.931757 0.199532
C23   C     C_3   0.225061 0.271643 0.895386 0.206201
C24   C     C_3   0.706079 0.700944 0.992430 -0.181795
C25   C     C_3   0.774546 0.729552 0.106593 0.208049
C26   C     C_3   0.576009 0.273322 0.663706 -1.098670
C27   C     C_3   0.423831 0.726317 0.335840 -1.101950
C28   C     C_3   0.439838 0.256014 0.296592 -1.080497
C29   C     C_3   0.557072 0.746295 0.703807 -1.088492
C30   C     C_3   0.061385 0.756646 0.703300 -1.080086
C31   C     C_3   0.943834 0.247160 0.296735 -1.085443
C32   C     C_3   0.924510 0.773637 0.338171 -1.099231
C33   C     C_3   0.075192 0.226250 0.666080 -1.110550
C34   C     C_3   0.670901 0.984028 0.375891 -1.081221
C35   C     C_3   0.208393 0.800624 0.989631 -0.176667
C36   C     C_3   0.234356 0.109096 0.448823 -1.070644
C37   C     C_3   0.171142 0.831875 0.208085 -1.093148
C38   C     C_3   0.797118 0.132162 0.632499 -1.079614
C39   C     C_3   0.334363 0.331754 0.808119 -1.095793
C40   C     C_3   0.703158 0.631464 0.368176 -1.079944
C41   C     C_3   0.830243 0.484632 0.625406 -1.079864
C42   C     C_3   0.175908 0.518037 0.389202 -1.061114
C43   C     C_3   0.793344 0.200861 0.009349 -0.182951
C44   C     C_3   0.760315 0.844538 0.047195 -0.160442
C45   C     C_3   0.241057 0.155674 0.953386 -0.164671
C46   C     C_R   0.598448 0.867572 0.335152 0.087432
C47   C     C_R   0.361971 0.162730 0.604386 0.079976
C48   C     C_R   0.280736 0.753657 0.369046 0.074029
C49   C     C_R   0.329529 0.080713 0.183336 -0.198518
C50   C     C_R   0.720168 0.235440 0.609037 0.078022
C51   C     C_R   0.221774 0.254034 0.657737 0.070115
C52   C     C_R   0.780435 0.735066 0.392148 0.078354
C53   C     C_R   0.902371 0.368325 0.666056 0.087710
C54   C     C_R   0.110305 0.641338 0.351017 0.085206
C55   C     C_R   0.389621 0.244608 0.741584 -0.210351
C56   C     C_R   0.597586 0.751925 0.261114 -0.218303
C57   C     C_R   0.750548 0.370736 0.624676 -0.205810
C58   C     C_R   0.261567 0.624128 0.395523 -0.206535
C59   C     C_R   0.750524 0.870277 0.377097 -0.206302
C60   C     C_R   0.312917 0.898667 0.198425 -0.218064
C61   C     C_R   0.227126 0.133931 0.598499 -0.203249
C62   C     C_R   0.102517 0.743804 0.250436 -0.209819
C63   C     C_R   0.903141 0.252758 0.740380 -0.217618
C64   C     C_R   0.409518 0.210773 0.697575 -0.244427
C65   C     C_R   0.562360 0.802029 0.267793 -0.236440
C66   C     C_R   0.706816 0.314565 0.605784 -0.264833
C67   C     C_R   0.305024 0.678060 0.410772 -0.261858
C68   C     C_R   0.794077 0.814244 0.395798 -0.264244
C69   C     C_R   0.197301 0.178046 0.619995 -0.268140
C70   C     C_R   0.075930 0.706826 0.282639 -0.239280
C71   C     C_R   0.686877 0.101398 0.801893 -0.211991
C72   C     C_R   0.938446 0.302980 0.733649 -0.236044
C73   C     C_R   0.296756 0.140914 0.563899 0.241054
C74   C     C_R   0.652222 0.899404 0.350938 0.244832
C75   C     C_R   0.785176 0.213086 0.649010 0.248761
C76   C     C_R   0.207217 0.768414 0.292429 0.248301
C77   C     C_R   0.715379 0.712545 0.352152 0.248964
C78   C     C_R   0.293392 0.269604 0.721540 0.251135
C79   C     C_R   0.160728 0.603301 0.363537 0.236905
C80   C     C_R   0.848785 0.400079 0.650509 0.244454
C81   C     C_R   0.283942 0.164463 0.622394 0.093053
C82   C     C_R   0.187004 0.398975 0.801771 -0.220079
C83   C     C_R   0.688947 0.848355 0.345172 0.090694
C84   C     C_R   0.834152 0.271029 0.685096 0.092665
C85   C     C_R   0.167217 0.719451 0.293674 0.090106
C86   C     C_R   0.666613 0.770373 0.316399 0.092835
C87   C     C_R   0.324198 0.225470 0.699223 0.093293
C88   C     C_R   0.195570 0.647176 0.348221 0.089735
C89   C     C_R   0.812024 0.348967 0.656452 0.090936
C90   C     C_R   0.354187 0.074233 0.482042 -0.134869
C91   C     C_R   0.636817 0.932905 0.502601 -0.127611
C92   C     C_R   0.674726 0.101580 0.593464 -0.158772
C93   C     C_R   0.812717 0.601648 0.199432 -0.212512
C94   C     C_R   0.324897 0.895972 0.404483 -0.148709
C95   C     C_R   0.825358 0.601387 0.406723 -0.158161
C96   C     C_R   0.176442 0.395614 0.603173 -0.145302
C97   C     C_R   0.140661 0.570301 0.508857 -0.130445
C98   C     C_R   0.863410 0.432911 0.497727 -0.128514
C99   C     C_R   0.405186 0.803261 0.486958 -0.121503
C100  C     C_R   0.594391 0.194834 0.504126 -0.117185
C101  C     C_R   0.553562 0.841121 0.414150 -0.142496
C102  C     C_R   0.433203 0.171767 0.565067 -0.153962
C103  C     C_R   0.946507 0.341413 0.586127 -0.143820
C104  C     C_R   0.830603 0.420178 0.183435 -0.201268
C105  C     C_R   0.056343 0.661478 0.417791 -0.149348
C106  C     C_R   0.095631 0.303060 0.518308 -0.115124
C107  C     C_R   0.906004 0.694686 0.496654 -0.114752
C108  C     C_R   0.604773 0.194127 0.711240 0.319030
C109  C     C_R   0.394552 0.805700 0.289090 0.308321
C110  C     C_R   0.411103 0.175708 0.272431 0.338252
C111  C     C_R   0.588579 0.824959 0.728000 0.341851
C112  C     C_R   0.088590 0.675719 0.727187 0.338476
C113  C     C_R   0.912618 0.325839 0.272540 0.340038
C114  C     C_R   0.894548 0.694596 0.290415 0.310836
C115  C     C_R   0.169583 0.580306 0.816567 -0.199001
C116  C     C_R   0.105212 0.305843 0.711226 0.310313
C117  C     C_R   0.647856 0.855818 0.830161 -0.015860
C118  C     C_R   0.352458 0.144409 0.170351 -0.016613
C119  C     C_R   0.324757 0.822541 0.196176 0.005483
C120  C     C_R   0.674605 0.177358 0.804414 -0.001139
C121  C     C_R   0.174980 0.322890 0.804159 0.006138
C122  C     C_R   0.824511 0.678085 0.197982 0.003109
C123  C     C_R   0.854063 0.357273 0.170316 -0.015163
C124  C     C_R   0.146472 0.643880 0.829334 -0.016949
C125  C     C_R   0.381273 0.137913 0.550775 0.082622
C126  C     C_3   0.741302 0.345268 0.953253 -0.159919
C127  C     C_R   0.596185 0.881934 0.413679 0.068973
C128  C     C_R   0.664297 0.178545 0.564992 0.080951
C129  C     C_R   0.334313 0.816246 0.420018 0.079538
C130  C     C_R   0.836056 0.678276 0.435731 0.080422
C131  C     C_R   0.167480 0.316003 0.593557 0.087660
C132  C     C_R   0.102596 0.623700 0.422602 0.072168
C133  C     C_R   0.904161 0.382258 0.586857 0.068331
C134  C     C_3   0.702978 0.273029 0.939906 -0.140486
C135  C     C_3   0.297942 0.724873 0.063524 -0.137376
C136  C     C_3   0.332010 0.229164 0.025683 -0.132687
H1    H     H_    0.718703 0.952304 0.880115 0.117251
H2    H     H_    0.201059 0.080650 0.552838 0.154784
H3    H     H_    0.830203 0.132695 0.619157 0.261145
H4    H     H_    0.346533 0.380254 0.783649 0.254502
H5    H     H_    0.304388 0.353529 0.822705 0.258173
H6    H     H_    0.384810 0.307427 0.887168 0.259849
H7    H     H_    0.675930 0.595267 0.295161 0.248406
H8    H     H_    0.753529 0.604952 0.444130 0.265886
H9    H     H_    0.670187 0.631717 0.381727 0.261246
H10   H     H_    0.868577 0.517260 0.634079 0.263706
H11   H     H_    0.775645 0.491627 0.541115 0.256009
H12   H     H_    0.832934 0.510242 0.684789 0.262198
H13   H     H_    0.077423 0.797070 0.204685 0.154145
H14   H     H_    0.228675 0.508907 0.475275 0.247224
H15   H     H_    0.133863 0.488414 0.374029 0.264166
H16   H     H_    0.175743 0.490240 0.333559 0.260611
H17   H     H_    0.926701 0.196994 0.778705 0.153169
H18   H     H_    0.424373 0.287585 0.805315 0.153435
H19   H     H_    0.573889 0.696126 0.222731 0.153034
H20   H     H_    0.733965 0.430416 0.609245 0.156414
H21   H     H_    0.284321 0.568520 0.434905 0.155868
H22   H     H_    0.317669 0.031608 0.461000 0.127530
H23   H     H_    0.677388 0.971477 0.528791 0.128335
H24   H     H_    0.725302 0.074147 0.660591 0.122810
H25   H     H_    0.281664 0.047607 0.119773 0.117850
H26   H     H_    0.275061 0.926296 0.347680 0.120486
H27   H     H_    0.774687 0.573909 0.339548 0.122588
H28   H     H_    0.226381 0.425832 0.664357 0.118933
H29   H     H_    0.182577 0.532535 0.538780 0.124954
H30   H     H_    0.822956 0.471347 0.471695 0.128501
H31   H     H_    0.426919 0.748317 0.496557 0.116170
H32   H     H_    0.574086 0.251836 0.489916 0.113330
H33   H     H_    0.515637 0.797444 0.356768 0.125247
H34   H     H_    0.465655 0.221096 0.615067 0.122898
H35   H     H_    0.984304 0.297982 0.643691 0.126455
H36   H     H_    0.261881 0.926798 0.144995 0.111092
H37   H     H_    0.018122 0.704638 0.359484 0.122819
H38   H     H_    0.072358 0.248520 0.506193 0.118163
H39   H     H_    0.926645 0.751730 0.511666 0.113716
H40   H     H_    0.236730 0.682264 0.152252 0.130443
H41   H     H_    0.757333 0.321750 0.842303 0.122158
H42   H     H_    0.725234 0.719022 0.885638 0.124252
H43   H     H_    0.271224 0.277645 0.113837 0.123248
H44   H     H_    0.775207 0.222675 0.116754 0.124594
H45   H     H_    0.231020 0.774607 0.888669 0.122469
H46   H     H_    0.259767 0.179896 0.846087 0.132257
H47   H     H_    0.738042 0.073593 0.855253 0.109594
H48   H     H_    0.743385 0.824881 0.157664 0.122149
H49   H     H_    0.649459 0.271714 0.905011 0.109809
H50   H     H_    0.352071 0.724013 0.100564 0.108514
H51   H     H_    0.386567 0.228373 0.064272 0.123549
H52   H     H_    0.614168 0.777496 0.940104 0.123507
H53   H     H_    0.111858 0.731147 0.932828 0.123271
H54   H     H_    0.886149 0.274715 0.060020 0.124644
H55   H     H_    0.851228 0.768305 0.096903 0.109393
H56   H     H_    0.147938 0.227922 0.902434 0.108710
H57   H     H_    0.721049 0.405387 0.932190 0.110977
H58   H     H_    0.238057 0.427339 0.855285 0.109634
H59   H     H_    0.275326 0.593857 0.068346 0.113045
H60   H     H_    0.312902 0.360866 0.032773 0.113610
H61   H     H_    0.684121 0.641468 0.970476 0.111453
H62   H     H_    0.189009 0.861121 0.966712 0.113599
H63   H     H_    0.814281 0.140996 0.031792 0.111734
H64   H     H_    0.781535 0.904289 0.067694 0.110642
H65   H     H_    0.221177 0.095288 0.932235 0.112922
H66   H     H_    0.512826 0.782512 0.235415 0.128801
H67   H     H_    0.460805 0.226305 0.733212 0.133659
H68   H     H_    0.359300 0.660829 0.462924 0.139100
H69   H     H_    0.761722 0.573165 0.146075 0.109008
H70   H     H_    0.659979 0.334226 0.581389 0.136360
H71   H     H_    0.148232 0.157427 0.588157 0.136743
H72   H     H_    0.840984 0.834042 0.420287 0.135698
H73   H     H_    0.987937 0.283619 0.765998 0.128651
H74   H     H_    0.031715 0.733885 0.260118 0.129452
H75   H     H_    0.567907 0.304496 0.707482 0.249885
H76   H     H_    0.613949 0.306450 0.671907 0.254881
H77   H     H_    0.524795 0.269685 0.575180 0.255287
H78   H     H_    0.386748 0.692747 0.329237 0.259706
H79   H     H_    0.430897 0.695471 0.290585 0.250155
H80   H     H_    0.782955 0.453341 0.119741 0.117804
H81   H     H_    0.476006 0.729887 0.423671 0.256436
H82   H     H_    0.480063 0.257501 0.297387 0.256675
H83   H     H_    0.397804 0.297930 0.235005 0.256864
H84   H     H_    0.461974 0.275916 0.375362 0.247766
H85   H     H_    0.595780 0.705150 0.771049 0.258203
H86   H     H_    0.511947 0.749880 0.691855 0.258674
H87   H     H_    0.540685 0.721835 0.631047 0.248591
H88   H     H_    0.021961 0.759852 0.704091 0.256242
H89   H     H_    0.104498 0.798114 0.764172 0.256700
H90   H     H_    0.038597 0.775670 0.623775 0.248348
H91   H     H_    0.217159 0.547137 0.880497 0.118459
H92   H     H_    0.905589 0.206445 0.228402 0.258269
H93   H     H_    0.990158 0.251059 0.311595 0.260197
H94   H     H_    0.958502 0.221998 0.367824 0.247960
H95   H     H_    0.929761 0.805512 0.291047 0.250692
H96   H     H_    0.888748 0.806257 0.335033 0.255138
H97   H     H_    0.977477 0.769592 0.425150 0.256888
H98   H     H_    0.112157 0.191238 0.674125 0.257085
H99   H     H_    0.067644 0.197191 0.711742 0.251441
H100  H     H_    0.023239 0.229154 0.578012 0.257294
H101  H     H_    0.632427 0.016628 0.366659 0.263524
H102  H     H_    0.767311 0.929982 0.392736 0.156369
H103  H     H_    0.725394 0.991269 0.460346 0.256487
H104  H     H_    0.668532 0.009513 0.316742 0.261752
H105  H     H_    0.235403 0.129038 0.391599 0.260225
H106  H     H_    0.232772 0.045143 0.450933 0.248697
H107  H     H_    0.183009 0.131699 0.411587 0.260673
H108  H     H_    0.159552 0.881843 0.231419 0.253169
H109  H     H_    0.203637 0.850053 0.196676 0.260010
H110  H     H_    0.120433 0.809974 0.126852 0.259910
H111  H     H_    0.824133 0.095738 0.705233 0.248561
H112  H     H_    0.746681 0.105727 0.556279 0.265857
N1    N     N_R   0.625380 0.928280 0.709340 -0.050852
N2    N     N_R   0.613900 0.929750 0.547530 -0.042962
N3    N     N_R   0.613900 0.070250 0.547530 -0.041606
N4    N     N_R   0.386100 0.929750 0.452470 -0.042451
N5    N     N_R   0.886100 0.570250 0.452470 -0.041183
N6    N     N_R   0.113900 0.429750 0.547530 -0.043443
N7    N     N_R   0.113900 0.570250 0.547530 -0.043087
N8    N     N_R   0.886100 0.429750 0.452470 -0.043235
N9    N     N_R   0.437800 0.869550 0.507970 -0.035806
N10   N     N_R   0.562200 0.130450 0.492030 -0.036494
N11   N     N_R   0.562200 0.869550 0.492030 -0.044108
N12   N     N_R   0.374620 0.071720 0.290660 -0.050139
N13   N     N_R   0.437800 0.130450 0.507970 -0.041689
N14   N     N_R   0.937800 0.369550 0.507970 -0.044017
N15   N     N_R   0.062200 0.630450 0.492030 -0.042851
N16   N     N_R   0.062200 0.369550 0.492030 -0.038308
N17   N     N_R   0.937800 0.630450 0.507970 -0.036143
N18   N     N_R   0.573690 0.128980 0.653840 -0.052870
N19   N     N_R   0.426310 0.871020 0.346160 -0.053874
N20   N     N_R   0.426310 0.128980 0.346160 -0.058320
N21   N     N_R   0.573690 0.871020 0.653840 -0.058505
N22   N     N_R   0.073690 0.628980 0.653840 -0.058314
N23   N     N_R   0.374620 0.928280 0.290660 -0.042582
N24   N     N_R   0.926310 0.371020 0.346160 -0.058596
N25   N     N_R   0.926310 0.628980 0.346160 -0.053594
N26   N     N_R   0.073690 0.371020 0.653840 -0.053719
N27   N     N_R   0.625380 0.071720 0.709340 -0.044597
N28   N     N_R   0.125380 0.428280 0.709340 -0.042440
N29   N     N_R   0.874620 0.571720 0.290660 -0.043890
N30   N     N_R   0.874620 0.428280 0.290660 -0.051016
N31   N     N_R   0.125380 0.571720 0.709340 -0.050444
N32   N     N_R   0.386100 0.070250 0.452470 -0.041829
Ni1   Ni    Ni4+2 0.616560 1.000000 0.627280 0.204847
Ni2   Ni    Ni4+2 0.383440 0.000000 0.372720 0.206845
Ni3   Ni    Ni4+2 0.116560 0.500000 0.627280 0.204824
Ni4   Ni    Ni4+2 0.883440 0.500000 0.372720 0.205039
Ni5   Ni    Ni4+2 0.497990 0.870580 0.500000 0.206204
Ni6   Ni    Ni4+2 0.502010 0.129420 0.500000 0.207419
Ni7   Ni    Ni4+2 0.997990 0.370580 0.500000 0.205315
Ni8   Ni    Ni4+2 0.002010 0.629420 0.500000 0.207482

loop_
_geom_bond_atom_site_label_1
_geom_bond_atom_site_label_2
_ccdc_geom_bond_type
C55   H18   S    
N8    N14   A    
C108  C120  A    
C134  H49   S    
C113  N24   A    
C74   C83   A    
C102  C125  A    
C110  C118  A    
C20   C118  S    
C104  C123  A    
C91   C127  A    
C40   H9    S    
C36   H105  S    
C112  C124  A    
C49   N12   A    
C6    C25   S    
C37   H109  S    
C62   C70   A    
C2    H59   S    
N17   Ni8   S    
C39   H5    S    
C107  N17   A    
C71   N27   A    
C3    C19   S    
C115  C124  A    
N31   Ni3   S    
C34   H104  S    
C95   N5    A    
C135  H50   S    
C93   N29   A    
C20   C45   S    
C5    C43   S    
C28   H84   S    
C37   H108  S    
C6    C44   S    
C73   C81   A    
C99   H31   S    
C29   H86   S    
C11   C20   S    
C116  C121  A    
C99   C129  A    
C71   H47   S    
C53   C133  S    
C104  H80   S    
C46   C65   A    
C47   C64   A    
C51   C131  S    
N23   Ni2   S    
C94   N4    A    
C10   H42   S    
N22   N31   A    
C21   C123  S    
C115  H91   S    
C95   H27   S    
C56   C86   A    
C54   C70   A    
N18   N27   A    
C105  N15   A    
C106  N16   A    
C108  N18   A    
C33   H100  S    
N1    Ni1   S    
N7    N15   A    
C48   C129  S    
C11   H43   S    
C52   C77   A    
C9    H41   S    
C19   C44   S    
C54   C79   A    
C16   C25   S    
C39   H4    S    
C33   C116  S    
N24   N30   A    
C12   C134  S    
C36   H107  S    
C29   C111  S    
C58   C88   A    
C16   H48   S    
C54   C132  S    
C8    C17   S    
C63   C84   A    
C92   H24   S    
C28   C110  S    
C51   C78   A    
C96   N6    A    
C2    C22   S    
C11   C13   S    
C126  H57   S    
N13   N32   A    
C101  N11   A    
C48   C67   A    
C36   C73   S    
C58   C67   A    
C83   C86   A    
C5    C21   S    
C126  C134  S    
N7    Ni3   S    
C40   C77   S    
C26   H76   S    
C51   C69   A    
C21   C126  S    
C18   C43   S    
C76   C85   A    
C114  N25   A    
C91   N2    A    
C78   C87   A    
C102  H34   S    
C32   H96   S    
C30   H90   S    
C57   C66   A    
C26   H77   S    
N3    N10   A    
C1    N1    A    
C75   C84   A    
C14   C135  S    
C15   H46   S    
C31   H93   S    
C13   C23   S    
C60   C119  A    
C90   C125  A    
C41   H10   S    
C13   H60   S    
C6    H55   S    
C17   C135  S    
C27   H78   S    
N12   N20   A    
C49   H25   S    
N6    N16   A    
C42   C79   S    
C105  H37   S    
C31   H92   S    
C103  H35   S    
C3    C24   S    
C57   H20   S    
C39   C78   S    
C46   C127  S    
C53   C80   A    
C26   C108  S    
C15   C136  S    
C10   C24   S    
C96   H28   S    
C30   C112  S    
C7    H56   S    
C5    C9    S    
C4    C22   S    
C72   H73   S    
C38   H112  S    
C1    C117  A    
C20   C136  S    
C42   H15   S    
C98   H30   S    
C96   C131  A    
C12   H44   S    
N29   Ni4   S    
C44   H64   S    
C70   H74   S    
N2    Ni1   S    
N2    N11   A    
C1    H1    S    
C85   C88   A    
C16   C44   S    
C100  C128  A    
C58   H21   S    
C8    H40   S    
C2    C135  S    
C111  C117  A    
C36   H106  S    
C14   C22   S    
C61   C81   A    
C41   H12   S    
C7    C23   S    
C101  C127  A    
C18   C134  S    
N26   N28   A    
C60   N23   A    
C55   C87   A    
N27   Ni1   S    
C9    C18   S    
C27   C109  S    
C40   H7    S    
C31   C113  S    
C3    C16   S    
C109  N19   A    
C41   C80   S    
C110  N20   A    
C23   C121  S    
N24   Ni7   S    
C29   H85   S    
C98   C133  A    
C57   C89   A    
C59   C83   A    
C99   N9    A    
C90   N32   A    
N3    Ni1   S    
C80   C89   A    
C48   C76   A    
N19   N23   A    
C65   H66   S    
C68   H72   S    
C38   H3    S    
C101  H33   S    
C91   H23   S    
C33   H99   S    
C97   N7    A    
C4    C35   S    
C27   H79   S    
C107  C130  A    
C79   C88   A    
N4    N9    A    
C47   C125  S    
C105  C132  A    
C32   H97   S    
C106  C131  A    
C100  N10   A    
C69   H71   S    
N1    N21   A    
C59   H102  S    
C93   C122  A    
C47   C73   A    
C112  N22   A    
N25   N29   A    
C37   H110  S    
N4    Ni2   S    
N18   Ni6   S    
C113  C123  A    
C39   H6    S    
C10   C19   S    
N9    Ni5   S    
C106  H38   S    
C102  N13   A    
C34   H103  S    
C63   H17   S    
C81   C87   A    
C34   C74   S    
C64   H67   S    
C24   H61   S    
C27   H81   S    
C28   H83   S    
C50   C128  S    
C111  N21   A    
C14   H45   S    
C109  C119  A    
N13   Ni6   S    
C115  N31   A    
C29   H87   S    
N15   Ni8   S    
C2    C8    S    
C97   C132  A    
C6    C10   S    
N10   Ni6   S    
C50   C75   A    
C107  H39   S    
C97   H29   S    
C103  N14   A    
C61   H2    S    
C82   H58   S    
C17   C119  S    
C63   C72   A    
C19   C117  S    
N25   Ni8   S    
N26   Ni7   S    
C17   C35   S    
C53   C72   A    
C62   H13   S    
C4    C8    S    
C93   H69   S    
C3    H52   S    
C98   N8    A    
C7    C11   S    
C71   C120  A    
C7    C45   S    
N21   Ni5   S    
N32   Ni2   S    
C5    H54   S    
C12   C43   S    
C66   H70   S    
C56   C65   A    
C31   H94   S    
N11   Ni5   S    
C34   H101  S    
C67   H68   S    
C26   H75   S    
C42   H16   S    
C25   C122  S    
C94   H26   S    
C82   C121  A    
C52   C68   A    
N5    Ni4   S    
N6    Ni3   S    
C15   C23   S    
N14   Ni7   S    
C32   H95   S    
N30   Ni4   S    
C30   H89   S    
C56   H19   S    
C92   C128  A    
C38   C75   S    
C62   C85   A    
C94   C129  A    
N8    Ni4   S    
C60   H36   S    
C24   C25   S    
C104  N30   A    
C14   C35   S    
C30   H88   S    
N5    N17   A    
C12   C21   S    
C90   H22   S    
C82   N28   A    
C59   C68   A    
C95   C130  A    
C49   C118  A    
C41   H11   S    
C55   C64   A    
C116  N26   A    
C50   C66   A    
N19   Ni5   S    
C77   C86   A    
C40   H8    S    
C136  H51   S    
C13   C136  S    
C84   C89   A    
C15   C45   S    
C18   C120  S    
C46   C74   A    
C92   N3    A    
C61   C69   A    
C28   H82   S    
N20   Ni6   S    
N16   Ni7   S    
C4    H53   S    
C37   C76   S    
N22   Ni8   S    
N12   Ni2   S    
C22   C124  S    
N28   Ni3   S    
C9    C126  S    
C100  H32   S    
C52   C130  S    
C103  C133  A    
C38   H111  S    
C42   H14   S    
C114  C122  A    
C45   H65   S    
C43   H63   S    
C32   C114  S    
C33   H98   S    
C35   H62   S    
