data_mof_unit_16788.cif
_audit_creation_date              2012-12-10T20:45:30-0500
_audit_creation_method            fapswitch 2.2
_symmetry_space_group_name_H-M    P1
_symmetry_Int_Tables_number       1
_space_group_crystal_system       triclinic
_cell_length_a                    10.721478
_cell_length_b                    10.652861
_cell_length_c                    9.844342
_cell_angle_alpha                 89.334735
_cell_angle_beta                  89.752365
_cell_angle_gamma                 91.366893
_cell_volume                      1123.9581479

loop_
_atom_site_label
_atom_site_type_symbol
_atom_type_description
_atom_site_fract_x
_atom_site_fract_y
_atom_site_fract_z
_atom_type_partial_charge
C1    C     C_R   0.504910 0.259483 0.500483 0.919180
C2    C     C_R   0.229940 0.800751 0.071175 -0.099195
C3    C     C_R   0.934076 0.561555 0.392178 -0.240728
C4    C     C_R   0.872686 0.501671 0.501380 -0.078605
C5    C     C_R   0.938272 0.458149 0.615295 -0.019660
C6    C     C_R   0.065287 0.473221 0.615446 -0.216085
C7    C     C_R   0.128109 0.522523 0.501834 -0.105810
C8    C     C_R   0.062751 0.574763 0.391353 0.003767
C9    C     C_R   0.877244 0.448274 0.860955 -0.160924
C10   C     C_R   0.824311 0.384166 0.972645 -0.121278
C11   C     C_R   0.775215 0.262439 0.957659 -0.101528
C12   C     C_R   0.260546 0.509695 0.500062 0.912585
C13   C     C_R   0.779185 0.204596 0.831027 -0.139404
C14   C     C_R   0.830134 0.269059 0.718555 -0.105071
C15   C     C_R   0.879603 0.391334 0.732991 0.159422
C16   C     C_R   0.545729 0.062464 0.621656 0.109230
C17   C     C_R   0.530639 0.128540 0.500048 -0.105092
C18   C     C_R   0.548673 0.066983 0.376173 -0.231240
C19   C     C_R   0.553082 0.937192 0.375500 -0.246686
C20   C     C_R   0.538921 0.870972 0.498622 -0.088853
C21   C     C_R   0.552303 0.934383 0.620943 0.135636
C22   C     C_3   0.481153 0.919050 0.751100 -0.513734
C23   C     C_R   0.509069 0.740006 0.499345 0.855610
C24   C     C_3   0.469237 0.059978 0.748935 -0.460159
C25   C     C_R   0.437169 0.407577 0.073350 0.167296
C26   C     C_R   0.571580 0.583890 0.070597 -0.131517
C27   C     C_R   0.571908 0.583630 0.926526 -0.111361
C28   C     C_R   0.434587 0.408796 0.930243 0.152081
C29   C     C_3   0.295261 0.388129 0.932904 -0.246513
C30   C     C_3   0.301863 0.379017 0.086965 -0.520361
C31   C     C_R   0.740003 0.497767 0.500141 0.856783
C32   C     C_R   0.261566 0.823125 0.206374 -0.102223
C33   C     C_R   0.208563 0.748874 0.310642 -0.090788
C34   C     C_R   0.123082 0.651037 0.280339 0.124618
C35   C     C_R   0.089130 0.631861 0.143966 -0.197819
C36   C     C_R   0.143508 0.705391 0.040013 -0.156028
H1    H     H_    0.271540 0.858071 0.990719 0.135480
H2    H     H_    0.734765 0.212688 0.044299 0.121091
H3    H     H_    0.743571 0.109426 0.820236 0.129101
H4    H     H_    0.832474 0.223394 0.620867 0.112559
H5    H     H_    0.548885 0.117081 0.279757 0.169982
H6    H     H_    0.555368 0.889558 0.278916 0.164509
H7    H     H_    0.390162 0.867965 0.739520 0.209623
H8    H     H_    0.540547 0.884569 0.835282 0.197636
H9    H     H_    0.371969 0.085568 0.729188 0.248065
H10   H     H_    0.515705 0.107596 0.835521 0.200576
H11   H     H_    0.627529 0.653094 0.123984 0.133640
H12   H     H_    0.326310 0.898878 0.230382 0.136984
H13   H     H_    0.628505 0.652286 0.870879 0.139127
H14   H     H_    0.244846 0.472398 0.897516 0.135316
H15   H     H_    0.252015 0.454402 0.138670 0.230517
H16   H     H_    0.285374 0.284379 0.133016 0.238921
H17   H     H_    0.232993 0.768697 0.414978 0.094513
H18   H     H_    0.022843 0.557930 0.117825 0.130423
H19   H     H_    0.118485 0.688478 0.935281 0.125842
H20   H     H_    0.881072 0.602510 0.309887 0.153714
H21   H     H_    0.115029 0.440731 0.703344 0.188575
H22   H     H_    0.915534 0.542368 0.873707 0.111612
H23   H     H_    0.821496 0.428697 0.070855 0.131806
N1    N     N_R   0.499160 0.499140 0.142800 -0.094930
N2    N     N_R   0.499160 0.499180 0.857150 -0.106595
O1    O     O_R   0.500020 0.316790 0.614690 -0.583978
O2    O     O_R   0.500000 0.316760 0.385350 -0.628378
O3    O     O_R   0.316770 0.500030 0.614670 -0.602262
O4    O     O_R   0.316750 0.499990 0.385330 -0.614452
O5    O     O_R   0.500000 0.683240 0.614650 -0.628534
O6    O     O_R   0.499980 0.683210 0.385310 -0.626398
O7    O     O_R   0.683250 0.500010 0.614670 -0.615267
O8    O     O_R   0.683230 0.499970 0.385330 -0.633295
Zn1   Zn    Zn3+2 0.500010 0.500020 0.653130 0.969102
Zn2   Zn    Zn3+2 0.499990 0.499980 0.346870 0.944966
C37   C     C_2   0.251163 0.269611 0.864307 0.916355
O9    O     O_2   0.250238 0.266233 0.740420 -0.653157
O10   O     O_R   0.206659 0.165906 0.940134 -0.819030
H24   H     H_    0.177610 0.093744 0.880948 0.330697

loop_
_geom_bond_atom_site_label_1
_geom_bond_atom_site_label_2
_ccdc_geom_bond_type
N2    Zn1   S    
C30   H15   S    
C16   C21   A    
C35   C36   A    
C1    O1    A    
C7    C8    A    
C25   C28   A    
C26   C27   A    
C24   H9    S    
C23   O5    A    
C28   C29   S    
C18   C19   A    
C5    C6    A    
C12   O3    A    
O1    Zn1   S    
C2    C32   A    
C9    H22   S    
C23   O6    A    
O8    Zn2   S    
C27   N2    A    
C22   H8    S    
C19   C20   A    
C16   C17   A    
C25   N1    A    
O3    Zn1   S    
C9    C10   A    
C19   H6    S    
C29   C37   S    
C28   N2    A    
C16   C24   S    
C21   C22   S    
C35   H18   S    
C32   H12   S    
C6    H21   S    
C31   O7    A    
C34   C35   A    
C1    O2    A    
C17   C18   A    
C29   H14   S    
C33   H17   S    
C7    C12   S    
C5    C15   S    
O10   H24   S    
C37   O10   S    
C3    C8    A    
C18   H5    S    
C37   O9    D    
N1    Zn2   S    
O4    Zn2   S    
C11   H2    S    
C29   C30   S    
C3    H20   S    
C22   H7    S    
C20   C23   S    
C33   C34   A    
C8    C34   S    
C26   H11   S    
O2    Zn2   S    
C22   C24   S    
C3    C4    A    
C2    C36   A    
C25   C30   S    
C30   H16   S    
C4    C5    A    
C6    C7    A    
C12   O4    A    
C1    C17   S    
C24   H10   S    
C32   C33   A    
C10   H23   S    
C9    C15   A    
C36   H19   S    
C11   C13   A    
C2    H1    S    
O5    Zn1   S    
O6    Zn2   S    
C13   H3    S    
C4    C31   S    
C10   C11   A    
C14   H4    S    
C31   O8    A    
C20   C21   A    
O7    Zn1   S    
C14   C15   A    
C13   C14   A    
C26   N1    A    
C27   H13   S    
