data_mof_unit_50546.cif
_audit_creation_date              2012-12-10T17:09:52-0500
_audit_creation_method            fapswitch 2.2
_symmetry_space_group_name_H-M    P1
_symmetry_Int_Tables_number       1
_space_group_crystal_system       triclinic
_cell_length_a                    10.780147
_cell_length_b                    13.001122
_cell_length_c                    11.67604
_cell_angle_alpha                 99.746342
_cell_angle_beta                  93.53311
_cell_angle_gamma                 90.371986
_cell_volume                      1609.52108808

loop_
_atom_site_label
_atom_site_type_symbol
_atom_type_description
_atom_site_fract_x
_atom_site_fract_y
_atom_site_fract_z
_atom_type_partial_charge
C1    C     C_R   0.498323 0.299087 0.478713 0.811352
C2    C     C_R   0.071087 0.592736 0.574106 0.094497
C3    C     C_R   0.128993 0.510550 0.502346 -0.097831
C4    C     C_R   0.058590 0.434027 0.427218 -0.202900
C5    C     C_R   0.930615 0.434598 0.426007 -0.200441
C6    C     C_R   0.871154 0.511741 0.499876 -0.099860
C7    C     C_R   0.503040 0.814237 0.533621 -0.047593
C8    C     C_R   0.497724 0.185679 0.466435 -0.054151
C9    C     C_R   0.491099 0.015276 0.344411 -0.215260
C10   C     C_R   0.491193 0.123372 0.355498 -0.199556
C11   C     C_R   0.504022 0.139187 0.566337 -0.266323
C12   C     C_R   0.262551 0.503516 0.500940 0.792381
C13   C     C_R   0.503916 0.031155 0.555965 0.177148
C14   C     C_R   0.497395 0.968737 0.444124 0.175261
C15   C     C_R   0.497112 0.860720 0.433735 -0.260306
C16   C     C_R   0.509790 0.876496 0.644574 -0.210775
C17   C     C_R   0.510206 0.984592 0.655677 -0.216354
C18   C     C_R   0.389018 0.398614 0.021799 -0.320934
C19   C     C_R   0.398497 0.408344 0.143716 0.089823
C20   C     C_R   0.547664 0.545176 0.157938 0.029248
C21   C     C_R   0.541655 0.538700 0.034727 0.046546
C22   C     C_R   0.460711 0.463753 0.966278 0.025409
C23   C     C_R   0.501890 0.700889 0.521296 0.784146
C24   C     C_R   0.453147 0.455632 0.843595 0.007321
C25   C     C_R   0.601775 0.592324 0.854811 0.079033
C26   C     C_R   0.613387 0.604160 0.977610 0.063820
C27   C     C_R   0.737494 0.503959 0.499906 0.794871
C28   C     C_R   0.140053 0.676007 0.643686 -0.175603
C29   C     C_R   0.080119 0.756903 0.711707 -0.131075
C30   C     C_R   0.951023 0.757570 0.710288 -0.139042
C31   C     C_R   0.881051 0.677366 0.640806 -0.184831
C32   C     C_R   0.939803 0.593398 0.572711 0.100061
Cu1   Cu    Cu3+1 0.509250 0.507730 0.615930 0.931327
Cu2   Cu    Cu3+1 0.490750 0.492270 0.384070 0.937219
H1    H     H_    0.103223 0.372135 0.370932 0.144964
H2    H     H_    0.515305 0.031626 0.741897 0.134232
H3    H     H_    0.486285 0.158045 0.277309 0.155793
H4    H     H_    0.508979 0.186821 0.652302 0.151955
H5    H     H_    0.390882 0.398487 0.790592 0.131194
H6    H     H_    0.655814 0.641939 0.810357 0.125367
H7    H     H_    0.326076 0.340404 0.971320 0.136329
H8    H     H_    0.343010 0.357662 0.185535 0.119582
H9    H     H_    0.608993 0.601347 0.213177 0.138168
H10   H     H_    0.240229 0.680878 0.644792 0.150751
H11   H     H_    0.134080 0.820125 0.764499 0.134020
H12   H     H_    0.904775 0.821293 0.761963 0.131949
H13   H     H_    0.781052 0.683367 0.639320 0.136884
H14   H     H_    0.877652 0.372909 0.369265 0.151621
H15   H     H_    0.492157 0.813092 0.347758 0.151186
H16   H     H_    0.514558 0.841788 0.722744 0.155453
H17   H     H_    0.486094 0.968221 0.258196 0.134463
N1    N     N_R   0.523180 0.519350 0.790130 -0.200434
N2    N     N_R   0.476820 0.480650 0.209890 -0.183601
O1    O     O_R   0.506570 0.354460 0.582000 -0.584449
O2    O     O_R   0.490940 0.341410 0.386200 -0.594242
O3    O     O_R   0.327470 0.506530 0.597920 -0.585832
O4    O     O_R   0.311840 0.493480 0.402120 -0.578268
O5    O     O_R   0.509060 0.658590 0.613800 -0.607954
O6    O     O_R   0.493430 0.645540 0.418000 -0.588138
O7    O     O_R   0.688160 0.506520 0.597880 -0.582282
O8    O     O_R   0.672530 0.493470 0.402080 -0.581762
C33   C     C_3   0.701580 0.686323 0.044672 -0.925218
H18   H     H_    0.749584 0.730121 0.985944 0.233780
H19   H     H_    0.649541 0.743113 0.104943 0.232581
H20   H     H_    0.773587 0.649044 0.095338 0.245274

loop_
_geom_bond_atom_site_label_1
_geom_bond_atom_site_label_2
_ccdc_geom_bond_type
C24   N1    A    
C11   H4    S    
C6    C32   A    
C9    C14   A    
Cu1   O5    S    
C17   H2    S    
C10   H3    S    
C23   O5    A    
C1    C8    S    
C9    C10   A    
C33   H19   S    
C31   C32   A    
C9    H17   S    
C19   H8    S    
C13   C17   A    
C1    O1    A    
C19   N2    A    
Cu1   O3    S    
C7    C15   A    
C2    C3    A    
C26   C33   S    
C4    H1    S    
Cu2   O2    S    
C31   H13   S    
C13   C14   A    
Cu1   N1    S    
C23   O6    A    
C11   C13   A    
C29   C30   A    
C16   H16   S    
C8    C11   A    
C7    C23   S    
C5    C6    A    
C2    C32   A    
C28   C29   A    
C12   O3    A    
C21   C26   A    
C28   H10   S    
Cu1   Cu2   S    
Cu1   O7    S    
C27   O7    A    
C15   H15   S    
C25   H6    S    
C1    O2    A    
C30   C31   A    
C18   C22   A    
C5    H14   S    
C22   C24   A    
C25   N1    A    
C16   C17   A    
C12   O4    A    
C3    C4    A    
C20   H9    S    
C20   C21   A    
Cu2   N2    S    
C8    C10   A    
C18   C19   A    
C18   H7    S    
Cu1   O1    S    
C14   C15   A    
C20   N2    A    
C2    C28   A    
C3    C12   S    
C27   O8    A    
C33   H20   S    
C25   C26   A    
C21   C22   A    
Cu2   O6    S    
C24   H5    S    
C30   H12   S    
Cu2   O8    S    
C7    C16   A    
C33   H18   S    
C6    C27   S    
C29   H11   S    
C4    C5    A    
Cu2   O4    S    
