data_mof_unit_65978.cif
_audit_creation_date              2012-10-26T18:21:11-0400
_audit_creation_method            fapswitch 2.2
_symmetry_space_group_name_H-M    P1
_symmetry_Int_Tables_number       1
_space_group_crystal_system       triclinic
_cell_length_a                    18.379779
_cell_length_b                    18.380561
_cell_length_c                    32.015788
_cell_angle_alpha                 89.999943
_cell_angle_beta                  89.999852
_cell_angle_gamma                 90.000107
_cell_volume                      10815.9144407

loop_
_atom_site_label
_atom_site_type_symbol
_atom_type_description
_atom_site_fract_x
_atom_site_fract_y
_atom_site_fract_z
_atom_type_partial_charge
C1    C     C_R   0.639862 0.500019 1.000000 0.555772
C2    C     C_1   0.500024 0.499786 0.162658 -0.009215
C3    C     C_3   0.252009 0.629563 0.236019 -0.431411
C4    C     C_3   0.127619 0.070986 0.281253 -0.251309
C5    C     C_3   0.180102 0.093139 0.246301 -0.294551
C6    C     C_3   0.247275 0.130930 0.263976 -0.431567
C7    C     C_3   0.126289 0.073411 0.718754 -0.251281
C8    C     C_3   0.178383 0.096462 0.753708 -0.294689
C9    C     C_3   0.244762 0.135647 0.736045 -0.431262
C10   C     C_3   0.873308 0.072712 0.281246 -0.251294
C11   C     C_3   0.821083 0.095468 0.246292 -0.294729
C12   C     C_3   0.754493 0.134297 0.263956 -0.431107
C13   C     C_1   0.999980 0.999786 0.337342 -0.009215
C14   C     C_3   0.871993 0.070278 0.718745 -0.251321
C15   C     C_3   0.819387 0.092138 0.753696 -0.294578
C16   C     C_3   0.752009 0.129563 0.736019 -0.431410
C17   C     C_2   0.500962 0.646972 0.722120 0.549797
C18   C     C_2   0.498225 0.646964 0.277879 0.549795
C19   C     C_2   0.000962 0.146972 0.222120 0.549797
C20   C     C_2   0.998225 0.146964 0.777879 0.549794
C21   C     C_2   0.498991 0.353998 0.777245 0.574529
C22   C     C_2   0.501819 0.354007 0.222756 0.574528
C23   C     C_2   0.998991 0.853997 0.277245 0.574529
C24   C     C_1   0.000024 0.999786 0.662658 -0.009215
C25   C     C_2   0.001819 0.854007 0.722756 0.574528
C26   C     C_1   0.499992 0.500365 0.662667 0.005050
C27   C     C_1   0.500006 0.500367 0.337333 0.005051
C28   C     C_1   0.999992 0.000365 0.162667 0.005050
C29   C     C_1   0.000006 0.000367 0.837333 0.005051
C30   C     C_1   0.717328 0.500053 0.000000 -0.042959
C31   C     C_1   0.282672 0.500052 1.000000 -0.042993
C32   C     C_1   0.217328 0.000052 0.500000 -0.042959
C33   C     C_R   0.360138 0.500019 0.000000 0.555736
C34   C     C_1   0.782672 0.000052 0.500000 -0.042993
C35   C     C_1   0.782572 0.500045 0.000000 -0.042742
C36   C     C_1   0.217428 0.500044 1.000000 -0.042768
C37   C     C_1   0.282572 0.000045 0.500000 -0.042742
C38   C     C_1   0.717428 0.000044 0.500000 -0.042768
C39   C     C_R   0.500000 0.360015 0.500000 0.556495
C40   C     C_R   1.000000 0.860015 1.000000 0.556495
C41   C     C_R   0.500000 0.499874 0.580198 0.555268
C42   C     C_R   0.500000 0.499874 0.419801 0.555266
C43   C     C_R   1.000000 0.999874 0.080198 0.555268
C44   C     C_R   0.139862 0.000019 0.500000 0.555772
C45   C     C_R   0.000000 0.999874 0.919802 0.555266
C46   C     C_R   0.500000 0.639716 0.500000 0.565786
C47   C     C_R   0.000000 0.139716 0.000000 0.565786
C48   C     C_R   1.000000 0.639919 1.000000 0.558590
C49   C     C_R   0.500000 0.139919 0.500000 0.558590
C50   C     C_R   0.860040 0.500017 0.000000 0.558979
C51   C     C_R   0.139960 0.500017 1.000000 0.558975
C52   C     C_R   0.360040 0.000017 0.500000 0.558979
C53   C     C_R   0.639960 0.000017 0.500000 0.558975
C54   C     C_R   0.499997 0.500002 0.919802 0.550239
C55   C     C_R   0.860138 0.000019 0.500000 0.555736
C56   C     C_R   0.500003 0.500002 0.080198 0.550240
C57   C     C_R   0.999997 0.000002 0.419802 0.550239
C58   C     C_R   0.000003 0.000002 0.580198 0.550240
C59   C     C_R   0.000000 0.360023 0.000000 0.559792
C60   C     C_R   0.500000 0.860023 0.500000 0.559792
C61   C     C_1   0.500000 0.282580 0.500000 -0.041082
C62   C     C_1   1.000000 0.782580 1.000000 -0.041082
C63   C     C_1   1.000000 0.717354 1.000000 -0.041160
C64   C     C_1   0.500000 0.217354 0.500000 -0.041160
C65   C     C_1   0.500000 0.717232 0.500000 -0.034264
C66   C     C_3   0.500445 0.569248 0.736412 0.101379
C67   C     C_1   0.000000 0.217232 0.000000 -0.034264
C68   C     C_1   0.000000 0.282505 0.000000 -0.037927
C69   C     C_1   0.500000 0.782505 0.500000 -0.037927
C70   C     C_3   0.559845 0.465265 0.735590 -0.128162
C71   C     C_3   0.560536 0.466409 0.264412 -0.128185
C72   C     C_3   0.439651 0.466073 0.735588 -0.128203
C73   C     C_3   0.440349 0.464935 0.264410 -0.128183
C74   C     C_3   0.059845 0.965265 0.235590 -0.128162
C75   C     C_3   0.060536 0.966409 0.764413 -0.128185
C76   C     C_3   0.939651 0.966073 0.235588 -0.128203
C77   C     C_3   0.499172 0.569244 0.263587 0.101383
C78   C     C_3   0.940349 0.964935 0.764409 -0.128183
C79   C     C_3   0.559598 0.533798 0.763919 -0.025137
C80   C     C_3   0.558991 0.534924 0.236082 -0.025133
C81   C     C_3   0.440818 0.534596 0.763918 -0.025123
C82   C     C_3   0.440218 0.533467 0.236080 -0.025129
C83   C     C_3   0.059598 0.033798 0.263919 -0.025137
C84   C     C_3   0.058991 0.034924 0.736082 -0.025133
C85   C     C_3   0.940818 0.034596 0.263918 -0.025123
C86   C     C_3   0.940218 0.033467 0.736080 -0.025129
C87   C     C_1   0.499988 0.499961 0.874986 0.007867
C88   C     C_3   0.000445 0.069248 0.236412 0.101379
C89   C     C_1   0.500013 0.499960 0.125014 0.007867
C90   C     C_1   0.999988 0.999961 0.374986 0.007867
C91   C     C_1   0.000014 0.999961 0.625014 0.007867
C92   C     C_1   0.499997 0.500063 0.625018 0.016619
C93   C     C_1   0.500003 0.500064 0.374982 0.016619
C94   C     C_1   0.999997 0.000063 0.125018 0.016619
C95   C     C_1   0.000003 0.000064 0.874981 0.016619
C96   C     C_3   0.499518 0.431759 0.763280 0.075730
C97   C     C_3   0.500861 0.431764 0.236721 0.075734
C98   C     C_3   0.999518 0.931759 0.263280 0.075730
C99   C     C_3   0.999172 0.069244 0.763587 0.101383
C100  C     C_3   0.000861 0.931764 0.736721 0.075734
C101  C     C_3   0.499974 0.499548 0.791471 0.016464
C102  C     C_3   0.500031 0.499548 0.208529 0.016464
C103  C     C_3   0.999974 0.999548 0.291471 0.016464
C104  C     C_3   0.000031 0.999548 0.708529 0.016464
C105  C     C_3   0.499987 0.500936 0.708467 0.000105
C106  C     C_3   0.500008 0.500937 0.291533 0.000105
C107  C     C_3   0.999987 0.000936 0.208467 0.000105
C108  C     C_3   0.000008 0.000937 0.791533 0.000105
C109  C     C_3   0.627619 0.570986 0.781253 -0.251309
C110  C     C_1   0.499980 0.499786 0.837342 -0.009215
C111  C     C_3   0.680102 0.593139 0.746301 -0.294551
C112  C     C_3   0.747275 0.630930 0.763976 -0.431567
C113  C     C_3   0.626289 0.573411 0.218754 -0.251280
C114  C     C_3   0.678383 0.596462 0.253708 -0.294688
C115  C     C_3   0.744762 0.635647 0.236045 -0.431262
C116  C     C_3   0.373308 0.572712 0.781246 -0.251294
C117  C     C_3   0.321083 0.595468 0.746292 -0.294729
C118  C     C_3   0.254493 0.634297 0.763956 -0.431108
C119  C     C_3   0.371993 0.570278 0.218745 -0.251322
C120  C     C_3   0.319387 0.592138 0.253696 -0.294578
Cu1   Cu    Cu3+1 0.500000 0.427500 0.000000 0.997012
Cu2   Cu    Cu3+1 1.000000 0.500000 0.041440 0.973978
Cu3   Cu    Cu3+1 0.500000 0.000000 0.458560 0.973973
Cu4   Cu    Cu3+1 0.500000 0.000000 0.541440 0.973978
Cu5   Cu    Cu3+1 0.000000 0.927500 0.500000 0.997012
Cu6   Cu    Cu3+1 0.500000 0.572500 0.000000 0.964041
Cu7   Cu    Cu3+1 0.000000 0.072500 0.500000 0.964041
Cu8   Cu    Cu3+1 0.572520 0.499840 0.500000 0.977915
Cu9   Cu    Cu3+1 0.427480 0.499840 0.500000 0.977933
Cu10  Cu    Cu3+1 0.072520 0.999840 0.000000 0.977915
Cu11  Cu    Cu3+1 0.927480 0.999840 0.000000 0.977933
Cu12  Cu    Cu3+1 0.000000 0.500000 0.958560 0.973973
H1    H     H_    0.608664 0.436327 0.723717 0.125094
H2    H     H_    0.776832 0.593917 0.785523 0.161274
H3    H     H_    0.784343 0.646283 0.738047 0.162587
H4    H     H_    0.697684 0.544102 0.728683 0.164243
H5    H     H_    0.652568 0.630778 0.724248 0.197221
H6    H     H_    0.610699 0.619769 0.799303 0.175929
H7    H     H_    0.655397 0.532651 0.802845 0.150196
H8    H     H_    0.774976 0.599334 0.214401 0.161467
H9    H     H_    0.727811 0.685535 0.219047 0.168772
H10   H     H_    0.781595 0.651572 0.261972 0.162904
H11   H     H_    0.650147 0.633459 0.275830 0.197170
H12   H     H_    0.609892 0.438402 0.276289 0.125019
H13   H     H_    0.696966 0.547707 0.271250 0.164156
H14   H     H_    0.654759 0.535649 0.197126 0.150142
H15   H     H_    0.608441 0.621910 0.200743 0.176032
H16   H     H_    0.224481 0.597828 0.785607 0.161390
H17   H     H_    0.271175 0.684285 0.780946 0.168954
H18   H     H_    0.217569 0.650009 0.738029 0.162981
H19   H     H_    0.349115 0.632612 0.724165 0.197202
H20   H     H_    0.302764 0.546605 0.728756 0.164103
H21   H     H_    0.345049 0.534795 0.802877 0.150112
H22   H     H_    0.390888 0.621311 0.799254 0.176043
H23   H     H_    0.390450 0.437793 0.723712 0.124944
H24   H     H_    0.267668 0.679764 0.218918 0.168999
H25   H     H_    0.222657 0.592390 0.214468 0.161198
H26   H     H_    0.214855 0.644707 0.261948 0.162660
H27   H     H_    0.302073 0.543002 0.271312 0.164188
H28   H     H_    0.346714 0.629926 0.275752 0.197253
H29   H     H_    0.388644 0.619154 0.200695 0.175939
H30   H     H_    0.344429 0.531790 0.197153 0.150166
H31   H     H_    0.231343 0.181038 0.281079 0.168825
H32   H     H_    0.276832 0.093917 0.285523 0.161274
H33   H     H_    0.284343 0.146283 0.238047 0.162587
H34   H     H_    0.391692 0.435728 0.276283 0.125020
H35   H     H_    0.197684 0.044102 0.228683 0.164243
H36   H     H_    0.152568 0.130778 0.224248 0.197221
H37   H     H_    0.110699 0.119769 0.299303 0.175929
H38   H     H_    0.155396 0.032651 0.302845 0.150196
H39   H     H_    0.274976 0.099334 0.714402 0.161467
H40   H     H_    0.227811 0.185535 0.719047 0.168772
H41   H     H_    0.281595 0.151572 0.761972 0.162904
H42   H     H_    0.150147 0.133460 0.775830 0.197170
H43   H     H_    0.196966 0.047707 0.771250 0.164156
H44   H     H_    0.154759 0.035649 0.697126 0.150142
H45   H     H_    0.108664 0.936327 0.223717 0.125094
H46   H     H_    0.108441 0.121910 0.700743 0.176032
H47   H     H_    0.724481 0.097828 0.285607 0.161390
H48   H     H_    0.771175 0.184285 0.280946 0.168953
H49   H     H_    0.717569 0.150009 0.238029 0.162981
H50   H     H_    0.849115 0.132612 0.224165 0.197202
H51   H     H_    0.802764 0.046606 0.228756 0.164103
H52   H     H_    0.845049 0.034795 0.302877 0.150112
H53   H     H_    0.890889 0.121311 0.299254 0.176043
H54   H     H_    0.767668 0.179764 0.718918 0.168999
H55   H     H_    0.722657 0.092390 0.714468 0.161198
H56   H     H_    0.109892 0.938403 0.776289 0.125019
H57   H     H_    0.714855 0.144707 0.761948 0.162659
H58   H     H_    0.802073 0.043002 0.771312 0.164188
H59   H     H_    0.846713 0.129926 0.775752 0.197253
H60   H     H_    0.888644 0.119155 0.700695 0.175939
H61   H     H_    0.844430 0.031790 0.697153 0.150166
H62   H     H_    0.501429 0.717419 0.673885 0.343280
H63   H     H_    0.497368 0.717407 0.326114 0.343281
H64   H     H_    0.001429 0.217419 0.173885 0.343280
H65   H     H_    0.997369 0.217407 0.826114 0.343281
H66   H     H_    0.498505 0.282916 0.825183 0.341401
H67   H     H_    0.890450 0.937793 0.223712 0.124944
H68   H     H_    0.502701 0.282930 0.174818 0.341400
H69   H     H_    0.998505 0.782917 0.325183 0.341401
H70   H     H_    0.002701 0.782930 0.674818 0.341400
H71   H     H_    0.891691 0.935728 0.776283 0.125019
H72   H     H_    0.731343 0.681038 0.781080 0.168824
O1    O     O_R   0.605840 0.438770 0.000000 -0.500808
O2    O     O_R   0.394240 0.561230 0.000000 -0.504062
O3    O     O_R   0.105760 0.061230 0.500000 -0.504090
O4    O     O_R   0.894240 0.061230 0.500000 -0.504062
O5    O     O_R   0.500000 0.438780 0.939540 -0.488858
O6    O     O_R   0.500000 0.438780 0.060460 -0.488860
O7    O     O_R   0.000000 0.938780 0.439540 -0.488858
O8    O     O_R   0.000000 0.938780 0.560460 -0.488860
O9    O     O_R   0.500000 0.561230 0.939540 -0.510655
O10   O     O_R   0.500000 0.561230 0.060460 -0.510655
O11   O     O_R   0.000000 0.061230 0.439540 -0.510655
O12   O     O_R   0.394160 0.438770 0.000000 -0.500863
O13   O     O_R   0.000000 0.061230 0.560460 -0.510655
O14   O     O_R   0.561200 0.394070 0.500000 -0.503965
O15   O     O_R   0.438800 0.394070 0.500000 -0.504007
O16   O     O_R   0.061200 0.894070 0.000000 -0.503965
O17   O     O_R   0.938800 0.894070 0.000000 -0.504007
O18   O     O_R   0.561230 0.499860 0.560460 -0.503636
O19   O     O_R   0.561230 0.499860 0.439540 -0.503810
O20   O     O_R   0.438770 0.499860 0.560460 -0.503780
O21   O     O_R   0.438770 0.499860 0.439540 -0.503605
O22   O     O_R   0.061230 0.999860 0.060460 -0.503636
O23   O     O_R   0.105840 0.938770 0.500000 -0.500808
O24   O     O_R   0.061230 0.999860 0.939540 -0.503810
O25   O     O_R   0.938770 0.999860 0.060460 -0.503780
O26   O     O_R   0.938770 0.999860 0.939540 -0.503605
O27   O     O_R   0.561270 0.605640 0.500000 -0.499774
O28   O     O_R   0.438730 0.605640 0.500000 -0.499730
O29   O     O_R   0.061270 0.105640 0.000000 -0.499774
O30   O     O_R   0.938730 0.105640 0.000000 -0.499730
O31   O     O_R   0.000000 0.605780 0.965000 -0.502621
O32   O     O_R   1.000000 0.605780 0.035000 -0.502618
O33   O     O_R   0.500000 0.105780 0.465000 -0.502621
O34   O     O_R   0.894160 0.938770 0.500000 -0.500863
O35   O     O_R   0.500000 0.105780 0.535000 -0.502618
O36   O     O_R   0.894200 0.500000 0.965010 -0.503429
O37   O     O_R   0.894200 0.500000 0.034990 -0.503336
O38   O     O_R   0.105800 0.500000 0.965010 -0.503351
O39   O     O_R   0.105800 0.500000 0.034990 -0.503443
O40   O     O_R   0.394200 0.000000 0.465010 -0.503429
O41   O     O_R   0.394200 1.000000 0.534990 -0.503336
O42   O     O_R   0.605800 0.000000 0.465010 -0.503351
O43   O     O_R   0.605800 1.000000 0.534990 -0.503443
O44   O     O_2   0.501290 0.695880 0.747971 -0.531698
O45   O     O_R   0.000000 0.394210 0.965010 -0.501841
O46   O     O_R   0.501068 0.663141 0.679497 -0.708907
O47   O     O_2   0.497626 0.695869 0.252027 -0.531699
O48   O     O_R   0.498030 0.663133 0.320502 -0.708909
O49   O     O_2   0.001290 0.195880 0.247971 -0.531698
O50   O     O_R   0.001068 0.163141 0.179497 -0.708907
O51   O     O_2   0.997626 0.195869 0.752027 -0.531699
O52   O     O_R   0.998030 0.163133 0.820502 -0.708909
O53   O     O_2   0.498662 0.305443 0.751174 -0.521406
O54   O     O_R   0.498875 0.337267 0.819803 -0.694132
O55   O     O_2   0.502417 0.305456 0.248827 -0.521413
O56   O     O_R   1.000000 0.394210 0.034990 -0.501842
O57   O     O_R   0.502029 0.337277 0.180198 -0.694136
O58   O     O_2   0.998662 0.805443 0.251174 -0.521406
O59   O     O_R   0.998875 0.837267 0.319802 -0.694132
O60   O     O_2   0.002417 0.805456 0.748827 -0.521413
O61   O     O_R   0.002029 0.837277 0.680198 -0.694136
O62   O     O_R   0.500000 0.894210 0.465010 -0.501841
O63   O     O_R   0.500000 0.894210 0.534990 -0.501842
O64   O     O_R   0.605760 0.561230 0.000000 -0.504090

loop_
_geom_bond_atom_site_label_1
_geom_bond_atom_site_label_2
_ccdc_geom_bond_type
C54   O9    A    
Cu2   O32   S    
C115  H9    S    
C10   C85   S    
C83   C88   S    
C13   C90   T    
C2    C89   T    
C42   C93   S    
C10   H52   S    
C46   O27   A    
C39   O14   A    
C75   H56   S    
Cu1   O1    S    
C74   C83   S    
C49   O35   A    
C50   O37   A    
C86   C104  S    
Cu8   Cu9   S    
C119  H29   S    
C57   O7    A    
C114  C115  S    
Cu5   O7    S    
C8    H43   S    
C73   C106  S    
C7    C8    S    
C74   C98   S    
C87   C110  T    
C81   C101  S    
C1    C30   S    
C25   C100  S    
C73   C97   S    
C66   C79   S    
C4    C83   S    
Cu9   O28   S    
Cu7   O13   S    
C17   C66   S    
C4    H38   S    
C30   C35   T    
C18   C77   S    
C60   C69   S    
C39   O15   A    
C77   C106  S    
C52   O40   A    
C54   C87   S    
C58   O13   A    
C8    H42   S    
C111  H4    S    
C85   C88   S    
C2    C102  S    
C22   O57   S    
C76   C98   S    
C15   C16   S    
H64   O50   S    
C17   O46   S    
C100  C104  S    
C43   C94   S    
C40   C62   S    
C116  C117  S    
C119  H30   S    
C78   C108  S    
C5    H36   S    
Cu2   Cu12  S    
Cu4   O41   S    
C118  H18   S    
Cu7   O3    S    
C53   O42   A    
C71   C80   S    
Cu6   O10   S    
C109  C111  S    
C74   C107  S    
C33   O12   A    
C54   O5    A    
C57   O11   A    
H65   O52   S    
C18   O48   S    
C8    C9    S    
C59   O45   A    
C120  H27   S    
C72   H23   S    
C31   C33   S    
C29   C108  S    
C9    H41   S    
Cu1   O5    S    
C13   C103  S    
C1    O1    A    
C58   C91   S    
C16   H57   S    
C31   C36   T    
C116  H22   S    
C72   C81   S    
C85   C103  S    
C43   O22   A    
C47   O30   A    
C14   H60   S    
Cu11  O25   S    
C5    H35   S    
C7    C84   S    
C6    H33   S    
Cu10  O24   S    
C75   C108  S    
C22   C97   S    
C96   C101  S    
C52   O41   A    
C6    H31   S    
Cu6   O64   S    
C23   C98   S    
C11   H50   S    
C46   O28   A    
C82   C119  S    
Cu9   O20   S    
Cu8   O19   S    
C47   C67   S    
Cu3   O40   S    
C44   O23   A    
Cu5   O8    S    
C19   O49   D    
Cu12  O45   S    
C20   O52   S    
Cu2   O37   S    
Cu5   Cu7   S    
Cu11  O30   S    
C32   C44   S    
C39   C61   S    
C33   O2    A    
C57   C90   S    
C79   C109  S    
C67   C68   T    
C41   O20   A    
Cu1   O12   S    
H69   O59   S    
Cu3   Cu4   S    
C11   H51   S    
C78   H71   S    
C14   C86   S    
C46   C65   S    
C49   O33   A    
C19   C88   S    
C3    C120  S    
Cu8   O18   S    
C29   C95   T    
C25   O60   D    
C73   H34   S    
C28   C94   T    
C17   O44   D    
C101  C110  S    
C32   C37   T    
C16   H55   S    
C44   O3    A    
C7    H46   S    
C80   C102  S    
C109  H6    S    
C24   C104  S    
C45   O24   A    
C72   C96   S    
C113  H14   S    
C61   C64   T    
C70   C96   S    
Cu7   O4    S    
C53   O43   A    
C56   O6    A    
C62   C63   T    
C55   O4    A    
Cu6   O9    S    
C75   C100  S    
C59   C68   S    
C3    H26   S    
C71   C97   S    
C19   O50   S    
C12   H49   S    
C23   O59   S    
C18   O47   D    
C119  C120  S    
H63   O48   S    
C12   H47   S    
C35   C50   S    
H62   O46   S    
C82   C102  S    
C34   C55   S    
C117  H19   S    
Cu1   O6    S    
C80   C113  S    
Cu10  O16   S    
C86   C99   S    
C21   O54   S    
C38   C53   S    
C116  H21   S    
C48   O32   A    
C36   C51   S    
C83   C103  S    
Cu11  O26   S    
Cu2   O56   S    
C72   C105  S    
C12   H48   S    
C14   H61   S    
C99   C108  S    
Cu8   O27   S    
C58   O8    A    
C78   C100  S    
C37   C52   S    
C84   C104  S    
C118  H17   S    
C59   O56   A    
C9    H39   S    
C51   O38   A    
C49   C64   S    
C45   O26   A    
C112  H72   S    
C60   O63   A    
C42   O19   A    
C45   C95   S    
C24   C91   T    
Cu8   O14   S    
C73   C82   S    
H66   O54   S    
C112  H3    S    
C111  H5    S    
C20   O51   D    
C3    H25   S    
C113  C114  S    
C42   O21   A    
Cu12  O38   S    
C88   C107  S    
C15   H59   S    
C56   C89   S    
Cu10  O29   S    
C111  C112  S    
C70   C79   S    
C34   C38   T    
C84   C99   S    
C56   O10   A    
C15   H58   S    
C51   O39   A    
C41   O18   A    
C114  H13   S    
C6    H32   S    
C4    C5    S    
C48   C63   S    
C76   H67   S    
Cu3   O42   S    
C25   O61   S    
C11   C12   S    
C43   O25   A    
Cu2   O39   S    
C21   C96   S    
C7    H44   S    
C22   O55   D    
C76   C107  S    
C1    O64   A    
Cu4   O63   S    
C10   H53   S    
C23   O58   D    
C70   C105  S    
C26   C105  S    
C40   O17   A    
C109  H7    S    
C114  H11   S    
C113  H15   S    
Cu4   O43   S    
C50   O36   A    
Cu10  Cu11  S    
C66   C105  S    
Cu1   Cu6   S    
Cu9   O15   S    
C16   H54   S    
C117  C118  S    
C66   C81   S    
C77   C80   S    
Cu3   O62   S    
C21   O53   D    
H68   O57   S    
C5    C6    S    
C20   C99   S    
C77   C82   S    
Cu6   O2    S    
C70   H1    S    
C65   C69   T    
C76   C85   S    
C81   C116  S    
C118  H16   S    
C3    H24   S    
C27   C106  S    
C117  H20   S    
Cu11  O17   S    
C55   O34   A    
Cu12  O36   S    
C60   O62   A    
C75   C84   S    
Cu12  O31   S    
C115  H10   S    
C48   O31   A    
C27   C93   T    
C10   C11   S    
Cu7   O11   S    
Cu4   O35   S    
C74   H45   S    
C41   C92   S    
C115  H8    S    
Cu10  O22   S    
C78   C86   S    
C71   C106  S    
Cu9   O21   S    
C120  H28   S    
C14   C15   S    
C79   C101  S    
C9    H40   S    
C28   C107  S    
C47   O29   A    
H70   O61   S    
Cu5   O23   S    
C112  H2    S    
C26   C92   T    
C97   C102  S    
C40   O16   A    
Cu5   O34   S    
C98   C103  S    
C4    H37   S    
C71   H12   S    
Cu3   O33   S    
