data_mof_unit_31594.cif
_audit_creation_date              2012-12-11T16:53:44-0500
_audit_creation_method            fapswitch 2.2
_symmetry_space_group_name_H-M    P1
_symmetry_Int_Tables_number       1
_space_group_crystal_system       triclinic
_cell_length_a                    14.944702
_cell_length_b                    14.9712
_cell_length_c                    17.111495
_cell_angle_alpha                 108.666303
_cell_angle_beta                  105.700086
_cell_angle_gamma                 108.900435
_cell_volume                      3118.08391394

loop_
_atom_site_label
_atom_site_type_symbol
_atom_type_description
_atom_site_fract_x
_atom_site_fract_y
_atom_site_fract_z
_atom_type_partial_charge
C1    C     C_R   0.085181 0.275118 0.055198 -0.099604
C2    C     C_R   0.024274 0.571614 0.742379 -0.036122
C3    C     C_R   0.680487 0.206231 0.735047 0.094705
C4    C     C_R   0.320549 0.492945 0.996361 0.069739
C5    C     C_R   0.276974 0.684880 0.246355 -0.104527
C6    C     C_R   0.701241 0.496939 0.920980 0.208016
C7    C     C_R   0.887202 0.453800 0.185847 -0.085391
C8    C     C_R   0.085525 0.803057 0.011551 -0.042205
C9    C     C_R   0.916321 0.717402 0.928642 -0.108631
C10   C     C_R   0.061025 0.525099 0.264173 0.184959
C11   C     C_R   0.279417 0.785292 0.176019 -0.042594
C12   C     C_R   0.934658 0.509398 0.743887 -0.099796
C13   C     C_R   0.697879 0.393432 0.988448 -0.154515
C14   C     C_R   0.339246 0.778268 0.249338 0.044259
C15   C     C_R   0.634696 0.418638 0.934791 0.007697
C16   C     C_R   0.966474 0.509437 0.272352 0.030357
C17   C     C_R   0.002313 0.814433 0.964362 0.136037
C18   C     C_R   0.408477 0.463791 0.895893 0.056190
C19   C     C_R   0.399260 0.467636 0.975662 -0.017984
C20   C     C_R   0.453809 0.428836 0.025447 0.073060
C21   C     C_R   0.495535 0.367433 0.983652 0.381718
C22   C     C_R   0.523222 0.383065 0.914420 -0.006754
C23   C     C_R   0.726643 0.210035 0.820191 0.239892
C24   C     C_R   0.473003 0.426446 0.866905 -0.049448
C25   C     C_3   0.394558 0.377645 0.769705 0.584122
C26   C     C_3   0.325321 0.418783 0.803681 -0.573047
C27   C     C_R   0.952122 0.544208 0.356095 0.013353
C28   C     C_R   0.028141 0.601289 0.670010 -0.086673
C29   C     C_R   0.129305 0.655115 0.591707 0.549221
C30   C     C_R   0.119099 0.624495 0.657448 -0.219538
C31   C     C_R   0.940649 0.596377 0.607888 0.522200
C32   C     C_R   0.939262 0.583517 0.522468 -0.249865
C33   C     C_R   0.037147 0.624962 0.517935 -0.119001
C34   C     C_R   0.279340 0.553696 0.968196 -0.028268
C35   C     C_R   0.038939 0.617062 0.435818 -0.067256
C36   C     C_R   0.855266 0.499628 0.358093 -0.217834
C37   C     C_R   0.846767 0.519664 0.440619 0.577326
C38   C     C_R   0.617393 0.112751 0.646710 0.008082
C39   C     C_R   0.444306 0.854218 0.322119 0.015535
C40   C     C_R   0.579398 0.035017 0.407206 -0.164771
C41   C     C_R   0.509485 0.947986 0.323449 0.202660
C42   C     C_R   0.469077 0.842427 0.402179 -0.158845
C43   C     C_R   0.531514 0.930025 0.485249 0.017246
C44   C     C_R   0.582395 0.028433 0.487640 0.087459
C45   C     C_R   0.734978 0.305479 0.742858 -0.124648
C46   C     C_R   0.633039 0.118215 0.570247 -0.171060
C47   C     C_R   0.554913 0.015003 0.639293 0.184916
C48   C     C_R   0.529938 0.923609 0.564746 0.178285
C49   C     C_R   0.978521 0.055799 0.069670 -0.045618
C50   C     C_R   0.971876 0.072140 0.992230 0.043923
C51   C     C_R   0.904234 0.982738 0.907719 -0.269453
C52   C     C_R   0.826912 0.893370 0.901470 0.417957
C53   C     C_R   0.827061 0.885407 0.980996 0.215951
C54   C     C_R   0.911816 0.961393 0.062883 -0.218049
C55   C     C_3   0.920538 0.009491 0.157001 0.269199
C56   C     C_R   0.268827 0.455238 0.043184 -0.050616
C57   C     C_3   0.990443 0.116221 0.164113 0.236661
C58   C     C_R   0.107291 0.604422 0.823801 0.442512
C59   C     C_R   0.927470 0.197242 0.942359 0.335930
C60   C     C_R   0.001015 0.177001 0.993221 0.056378
H1    H     H_    0.156128 0.291179 0.107635 0.156097
H2    H     H_    0.804533 0.426270 0.166084 0.149124
H3    H     H_    0.166231 0.860262 0.041663 0.155551
H4    H     H_    0.842032 0.693005 0.876793 0.198238
H5    H     H_    0.302670 0.845499 0.154268 0.140688
H6    H     H_    0.675319 0.328494 0.004756 0.217725
H7    H     H_    0.855779 0.477249 0.695368 0.198066
H8    H     H_    0.316901 0.481489 0.785599 0.219354
H9    H     H_    0.251404 0.356672 0.793178 0.248245
H10   H     H_    0.110030 0.655985 0.431507 0.192113
H11   H     H_    0.787094 0.444107 0.295562 0.204755
H12   H     H_    0.182907 0.617698 0.698044 0.217530
H13   H     H_    0.680476 0.192176 0.573035 0.159252
H14   H     H_    0.625666 0.109077 0.409214 0.181043
H15   H     H_    0.425579 0.769694 0.402445 0.164996
H16   H     H_    0.900734 0.987873 0.845900 0.240193
H17   H     H_    0.963500 0.982464 0.200597 0.067964
H18   H     H_    0.303784 0.595705 0.931472 0.190016
H19   H     H_    0.716358 0.335500 0.694183 0.135911
H20   H     H_    0.277736 0.402876 0.072178 0.143443
H21   H     H_    0.303568 0.643399 0.280589 0.143838
N1    N     N_R   0.055640 0.348550 0.045600 -0.059240
N2    N     N_R   0.798340 0.505430 0.954400 -0.079470
N3    N     N_R   0.931580 0.439470 0.128350 -0.061482
N4    N     N_R   0.051950 0.704140 0.002340 -0.056983
N5    N     N_R   0.944360 0.651450 0.954400 -0.065460
N6    N     N_R   0.039170 0.492150 0.176290 -0.074850
N7    N     N_R   0.188710 0.696600 0.128350 -0.049076
N8    N     N_R   0.794820 0.447010 0.002340 -0.080424
N9    N     N_R   0.960830 0.507850 0.823710 -0.066864
N10   N     N_R   0.811290 0.303400 0.871650 -0.057252
N11   N     N_R   0.205180 0.552990 0.997660 -0.037663
N12   N     N_R   0.814810 0.361830 0.823710 -0.041863
N13   N     N_R   0.201660 0.494570 0.045600 -0.056295
N14   N     N_R   0.068420 0.560530 0.871650 -0.087990
N15   N     N_R   0.948050 0.295860 0.997660 -0.079894
N16   N     N_R   0.185190 0.638170 0.176290 -0.062661
Ni1   Ni    Ni4+2 0.119330 0.493420 0.109950 0.266349
Ni2   Ni    Ni4+2 0.880670 0.506580 0.890050 0.281518
Ni3   Ni    Ni4+2 0.872590 0.372590 0.000000 0.287957
Ni4   Ni    Ni4+2 0.127410 0.627410 0.000000 0.320321
I1    I     I_    0.681549 0.634667 0.939451 -0.274934
I2    I     I_    0.191044 0.523270 0.350735 -0.230746
I3    I     I_    0.491858 0.473923 0.166879 -0.197889
S1    S     S_3+6 0.486666 0.255903 0.002731 0.040629
O1    O     O_2   0.572940 0.288723 0.091410 -0.234554
O2    O     O_2   0.384444 0.206180 0.007456 -0.226648
O3    O     O_3   0.493767 0.167017 0.918010 -0.472003
H22   H     H_    0.420859 0.113361 0.877601 0.416696
I4    I     I_    0.452781 0.450022 0.692417 -0.133258
S2    S     S_3+6 0.338346 0.236816 0.711149 0.030719
O4    O     O_2   0.315009 0.188400 0.772239 -0.219208
O5    O     O_2   0.238934 0.195707 0.629910 -0.227058
O6    O     O_3   0.423680 0.204470 0.677011 -0.517017
H23   H     H_    0.406111 0.200134 0.615370 0.367096
S3    S     S_3+6 0.256921 0.706633 0.599362 0.023316
O7    O     O_2   0.281432 0.615976 0.564205 -0.251375
O8    O     O_2   0.271041 0.770284 0.547472 -0.276782
O9    O     O_3   0.338631 0.784351 0.709722 -0.423119
H24   H     H_    0.396777 0.765131 0.720090 0.412215
S4    S     S_3+6 0.724854 0.441232 0.434985 0.016969
O10   O     O_2   0.740692 0.398877 0.503577 -0.307169
O11   O     O_2   0.668256 0.506755 0.452826 -0.215634
O12   O     O_3   0.651318 0.338518 0.331035 -0.481475
H25   H     H_    0.585823 0.298816 0.333894 0.394359
S5    S     S_3+6 0.867288 0.656056 0.649801 0.039848
O13   O     O_2   0.933918 0.738369 0.746557 -0.247998
O14   O     O_2   0.835078 0.708881 0.593676 -0.230324
O15   O     O_3   0.760803 0.567129 0.646213 -0.491485
H26   H     H_    0.705724 0.589241 0.629452 0.412796
I5    I     I_    0.679068 0.103955 0.876126 -0.196584
I6    I     I_    0.442427 0.005707 0.693977 -0.010840
I7    I     I_    0.501039 0.781356 0.576863 -0.081147
I8    I     I_    0.516440 0.964264 0.206304 -0.154243
S6    S     S_3+6 0.718804 0.806363 0.796444 0.018971
O16   O     O_2   0.689289 0.693620 0.778277 -0.275775
O17   O     O_2   0.628459 0.828817 0.799172 -0.213025
O18   O     O_3   0.746749 0.825187 0.712435 -0.488047
H27   H     H_    0.698482 0.758273 0.656861 0.403775
S7    S     S_3+6 0.796566 0.988625 0.161284 0.065452
O19   O     O_2   0.812850 0.063380 0.252788 -0.212473
O20   O     O_2   0.730903 0.005228 0.088765 -0.166115
O21   O     O_3   0.733226 0.863914 0.144334 -0.457331
H28   H     H_    0.780278 0.857290 0.193093 0.344842
I9    I     I_    0.933236 0.232375 0.180164 -0.212029
I10   I     I_    0.148092 0.183684 0.260510 -0.241550
S8    S     S_3+6 0.225373 0.722805 0.876693 -0.036698
O22   O     O_2   0.306640 0.703541 0.847966 -0.281782
O23   O     O_2   0.205567 0.803983 0.851078 -0.209527
O24   O     O_3   0.272203 0.769649 0.989664 -0.596335
H29   H     H_    0.330189 0.840495 0.013269 0.399256
S9    S     S_3+6 0.932340 0.174736 0.833987 -0.010386
O25   O     O_2   0.965898 0.276872 0.826959 -0.272703
O26   O     O_2   0.011645 0.135455 0.825177 -0.213831
O27   O     O_3   0.817462 0.085702 0.745780 -0.496428
H30   H     H_    0.789257 0.028068 0.761795 0.362338

loop_
_geom_bond_atom_site_label_1
_geom_bond_atom_site_label_2
_ccdc_geom_bond_type
S6    O18   S    
S5    O13   D    
C57   I9    S    
C9    H4    S    
C3    C23   A    
S8    O22   D    
C18   C26   S    
S7    O21   S    
C58   N14   A    
C45   N12   A    
N16   Ni1   S    
S6    O16   D    
C39   C41   A    
N4    N5    A    
S3    O7    D    
C56   N13   A    
S1    O2    D    
C42   H15   S    
C18   C24   A    
C12   N9    A    
C36   C37   A    
S8    O23   D    
S7    O20   D    
C18   C19   A    
C55   H17   S    
C11   C14   A    
N13   Ni1   S    
C49   C54   A    
C29   C33   A    
C49   C57   S    
O3    H22   S    
C8    N4    A    
S4    O12   S    
C14   C39   S    
C4    C19   S    
C15   C22   S    
C31   C32   A    
C3    C38   S    
C40   H14   S    
N3    N6    A    
N10   Ni3   S    
C43   C48   A    
N12   Ni2   S    
N7    N16   A    
C36   H11   S    
N6    Ni1   S    
C16   C27   S    
C7    N3    A    
C6    C15   A    
C2    C12   A    
C59   C60   A    
N2    Ni2   S    
C21   C22   A    
C4    C56   A    
N1    Ni1   S    
C41   I8    S    
C12   H7    S    
C44   C46   A    
N7    Ni4   S    
C39   C42   A    
C13   H6    S    
N2    N8    A    
S1    O3    S    
C4    C34   A    
C10   N6    A    
N1    N15   A    
N8    Ni3   S    
C51   C52   A    
N3    Ni3   S    
C48   I7    S    
N9    N14   A    
S8    O24   S    
S7    O19   D    
C35   H10   S    
C45   H19   S    
C1    C60   A    
C58   S8    S    
S5    O15   S    
C27   C35   A    
C25   C26   S    
C59   S9    S    
C3    C45   A    
C55   S7    S    
C43   C44   A    
C7    H2    S    
C29   C30   A    
C9    N5    A    
N10   N12   A    
C5    H21   S    
C47   C48   A    
S9    O27   S    
C11   N7    A    
N11   N13   A    
C50   C51   A    
S4    O10   D    
C23   I5    S    
S2    O5    D    
C32   C37   A    
C24   C25   S    
N5    Ni2   S    
C10   I2    S    
C5    C14   A    
N11   Ni4   S    
C37   S4    S    
C25   I4    S    
C9    C17   A    
C40   C41   A    
C29   S3    S    
S9    O26   D    
C55   C57   S    
C22   C24   A    
C42   C43   A    
N9    Ni2   S    
O27   H30   S    
N4    Ni4   S    
C52   C53   A    
S9    O25   D    
O15   H26   S    
S6    O17   D    
C54   C55   S    
C7    C16   A    
S5    O14   D    
C6    N2    A    
S2    O4    D    
C13   N8    A    
C11   H5    S    
C28   C31   A    
C5    N16   A    
C1    H1    S    
C30   H12   S    
O9    H24   S    
C2    C58   A    
C53   C54   A    
C20   I3    S    
C27   C36   A    
S1    O1    D    
C8    C17   A    
C56   H20   S    
S3    O9    S    
C38   C47   A    
C47   I6    S    
C50   C60   S    
C32   C33   A    
C19   C20   A    
C13   C15   A    
C1    N1    A    
C26   H8    S    
C10   C16   A    
C34   H18   S    
C38   C46   A    
N15   Ni3   S    
C28   C30   A    
C33   C35   A    
S3    O8    D    
S2    O6    S    
C23   N10   A    
O6    H23   S    
C6    I1    S    
C34   N11   A    
S4    O11   D    
O18   H27   S    
C25   S2    S    
C8    H3    S    
N14   Ni4   S    
C40   C44   A    
C20   C21   A    
C49   C50   A    
C59   N15   A    
C51   H16   S    
C52   S6    S    
O24   H29   S    
C2    C28   S    
C26   H9    S    
C31   S5    S    
C57   I10   S    
C46   H13   S    
C21   S1    S    
O21   H28   S    
O12   H25   S    
