data_mof_unit_53921.cif
_audit_creation_date              2013-03-05T15:50:11-0500
_audit_creation_method            fapswitch 2.2
_symmetry_space_group_name_H-M    P1
_symmetry_Int_Tables_number       1
_space_group_crystal_system       triclinic
_cell_length_a                    15.148963
_cell_length_b                    15.331401
_cell_length_c                    9.603584
_cell_angle_alpha                 92.572372
_cell_angle_beta                  89.711807
_cell_angle_gamma                 89.845382
_cell_volume                      2228.19340971

loop_
_atom_site_label
_atom_site_type_symbol
_atom_site_description
_atom_site_fract_x
_atom_site_fract_y
_atom_site_fract_z
_atom_type_partial_charge
O1    O     O_R   0.409820 0.909830 0.618810 -0.578513
O2    O     O_R   0.409820 0.090170 0.618810 -0.581618
O3    O     O_R   0.909820 0.409830 0.618810 -0.578540
O4    O     O_R   0.909820 0.590170 0.618810 -0.581563
O5    O     O_R   0.409840 0.909830 0.381240 -0.593159
O6    O     O_R   0.409840 0.090170 0.381240 -0.589452
O7    O     O_R   0.909840 0.409830 0.381240 -0.593076
O8    O     O_R   0.909840 0.590170 0.381240 -0.589428
C1    C     C_R   0.385072 0.877478 0.498015 0.782022
C2    C     C_R   0.381214 0.118375 0.502193 0.788662
C3    C     C_R   0.885069 0.377482 0.498013 0.781982
C4    C     C_R   0.881210 0.618372 0.502195 0.788670
Cu1   Cu    Cu3+1 0.499990 0.000000 0.640660 0.961793
Cu2   Cu    Cu3+1 0.999990 0.500000 0.640660 0.961761
Cu3   Cu    Cu3+1 0.500010 0.000000 0.359340 0.951760
Cu4   Cu    Cu3+1 0.000010 0.500000 0.359340 0.951793
O9    O     O_R   0.590170 0.090170 0.618760 -0.560270
O10   O     O_R   0.590170 0.909830 0.618760 -0.585376
O11   O     O_R   0.090170 0.590170 0.618760 -0.560254
O12   O     O_R   0.090170 0.409830 0.618760 -0.585451
O13   O     O_R   0.590190 0.090180 0.381190 -0.546973
O14   O     O_R   0.590190 0.909820 0.381190 -0.590099
O15   O     O_R   0.090190 0.590180 0.381190 -0.547040
O16   O     O_R   0.090190 0.409820 0.381190 -0.590016
C5    C     C_R   0.612180 0.125182 0.503641 0.848131
C6    C     C_R   0.620557 0.883261 0.498079 0.827061
C7    C     C_R   0.112174 0.625187 0.503637 0.848054
C8    C     C_R   0.120553 0.383257 0.498079 0.826843
H1    H     H_    0.212093 0.097696 0.460390 0.158514
H2    H     H_    0.264850 0.845961 0.300329 0.180203
H3    H     H_    0.712032 0.597670 0.460949 0.158474
H4    H     H_    0.764774 0.346042 0.300415 0.180176
C9    C     C_R   0.430118 0.297121 0.569707 -0.172330
C10   C     C_R   0.377586 0.743408 0.708842 -0.119351
C11   C     C_R   0.930188 0.797155 0.569222 -0.172297
C12   C     C_R   0.877674 0.243340 0.708708 -0.119511
H5    H     H_    0.479640 0.247398 0.581834 0.113343
H6    H     H_    0.444594 0.763850 0.688659 0.164391
H7    H     H_    0.979717 0.747437 0.581338 0.113170
H8    H     H_    0.944668 0.263811 0.688491 0.164158
C13   C     C_R   0.455092 0.383528 0.594336 -0.227292
C14   C     C_R   0.360189 0.703990 0.833795 -0.251545
C15   C     C_R   0.955189 0.883571 0.593639 -0.227249
C16   C     C_R   0.860334 0.203860 0.833625 -0.251391
H9    H     H_    0.522192 0.398926 0.624744 0.159837
H10   H     H_    0.412560 0.695878 0.908443 0.162734
H11   H     H_    0.022320 0.898983 0.623867 0.159840
H12   H     H_    0.912736 0.195724 0.908212 0.162744
C17   C     C_R   0.894945 0.950193 0.574288 -0.111255
C18   C     C_R   0.774127 0.181842 0.867262 -0.121023
C19   C     C_R   0.394869 0.450161 0.574952 -0.111366
C20   C     C_R   0.273964 0.682001 0.867377 -0.120984
H13   H     H_    0.916223 0.017472 0.587114 0.176243
H14   H     H_    0.759200 0.160488 0.970738 0.179138
H15   H     H_    0.416135 0.517436 0.587934 0.176250
H16   H     H_    0.258994 0.660692 0.970864 0.179241
C21   C     C_R   0.808998 0.931197 0.530791 0.366940
C22   C     C_R   0.706253 0.192078 0.771220 0.436635
C23   C     C_R   0.308966 0.431187 0.531217 0.366997
C24   C     C_R   0.206131 0.692197 0.771251 0.436659
C25   C     C_R   0.779428 0.842615 0.517790 -0.047906
C26   C     C_R   0.727246 0.215547 0.632376 -0.036416
C27   C     C_R   0.279407 0.342607 0.518026 -0.047854
C28   C     C_R   0.227184 0.715606 0.632398 -0.036428
C29   C     C_R   0.342618 0.275485 0.532206 0.060535
C30   C     C_R   0.309425 0.755320 0.611405 0.071197
C31   C     C_R   0.842651 0.775501 0.531955 0.060541
C32   C     C_R   0.809474 0.255279 0.611348 0.071150
C33   C     C_R   0.317187 0.187996 0.506979 -0.151639
C34   C     C_R   0.320102 0.807608 0.495470 -0.179821
C35   C     C_R   0.817188 0.687998 0.506989 -0.151595
C36   C     C_R   0.820100 0.307613 0.495461 -0.179800
C37   C     C_R   0.230184 0.165682 0.478470 -0.191025
C38   C     C_R   0.258033 0.804530 0.388283 -0.185488
C39   C     C_R   0.730150 0.665667 0.478792 -0.190994
C40   C     C_R   0.757993 0.304573 0.388329 -0.185404
C41   C     C_R   0.665374 0.729076 0.475848 0.372370
C42   C     C_R   0.684671 0.251103 0.394967 0.402201
C43   C     C_R   0.165402 0.229085 0.475571 0.372311
C44   C     C_R   0.184703 0.751070 0.394909 0.402161
C45   C     C_R   0.689759 0.818142 0.493443 -0.205901
C46   C     C_R   0.671512 0.201232 0.513850 -0.248470
C47   C     C_R   0.189761 0.318144 0.493451 -0.205897
C48   C     C_R   0.171496 0.701245 0.513831 -0.248495
H17   H     H_    0.371338 0.051904 0.132790 0.145492
H18   H     H_    0.871262 0.551723 0.132786 0.145452
C49   C     C_R   0.625939 0.897903 0.111691 0.194728
C50   C     C_R   0.126131 0.398125 0.111760 0.194719
C51   C     C_R   0.710900 0.891885 0.052749 -0.185702
C52   C     C_R   0.211130 0.392289 0.052900 -0.185669
H19   H     H_    0.758393 0.845303 0.089405 0.162184
H20   H     H_    0.258738 0.345835 0.089651 0.162129
C53   C     C_R   0.729578 0.935679 0.931885 -0.257577
C54   C     C_R   0.229706 0.436044 0.931958 -0.257567
H21   H     H_    0.794244 0.930015 0.883726 0.176945
H22   H     H_    0.294390 0.430489 0.883822 0.176938
C55   C     C_R   0.660728 0.976132 0.862937 -0.109262
C56   C     C_R   0.160757 0.476301 0.862918 -0.109299
H23   H     H_    0.675199 0.002671 0.763911 0.222435
H24   H     H_    0.175175 0.502779 0.763833 0.222608
C57   C     C_R   0.576239 0.981747 0.924683 0.216370
C58   C     C_R   0.076264 0.481829 0.924678 0.216288
C59   C     C_R   0.569374 0.964147 0.067651 0.193199
C60   C     C_R   0.069436 0.464252 0.067663 0.193215
N1    N     N_R   0.501200 1.000000 0.147910 -0.196467
N2    N     N_R   0.001200 0.500000 0.147910 -0.196468
C61   C     C_R   0.429442 0.028978 0.076471 -0.050110
C62   C     C_R   0.929399 0.528878 0.076466 -0.050128
H25   H     H_    0.368356 0.042925 0.874795 0.141257
H26   H     H_    0.868297 0.542754 0.874783 0.141228
C63   C     C_R   0.427768 0.024344 0.928070 -0.036141
C64   C     C_R   0.927734 0.524248 0.928064 -0.036089
N3    N     N_R   0.501270 0.000000 0.852040 -0.190858
N4    N     N_R   0.001270 0.500000 0.852040 -0.190856
O17   O     O_3   0.758527 0.000499 0.493262 -0.757245
H27   H     H_    0.737950 0.985880 0.397269 0.331821
O18   O     O_3   0.621232 0.191578 0.823120 -0.707967
H28   H     H_    0.583899 0.226973 0.762602 0.317711
O19   O     O_3   0.258545 0.500511 0.493632 -0.757281
H29   H     H_    0.237985 0.485897 0.397628 0.331755
O20   O     O_3   0.121086 0.691701 0.823055 -0.707935
H30   H     H_    0.083768 0.727044 0.762435 0.317718
O21   O     O_3   0.579669 0.700288 0.455034 -0.743429
H31   H     H_    0.538144 0.749964 0.453151 0.307559
O22   O     O_3   0.625641 0.252365 0.286097 -0.701336
H32   H     H_    0.565945 0.239789 0.322618 0.327279
O23   O     O_3   0.079724 0.200299 0.454449 -0.743351
H33   H     H_    0.038140 0.249968 0.453239 0.307506
O24   O     O_3   0.125715 0.752294 0.285980 -0.701357
H34   H     H_    0.066002 0.739753 0.322465 0.327336
C65   C     C_3   0.584630 0.811629 0.144105 -0.794232
H35   H     H_    0.629392 0.773472 0.209105 0.242009
H36   H     H_    0.519537 0.820170 0.196680 0.254951
H37   H     H_    0.573301 0.773089 0.045068 0.207578
C66   C     C_3   0.084959 0.311735 0.143945 -0.793771
H38   H     H_    0.129792 0.273560 0.208800 0.242087
H39   H     H_    0.019854 0.320115 0.196571 0.254967
H40   H     H_    0.073664 0.273284 0.044811 0.207505

loop_
_geom_bond_atom_site_label_1
_geom_bond_atom_site_label_2
_geom_bond_distance
_ccdc_geom_bond_type
C22   C26   1.431084 A    
C66   H40   1.111294 S    
C43   C47   1.418541 A    
C27   C29   1.415294 A    
C57   N3    1.370617 A    
Cu4   O16   1.959754 S    
O10   C6    1.293172 A    
C44   C48   1.415889 A    
C65   H37   1.111275 S    
C10   C30   1.413932 A    
C60   N2    1.383422 A    
C9    C29   1.411818 A    
O21   H31   0.987350 S    
C21   O17   1.369724 S    
O7    C3    1.300418 A    
N1    C61   1.371873 A    
C18   H14   1.083129 S    
Cu1   O10   1.944863 S    
C58   N4    1.370631 A    
C7    C48   1.474193 S    
C40   C42   1.385176 A    
H25   C63   1.081342 S    
H2    C38   1.084091 S    
C17   H13   1.083420 S    
H1    C37   1.085111 S    
C54   C56   1.397049 A    
O17   H27   0.990954 S    
C17   C21   1.396835 A    
C14   H10   1.082606 S    
C49   C65   1.509146 S    
O2    Cu1   1.959539 S    
C25   C31   1.415303 A    
C28   C48   1.429998 A    
C12   H8    1.082315 S    
O13   C5    1.315334 A    
C20   C24   1.397947 A    
C50   C60   1.407948 A    
O6    Cu3   1.944756 S    
H3    C39   1.085122 S    
Cu3   O14   1.959754 S    
Cu1   N3    2.030197 S    
C10   C14   1.391922 A    
C34   C38   1.396992 A    
C33   C37   1.388088 A    
O15   C7    1.315304 A    
O4    C4    1.294743 A    
C11   C15   1.389054 A    
C19   H15   1.083418 S    
Cu4   N2    2.030476 S    
C26   C46   1.430017 A    
O8    Cu4   1.944756 S    
C38   C44   1.385173 A    
C8    C47   1.444862 S    
O4    Cu2   1.959539 S    
C64   N4    1.370205 A    
C55   H23   1.072910 S    
C52   C54   1.394960 A    
C20   H16   1.083129 S    
C18   C22   1.397947 A    
Cu2   O12   1.944863 S    
C66   H38   1.107509 S    
O1    C1    1.298482 A    
C1    C34   1.456158 S    
C59   N1    1.383382 A    
C3    C36   1.456125 S    
C15   C17   1.387232 A    
O12   C8    1.293163 A    
Cu2   N4    2.030197 S    
C22   O18   1.378883 S    
C9    H5    1.078552 S    
C62   C64   1.424116 A    
C27   C47   1.427831 A    
C32   C36   1.409738 A    
C28   C30   1.405747 A    
C11   H7    1.078549 S    
O5    C1    1.300447 A    
C41   O21   1.384998 S    
C42   C46   1.415882 A    
C52   H20   1.083647 S    
C11   C31   1.411845 A    
O8    C4    1.293523 A    
C5    C46   1.474180 S    
C37   C43   1.380704 A    
C36   C40   1.396993 A    
C63   N3    1.370177 A    
C54   H22   1.082861 S    
C39   C41   1.380717 A    
O20   H30   0.991003 S    
O3    Cu2   1.951436 S    
C49   C59   1.407885 A    
O7    Cu4   1.963329 S    
C4    C35   1.439375 S    
C50   C52   1.404674 A    
C6    C45   1.444861 S    
C56   H24   1.072871 S    
Cu1   Cu3   2.701678 S    
O22   H32   0.990869 S    
Cu2   Cu4   2.701678 S    
C12   C16   1.391912 A    
O1    Cu1   1.951436 S    
C65   H35   1.107528 S    
O2    C2    1.294753 A    
C53   C55   1.396887 A    
O11   C7    1.293137 A    
O24   H34   0.990859 S    
C57   C59   1.414473 A    
C16   C18   1.389870 A    
C66   H39   1.110473 S    
C43   O23   1.384996 S    
C23   O19   1.369737 S    
C44   O24   1.379975 S    
C10   H6    1.082317 S    
C61   C63   1.424119 A    
Cu2   O11   1.963433 S    
H18   C62   1.080468 S    
O16   C8    1.297217 A    
C50   C66   1.509328 S    
C65   H36   1.110325 S    
H4    C40   1.084094 S    
O19   H29   0.990940 S    
C12   C32   1.413929 A    
C21   C25   1.431537 A    
Cu1   O9    1.963433 S    
Cu4   O15   1.951650 S    
C23   C27   1.431540 A    
C58   C60   1.414509 A    
C24   C28   1.431083 A    
C9    C13   1.389060 A    
Cu3   N1    2.030476 S    
C49   C51   1.404570 A    
O9    C5    1.293096 A    
C56   C58   1.408761 A    
O18   H28   0.990991 S    
C35   C39   1.388092 A    
C30   C34   1.409768 A    
N2    C62   1.371888 A    
C29   C33   1.407420 A    
C31   C35   1.407434 A    
C26   C32   1.405747 A    
C51   C53   1.394930 A    
C24   O20   1.378892 S    
C41   C45   1.418545 A    
H26   C64   1.081366 S    
O5    Cu3   1.963329 S    
O3    C3    1.298490 A    
O6    C2    1.293511 A    
C2    C33   1.439368 S    
C16   H12   1.082606 S    
Cu3   O13   1.951650 S    
C19   C23   1.396815 A    
C53   H21   1.082815 S    
C51   H19   1.083493 S    
O14   C6    1.297211 A    
C13   H9    1.082756 S    
C25   C45   1.427849 A    
H17   C61   1.080432 S    
C42   O22   1.379980 S    
C15   H11   1.082782 S    
C13   C19   1.387215 A    
C55   C57   1.408702 A    
O23   H33   0.987496 S    
C14   C20   1.389874 A    
