data_mof_unit_64735.cif
_audit_creation_date              2012-12-10T19:04:18-0500
_audit_creation_method            fapswitch 2.2
_symmetry_space_group_name_H-M    P1
_symmetry_Int_Tables_number       1
_space_group_crystal_system       triclinic
_cell_length_a                    10.653211
_cell_length_b                    13.055524
_cell_length_c                    13.620056
_cell_angle_alpha                 85.705807
_cell_angle_beta                  90.071822
_cell_angle_gamma                 93.072611
_cell_volume                      1886.28093861

loop_
_atom_site_label
_atom_site_type_symbol
_atom_type_description
_atom_site_fract_x
_atom_site_fract_y
_atom_site_fract_z
_atom_type_partial_charge
C1    C     C_R   0.498658 0.481188 0.685170 0.932804
C2    C     C_3   0.121209 0.498252 0.504971 0.004601
C3    C     C_3   0.076100 0.551463 0.405238 -0.178253
C4    C     C_3   0.074401 0.563043 0.588517 0.105776
C5    C     C_1   0.501060 0.533781 0.211639 -0.174158
C6    C     C_2   0.499722 0.544607 0.020413 -0.147929
C7    C     C_2   0.493466 0.455400 0.979552 -0.145872
C8    C     C_1   0.494680 0.457366 0.875788 0.047011
C9    C     C_1   0.500592 0.542635 0.124187 0.013575
C10   C     C_1   0.496452 0.466216 0.788346 -0.119541
C11   C     C_2   0.463818 0.032984 0.473546 -0.234960
C12   C     C_R   0.742600 0.499289 0.501747 0.863965
C13   C     C_2   0.535989 0.967008 0.526575 -0.231871
C14   C     C_1   0.525936 0.854801 0.519381 0.146780
C15   C     C_1   0.473960 0.145195 0.480678 0.164057
C16   C     C_R   0.501149 0.518808 0.314828 0.902663
C17   C     C_R   0.257461 0.499523 0.503322 0.953573
C18   C     C_3   0.919857 0.385685 0.511066 -0.422382
C19   C     C_3   0.062521 0.384666 0.516690 0.147621
C20   C     C_3   0.931333 0.554577 0.406648 -0.453535
C21   C     C_3   0.930304 0.552229 0.593894 -0.427289
C22   C     C_3   0.878569 0.498142 0.503271 0.056144
H1    H     H_    0.886823 0.345763 0.445507 0.167287
H2    H     H_    0.101542 0.645591 0.568754 0.137050
H3    H     H_    0.905057 0.636218 0.401741 0.184600
H4    H     H_    0.115928 0.632499 0.398486 0.171040
H5    H     H_    0.488450 0.382089 0.023249 0.163578
H6    H     H_    0.505024 0.617915 0.976711 0.167182
H7    H     H_    0.605071 0.997226 0.577102 0.170540
H8    H     H_    0.394739 0.002772 0.423014 0.165739
H9    H     H_    0.876085 0.342559 0.577046 0.219041
H10   H     H_    0.094880 0.341050 0.455259 0.140456
H11   H     H_    0.888589 0.519018 0.341823 0.174265
H12   H     H_    0.893144 0.630087 0.596357 0.178421
H13   H     H_    0.899167 0.506547 0.662641 0.214999
N1    N     N_1   0.479840 0.234530 0.484780 -0.085785
N2    N     N_1   0.520150 0.765470 0.515220 -0.092929
O1    O     O_R   0.492620 0.402510 0.634760 -0.592323
O2    O     O_R   0.505570 0.572960 0.644530 -0.599761
O3    O     O_R   0.678730 0.414780 0.495130 -0.629922
O4    O     O_R   0.691680 0.585220 0.504900 -0.626087
O5    O     O_R   0.494430 0.427040 0.355470 -0.608190
O6    O     O_R   0.507380 0.597490 0.365240 -0.610393
O7    O     O_R   0.308320 0.414780 0.495100 -0.590292
O8    O     O_R   0.321270 0.585220 0.504870 -0.625502
Zn1   Zn    Zn3+2 0.491360 0.386190 0.493470 1.005980
Zn2   Zn    Zn3+2 0.508640 0.613810 0.506530 0.985016
Br1   Br    Br    0.112998 0.301996 0.634832 -0.453309
N3    N     N_3   0.120678 0.501034 0.319809 -0.462605
H14   H     H_    0.066741 0.433107 0.310882 0.197552
H15   H     H_    0.107020 0.549652 0.256539 0.205072
Br2   Br    Br    0.149868 0.536669 0.718282 -0.473500

loop_
_geom_bond_atom_site_label_1
_geom_bond_atom_site_label_2
_ccdc_geom_bond_type
C12   O3    A    
C2    C4    S    
N1    Zn1   S    
C6    C7    D    
C21   H13   S    
C16   O5    A    
N2    Zn2   S    
C2    C17   S    
C6    C9    S    
C2    C3    S    
C3    N3    S    
C17   O7    A    
C7    C8    S    
C21   C22   S    
C14   N2    T    
O3    Zn1   S    
C4    C21   S    
C11   C13   D    
C16   O6    A    
C5    C9    T    
C12   O4    A    
C11   C15   S    
C1    O1    A    
C4    Br2   S    
C19   H10   S    
C13   H7    S    
C18   H9    S    
C20   C22   S    
N3    H14   S    
O8    Zn2   S    
O4    Zn2   S    
C4    H2    S    
O1    Zn1   S    
C20   H3    S    
C20   H11   S    
C18   H1    S    
C12   C22   S    
C15   N1    T    
C3    C20   S    
C7    H5    S    
C8    C10   T    
C18   C19   S    
O5    Zn1   S    
C1    O2    A    
C19   Br1   S    
C5    C16   S    
C21   H12   S    
C13   C14   S    
C2    C19   S    
C18   C22   S    
O2    Zn2   S    
O6    Zn2   S    
C3    H4    S    
C6    H6    S    
C1    C10   S    
C17   O8    A    
C11   H8    S    
O7    Zn1   S    
N3    H15   S    
