data_mof_unit_54909.cif
_audit_creation_date              2012-12-11T16:54:48-0500
_audit_creation_method            fapswitch 2.2
_symmetry_space_group_name_H-M    P1
_symmetry_Int_Tables_number       1
_space_group_crystal_system       triclinic
_cell_length_a                    27.482701
_cell_length_b                    7.177919
_cell_length_c                    25.007276
_cell_angle_alpha                 89.740443
_cell_angle_beta                  95.322498
_cell_angle_gamma                 90.273073
_cell_volume                      4911.78316793

loop_
_atom_site_label
_atom_site_type_symbol
_atom_type_description
_atom_site_fract_x
_atom_site_fract_y
_atom_site_fract_z
_atom_type_partial_charge
O1    O     O_R   0.297580 0.601040 0.203260 -0.533285
O2    O     O_R   0.702420 0.398960 0.796740 -0.536016
O3    O     O_R   0.202420 0.101040 0.296740 -0.532823
O4    O     O_R   0.797580 0.898960 0.703260 -0.536557
O5    O     O_R   0.198250 0.269810 0.192660 -0.537288
O6    O     O_R   0.801750 0.730190 0.807340 -0.537959
O7    O     O_R   0.301750 0.769810 0.307340 -0.540671
O8    O     O_R   0.698250 0.230190 0.692660 -0.538940
C1    C     C_R   0.181454 0.440087 0.178818 0.674375
C2    C     C_R   0.818690 0.559929 0.821005 0.684073
C3    C     C_R   0.318543 0.940157 0.321208 0.677999
C4    C     C_R   0.681400 0.059848 0.678881 0.687854
O9    O     O_R   0.296940 0.271230 0.196830 -0.538688
O10   O     O_R   0.703060 0.728770 0.803170 -0.537419
O11   O     O_R   0.203060 0.771230 0.303170 -0.547168
O12   O     O_R   0.796940 0.228770 0.696830 -0.537364
O13   O     O_R   0.301830 0.102400 0.300940 -0.534563
O14   O     O_R   0.698170 0.897600 0.699060 -0.535090
O15   O     O_R   0.198170 0.602400 0.199060 -0.536285
O16   O     O_R   0.801830 0.397600 0.800940 -0.535792
C5    C     C_R   0.311672 0.440353 0.183827 0.694026
C6    C     C_R   0.686598 0.560249 0.814369 0.692104
C7    C     C_R   0.188112 0.938988 0.316434 0.675588
C8    C     C_R   0.813569 0.061659 0.685571 0.686840
O17   O     O_3   0.251490 0.435010 0.284150 -0.375400
O18   O     O_3   0.748510 0.564990 0.715850 -0.374792
O19   O     O_3   0.248510 0.935010 0.215850 -0.370093
O20   O     O_3   0.751490 0.064990 0.784150 -0.373040
V1    V     V_3+5 0.249720 0.159590 0.243660 1.390568
V2    V     V_3+5 0.750280 0.840410 0.756340 1.380805
V3    V     V_3+5 0.250280 0.659590 0.256340 1.376402
V4    V     V_3+5 0.749720 0.340410 0.743660 1.377456
C9    C     C_R   0.859007 0.890956 0.619149 -0.203003
C10   C     C_R   0.120735 0.106213 0.356117 -0.173598
C11   C     C_R   0.648683 0.407854 0.890189 -0.205179
C12   C     C_R   0.392084 0.549397 0.157614 -0.199555
H1    H     H_    0.835489 0.771769 0.623937 0.129965
H2    H     H_    0.125457 0.220443 0.328610 0.131213
H3    H     H_    0.678235 0.307918 0.893007 0.129825
H4    H     H_    0.398048 0.618539 0.196100 0.119451
C13   C     C_R   0.894938 0.876063 0.583340 -0.156590
C14   C     C_R   0.084045 0.121217 0.390846 -0.156629
C15   C     C_R   0.612881 0.392771 0.926324 -0.149984
C16   C     C_R   0.428800 0.557618 0.122458 -0.142676
H5    H     H_    0.898691 0.744795 0.563021 0.109409
H6    H     H_    0.061919 0.245915 0.389883 0.119816
H7    H     H_    0.615333 0.280488 0.955500 0.117359
H8    H     H_    0.461891 0.635341 0.134261 0.116504
C17   C     C_R   0.925849 0.026998 0.574404 0.069776
C18   C     C_R   0.075503 0.975969 0.426066 0.040197
C19   C     C_R   0.573918 0.518885 0.924296 0.060047
C20   C     C_R   0.422651 0.469183 0.072328 0.057234
C21   C     C_R   0.920181 0.192502 0.602827 -0.171376
C22   C     C_R   0.104604 0.816633 0.427189 -0.129039
C23   C     C_R   0.571638 0.660836 0.885355 -0.170428
C24   C     C_R   0.378791 0.372525 0.058098 -0.164878
H9    H     H_    0.943323 0.310868 0.595767 0.101947
H10   H     H_    0.097019 0.707799 0.455277 0.126724
H11   H     H_    0.541669 0.758833 0.883696 0.108007
H12   H     H_    0.373657 0.304339 0.019417 0.106878
C25   C     C_R   0.885399 0.208830 0.640509 0.139293
C26   C     C_R   0.142984 0.799439 0.393542 0.117868
C27   C     C_R   0.607320 0.678697 0.848569 0.141223
C28   C     C_R   0.341461 0.362342 0.093099 0.144211
C29   C     C_R   0.853107 0.055869 0.648167 -0.065131
C30   C     C_R   0.150433 0.946428 0.356092 -0.105518
C31   C     C_R   0.647035 0.550688 0.851325 -0.060121
C32   C     C_R   0.348485 0.450592 0.144017 -0.053646
C33   C     C_R   0.009226 0.108622 0.545934 -0.154904
C34   C     C_R   0.992804 0.893303 0.453163 -0.151805
C35   C     C_R   0.485683 0.525224 0.943850 -0.153234
C36   C     C_R   0.511075 0.456892 0.052938 -0.151105
H13   H     H_    0.017299 0.188963 0.582205 0.110828
H14   H     H_    0.986240 0.808709 0.417438 0.115869
H15   H     H_    0.474956 0.550894 0.901712 0.110876
H16   H     H_    0.521657 0.429301 0.095003 0.110208
C37   C     C_R   0.044848 0.099421 0.509569 -0.152513
C38   C     C_R   0.956690 0.905021 0.489022 -0.154245
C39   C     C_R   0.449315 0.513472 0.979430 -0.151707
C40   C     C_R   0.547468 0.466951 0.017215 -0.151478
H17   H     H_    0.079022 0.174067 0.518126 0.116178
H18   H     H_    0.922556 0.831435 0.479461 0.110166
H19   H     H_    0.411582 0.533436 0.963944 0.110244
H20   H     H_    0.585299 0.450050 0.032739 0.110524
C41   C     C_R   0.036907 0.991471 0.463084 0.082656
C42   C     C_R   0.964366 0.012803 0.536052 0.092661
C43   C     C_R   0.461522 0.479908 0.034474 0.093875
C44   C     C_R   0.535245 0.502457 0.962258 0.092360
C45   C     C_R   0.422233 0.803617 0.426662 -0.135666
C46   C     C_R   0.575275 0.195957 0.576497 -0.135895
C47   C     C_R   0.078675 0.303827 0.072192 -0.138223
C48   C     C_R   0.923168 0.696183 0.925611 -0.135318
H21   H     H_    0.438590 0.677321 0.443884 0.105831
H22   H     H_    0.557357 0.322021 0.561200 0.106043
H23   H     H_    0.062603 0.177639 0.054552 0.106385
H24   H     H_    0.939338 0.822319 0.943181 0.105865
C49   C     C_R   0.382437 0.790371 0.387279 -0.171875
C50   C     C_R   0.615338 0.209391 0.615530 -0.168792
C51   C     C_R   0.118254 0.290511 0.111842 -0.172064
C52   C     C_R   0.882956 0.709515 0.886755 -0.169465
H25   H     H_    0.369122 0.653392 0.375070 0.122205
H26   H     H_    0.627208 0.346225 0.629531 0.121709
H27   H     H_    0.131741 0.153616 0.123781 0.124197
H28   H     H_    0.869174 0.846391 0.875240 0.122271
C53   C     C_R   0.360440 0.952024 0.363867 -0.053794
C54   C     C_R   0.639362 0.047996 0.636426 -0.055375
C55   C     C_R   0.139814 0.451987 0.135862 -0.051543
C56   C     C_R   0.861076 0.548071 0.863061 -0.057280
C57   C     C_R   0.379388 0.126877 0.381328 -0.164840
C58   C     C_R   0.622172 0.873271 0.616829 -0.174519
C59   C     C_R   0.120784 0.626770 0.118595 -0.164797
C60   C     C_R   0.880744 0.373367 0.879478 -0.167624
H29   H     H_    0.363708 0.254884 0.364572 0.126335
H30   H     H_    0.639452 0.745511 0.631648 0.128969
H31   H     H_    0.136194 0.754675 0.135740 0.127171
H32   H     H_    0.865302 0.245523 0.862324 0.125273
C61   C     C_R   0.419069 0.139602 0.420632 -0.140194
C62   C     C_R   0.582174 0.860335 0.577942 -0.137757
C63   C     C_R   0.081324 0.639576 0.079035 -0.139230
C64   C     C_R   0.920846 0.360554 0.918227 -0.136693
H33   H     H_    0.432879 0.275804 0.433099 0.105725
H34   H     H_    0.569720 0.724193 0.563827 0.106774
H35   H     H_    0.067396 0.775719 0.066795 0.105647
H36   H     H_    0.935128 0.224454 0.929967 0.105473
C65   C     C_R   0.440815 0.978334 0.443472 0.131749
C66   C     C_R   0.558427 0.021308 0.557570 0.131183
C67   C     C_R   0.059903 0.478460 0.055701 0.132098
C68   C     C_R   0.942337 0.521589 0.941536 0.131309
C69   C     C_1   0.482229 0.993015 0.483810 -0.060602
C70   C     C_1   0.516886 0.006430 0.517402 -0.060780
C71   C     C_1   0.018547 0.493228 0.015286 -0.060338
C72   C     C_1   0.983898 0.506745 0.981687 -0.060831
C73   C     C_3   0.886214 0.388800 0.672465 -0.358455
C74   C     C_3   0.905753 0.357788 0.731034 -0.706081
H37   H     H_    0.882753 0.257410 0.751348 0.217758
H38   H     H_    0.943681 0.303616 0.733186 0.216638
H39   H     H_    0.906172 0.492216 0.752872 0.205867
H40   H     H_    0.910512 0.493798 0.655586 0.167608
H41   H     H_    0.849906 0.456120 0.669332 0.195842
C75   C     C_3   0.176095 0.628587 0.398044 -0.317503
C76   C     C_3   0.172289 0.503353 0.447230 -0.800673
H42   H     H_    0.178529 0.585601 0.484780 0.230357
H43   H     H_    0.136096 0.433234 0.445296 0.226777
H44   H     H_    0.200602 0.393224 0.447993 0.227907
H45   H     H_    0.168038 0.541031 0.361761 0.195099
H46   H     H_    0.214740 0.676479 0.399875 0.182698
C77   C     C_3   0.600246 0.831216 0.806300 -0.363800
C78   C     C_3   0.586502 0.751367 0.750388 -0.737700
H47   H     H_    0.616747 0.667981 0.736527 0.216278
H48   H     H_    0.553400 0.662080 0.750623 0.222151
H49   H     H_    0.578405 0.867292 0.721451 0.218749
H50   H     H_    0.570291 0.926210 0.815438 0.171548
H51   H     H_    0.633086 0.921394 0.806455 0.197492
C79   C     C_3   0.294248 0.263293 0.073893 -0.381488
C80   C     C_3   0.253061 0.401880 0.059508 -0.740387
H52   H     H_    0.246201 0.488544 0.094597 0.211076
H53   H     H_    0.262638 0.494601 0.026342 0.225705
H54   H     H_    0.218938 0.325166 0.046152 0.219875
H55   H     H_    0.299033 0.179429 0.037487 0.174816
H56   H     H_    0.283511 0.162747 0.104484 0.199227

loop_
_geom_bond_atom_site_label_1
_geom_bond_atom_site_label_2
_ccdc_geom_bond_type
O17   V3    S    
C51   H27   S    
O1    C5    A    
C23   H11   S    
C34   C38   A    
O13   V1    S    
C33   C37   A    
C77   C78   S    
C10   C14   A    
C78   H49   S    
C48   H24   S    
C36   H16   S    
O15   V3    S    
C10   C30   A    
C74   H39   S    
C39   C43   A    
C57   C61   A    
C45   C65   A    
O7    C3    A    
C18   C22   A    
C47   C67   A    
C28   C32   A    
C7    C30   S    
O2    V4    S    
C78   H48   S    
C76   H43   S    
C14   H6    S    
C64   C68   A    
O4    C8    A    
O19   V1    S    
C66   C70   S    
C28   C79   S    
O1    V3    S    
C59   C63   A    
C79   H56   S    
C62   H34   S    
C13   C17   A    
C26   C75   S    
O3    V1    S    
C61   H33   S    
C34   H14   S    
C18   C41   S    
C20   C24   A    
C21   C25   A    
C1    O15   A    
C52   H28   S    
C2    O16   A    
C39   H19   S    
C23   C27   A    
O2    C6    A    
C24   C28   A    
C33   H13   S    
O14   V2    S    
C37   H17   S    
C11   C15   A    
C58   H30   S    
C57   H29   S    
C49   C53   A    
C38   C42   A    
O11   C7    A    
C37   C41   A    
C73   H40   S    
O12   C8    A    
C40   C44   A    
C80   H54   S    
C58   C62   A    
O10   V2    S    
C48   C68   A    
C27   C77   S    
C46   H22   S    
O5    V1    S    
C27   C31   A    
C52   C56   A    
O7    V3    S    
C2    C56   S    
C26   C30   A    
C25   C73   S    
C40   H20   S    
O8    V4    S    
C12   H4    S    
C78   H47   S    
C76   H44   S    
C75   H46   S    
C60   C64   A    
C21   H9    S    
O18   V4    S    
C74   H38   S    
C22   C26   A    
C65   C69   S    
O3    C7    A    
C50   H26   S    
C9    H1    S    
C35   C39   A    
C9    C29   A    
C45   C49   A    
C75   H45   S    
C11   H3    S    
O5    C1    A    
C25   C29   A    
C38   H18   S    
C11   C31   A    
O8    C4    A    
C49   H25   S    
C22   H10   S    
C46   C66   A    
O9    C5    A    
C3    C53   S    
C75   C76   S    
C80   H53   S    
C79   C80   S    
C8    C29   S    
C14   C18   A    
C68   C72   S    
O6    V2    S    
C73   H41   S    
C5    C32   S    
C73   C74   S    
C12   C16   A    
O12   V4    S    
C71   C72   T    
C60   H32   S    
C36   C43   A    
C48   C52   A    
C69   C70   T    
O16   V4    S    
O9    V1    S    
C53   C57   A    
C3    O13   A    
C10   H2    S    
C55   C59   A    
C17   C42   S    
C20   C43   S    
C19   C44   S    
O6    C2    A    
C12   C32   A    
O11   V3    S    
C74   H37   S    
C16   C20   A    
C63   H35   S    
C4    C54   S    
C51   C55   A    
C50   C54   A    
C9    C13   A    
O10   C6    A    
O20   V2    S    
C77   H50   S    
C79   H55   S    
C36   C40   A    
C76   H42   S    
C35   H15   S    
C15   C19   A    
C15   H7    S    
C17   C21   A    
C19   C23   A    
C45   H21   S    
C77   H51   S    
C67   C71   S    
C6    C31   S    
C64   H36   S    
C47   H23   S    
C35   C44   A    
C56   C60   A    
C24   H12   S    
C54   C58   A    
C4    O14   A    
C80   H52   S    
C13   H5    S    
C1    C55   S    
C59   H31   S    
C62   C66   A    
C47   C51   A    
C34   C41   A    
C61   C65   A    
C46   C50   A    
O4    V2    S    
C33   C42   A    
C16   H8    S    
C63   C67   A    
