data_mof_unit_47383.cif
_audit_creation_date              2012-12-11T15:37:39-0500
_audit_creation_method            fapswitch 2.2
_symmetry_space_group_name_H-M    P1
_symmetry_Int_Tables_number       1
_space_group_crystal_system       triclinic
_cell_length_a                    17.470967
_cell_length_b                    24.318487
_cell_length_c                    14.882017
_cell_angle_alpha                 90.288471
_cell_angle_beta                  125.701415
_cell_angle_gamma                 89.554518
_cell_volume                      5134.46355995

loop_
_atom_site_label
_atom_site_type_symbol
_atom_type_description
_atom_site_fract_x
_atom_site_fract_y
_atom_site_fract_z
_atom_type_partial_charge
C1    C     C_R   0.851974 0.653142 0.909749 -0.076605
C2    C     C_3   0.577520 0.502098 0.620752 0.064956
C3    C     C_3   0.031797 0.998368 0.442835 0.588237
C4    C     C_3   0.750962 0.389682 0.639184 0.295931
C5    C     C_3   0.701512 0.342915 0.556713 -0.927855
C6    C     C_3   0.227624 0.610939 0.364865 0.283134
C7    C     C_3   0.264176 0.662280 0.436640 -0.925884
C8    C     C_3   0.214314 0.387578 0.351509 0.302013
C9    C     C_3   0.248602 0.339111 0.430512 -0.912392
C10   C     C_3   0.736467 0.612132 0.636360 0.269082
C11   C     C_3   0.687663 0.663969 0.569520 -0.933073
C12   C     C_3   0.276168 0.876927 0.644883 0.274808
C13   C     C_3   0.907932 0.000889 0.438408 0.095133
C14   C     C_3   0.242406 0.818760 0.603031 -0.920592
C15   C     C_3   0.769488 0.110623 0.419765 0.293202
C16   C     C_3   0.765637 0.172357 0.433687 -0.966360
C17   C     C_3   0.703633 0.882143 0.346775 0.297761
C18   C     C_3   0.735213 0.828903 0.412630 -0.918332
C19   C     C_3   0.211192 0.107359 0.565209 0.306928
C20   C     C_3   0.238465 0.165300 0.556589 -0.981489
C21   C     C_3   0.395687 0.510536 0.678661 0.247961
C22   C     C_3   0.315124 0.511856 0.690858 -0.876955
C23   C     C_3   0.580384 0.492702 0.370211 0.215594
C24   C     C_3   0.089559 0.001892 0.567586 0.085875
C25   C     C_3   0.655762 0.489118 0.349668 -0.873614
C26   C     C_3   0.992819 0.010745 0.733869 0.251825
C27   C     C_3   0.946219 0.011282 0.793956 -0.871934
C28   C     C_3   0.006765 0.991683 0.273320 0.248937
C29   C     C_3   0.055138 0.988295 0.215382 -0.860619
C30   C     C_R   0.670640 0.303762 0.900368 -0.183903
C31   C     C_R   0.212000 0.765488 0.098856 -0.165899
C32   C     C_R   0.341079 0.314451 0.097262 -0.176480
C33   C     C_R   0.790508 0.768056 0.900699 -0.162102
C34   C     C_R   0.165425 0.807705 0.899200 -0.177455
C35   C     C_R   0.712677 0.264427 0.099789 -0.170037
C36   C     C_R   0.841840 0.814628 0.099673 -0.173334
C37   C     C_R   0.189243 0.373312 0.090994 -0.163596
C38   C     C_R   0.288271 0.267152 0.898222 -0.170848
C39   C     C_R   0.113550 0.764964 0.898384 -0.160830
C40   C     C_R   0.770449 0.303152 0.100925 -0.166786
C41   C     C_R   0.890118 0.768794 0.101004 -0.159713
C42   C     C_R   0.238731 0.312083 0.897110 -0.164876
C43   C     C_R   0.613738 0.264438 0.899285 -0.163911
C44   C     C_R   0.264540 0.807860 0.099654 -0.164054
C45   C     C_R   0.389862 0.268953 0.098522 -0.162426
C46   C     C_R   0.741477 0.813338 0.899492 -0.162220
C47   C     C_R   0.143475 0.739840 0.998243 0.139488
C48   C     C_R   0.149479 0.652240 0.091048 -0.110490
C49   C     C_R   0.755172 0.318267 0.001173 0.146798
C50   C     C_R   0.858313 0.742062 0.001548 0.137046
C51   C     C_R   0.258371 0.331840 0.996910 0.140700
C52   C     C_R   0.641598 0.240081 0.998963 0.145799
C53   C     C_R   0.247726 0.824728 0.999934 0.142107
C54   C     C_R   0.357237 0.241779 0.999231 0.144238
C55   C     C_R   0.760256 0.832864 0.999001 0.136851
C56   C     C_R   0.891760 0.452079 0.462570 -0.184515
C57   C     C_R   0.901262 0.551997 0.378372 -0.163817
C58   C     C_R   0.896175 0.452469 0.372966 -0.160079
C59   C     C_R   0.820351 0.363538 0.908744 -0.165680
C60   C     C_R   0.895695 0.551697 0.467041 -0.189771
C61   C     C_R   0.388551 0.952786 0.460658 -0.156835
C62   C     C_R   0.401890 0.052567 0.379192 -0.171799
C63   C     C_R   0.394917 0.953093 0.372371 -0.170948
C64   C     C_R   0.394867 0.052307 0.466820 -0.173177
C65   C     C_R   0.913198 0.502157 0.340426 0.141007
C66   C     C_R   0.902120 0.501553 0.517166 0.145445
C67   C     C_R   0.413736 0.002655 0.341296 0.140290
C68   C     C_R   0.400219 0.002137 0.516230 0.146671
C69   C     C_R   0.914551 0.364192 0.093332 -0.122200
C70   C     C_R   0.350558 0.152547 0.908253 -0.093916
C71   C     C_R   0.055883 0.650726 0.906282 -0.122830
C72   C     C_R   0.095330 0.375544 0.905468 -0.111062
C73   C     C_R   0.944902 0.651659 0.093414 -0.142967
C74   C     C_R   0.410242 0.867311 0.092397 -0.117123
C75   C     C_R   0.554552 0.151123 0.906512 -0.114124
C76   C     C_R   0.596190 0.875891 0.906150 -0.111962
C77   C     C_R   0.444672 0.151843 0.092516 -0.134313
C78   C     C_R   0.984583 0.547279 0.252716 -0.156741
C79   C     C_R   0.950407 0.454496 0.694677 -0.176093
C80   C     C_R   0.952171 0.546513 0.696686 -0.145791
C81   C     C_R   0.690522 0.875097 0.091771 -0.155830
C82   C     C_R   0.991486 0.455055 0.261786 -0.159296
C83   C     C_R   0.485101 0.047438 0.253218 -0.143206
C84   C     C_R   0.452214 0.954763 0.695187 -0.179634
C85   C     C_R   0.451633 0.046719 0.696603 -0.131410
C86   C     C_R   0.492610 0.955284 0.263271 -0.170134
C87   C     C_R   0.729525 0.455265 0.735356 0.452809
C88   C     C_R   0.266356 0.545945 0.286343 0.450409
C89   C     C_R   0.266164 0.455002 0.291388 0.415915
C90   C     C_R   0.730857 0.546275 0.741688 0.466556
C91   C     C_R   0.241069 0.956325 0.695924 0.423870
C92   C     C_R   0.647535 0.152643 0.091264 -0.090698
C93   C     C_R   0.757211 0.045770 0.301043 0.429069
C94   C     C_R   0.757808 0.955814 0.304599 0.403892
C95   C     C_R   0.241643 0.046356 0.700235 0.436536
C96   C     C_R   0.883178 0.684337 0.002290 0.022074
C97   C     C_R   0.185278 0.361296 0.997306 0.037630
C98   C     C_R   0.117693 0.683071 0.997981 0.025456
C99   C     C_R   0.827720 0.347108 0.001668 0.044048
C100  C     C_R   0.382286 0.184130 0.000612 0.006622
C101  C     C_R   0.686747 0.862563 0.998431 0.035383
C102  C     C_R   0.614874 0.183687 0.998351 0.003282
C103  C     C_R   0.313074 0.870902 0.907845 -0.157271
C104  C     C_R   0.320139 0.854316 0.000675 0.038193
C105  C     C_R   0.958577 0.501564 0.284006 0.076075
C106  C     C_R   0.934929 0.500793 0.632107 0.073525
C107  C     C_R   0.459628 0.001848 0.285352 0.071611
C108  C     C_R   0.434838 0.001150 0.631966 0.047393
C109  C     C_R   0.674220 0.501135 0.711381 -0.162562
C110  C     C_R   0.321317 0.500528 0.336392 -0.164139
C111  C     C_R   0.189795 0.001857 0.639207 -0.181960
C112  C     C_R   0.807853 0.001113 0.363606 -0.169161
C113  C     C_3   0.504533 0.457337 0.591632 -0.273220
C114  C     C_3   0.410874 0.501157 0.438780 0.076407
C115  C     C_3   0.483504 0.545858 0.468131 -0.297239
C116  C     C_3   0.482286 0.454223 0.474658 -0.244339
C117  C     C_3   0.505695 0.549125 0.585208 -0.286751
C118  C     C_3   0.028944 0.957390 0.571466 -0.251982
C119  C     C_3   0.968750 0.045277 0.434674 -0.364593
C120  C     C_3   0.970555 0.953911 0.444040 -0.267598
C121  C     C_3   0.027084 0.048756 0.562217 -0.374731
C122  C     C_3   0.432087 0.504247 0.553357 0.594961
C123  C     C_3   0.554441 0.498936 0.504802 0.605543
C124  C     C_3   0.965734 0.004179 0.563306 0.594224
H1    H     H_    0.816372 0.668481 0.827004 0.126289
H2    H     H_    0.009657 0.663930 0.821130 0.083001
H3    H     H_    0.343686 0.515232 0.779699 0.211316
H4    H     H_    0.268480 0.547783 0.645720 0.252999
H5    H     H_    0.536690 0.529998 0.327345 0.099302
H6    H     H_    0.535723 0.455366 0.334028 0.096546
H7    H     H_    0.699947 0.451885 0.390541 0.253836
H8    H     H_    0.622344 0.486496 0.259437 0.215940
H9    H     H_    0.700689 0.526294 0.383241 0.255708
H10   H     H_    0.032872 0.049674 0.753752 0.094434
H11   H     H_    0.042494 0.975145 0.765064 0.093036
H12   H     H_    0.906468 0.972592 0.776864 0.258574
H13   H     H_    0.067323 0.370531 0.819453 0.092907
H14   H     H_    0.000792 0.014858 0.884521 0.210378
H15   H     H_    0.896934 0.046799 0.765747 0.251690
H16   H     H_    0.960147 0.028679 0.242001 0.092285
H17   H     H_    0.963313 0.954073 0.251952 0.091280
H18   H     H_    0.101460 0.951343 0.244000 0.258132
H19   H     H_    0.001410 0.985415 0.124511 0.208864
H20   H     H_    0.098452 0.025569 0.234082 0.253366
H21   H     H_    0.992216 0.665506 0.177985 0.082928
H22   H     H_    0.443386 0.852389 0.175196 0.080307
H23   H     H_    0.508431 0.164253 0.821292 0.087009
H24   H     H_    0.568425 0.870328 0.820348 0.093031
H25   H     H_    0.492159 0.166009 0.176858 0.088786
H26   H     H_    0.973318 0.590013 0.261379 0.096550
H27   H     H_    0.932581 0.412597 0.665685 0.075666
H28   H     H_    0.936787 0.588967 0.670904 0.076937
H29   H     H_    0.246568 0.365260 0.175331 0.154484
H30   H     H_    0.994258 0.414025 0.289624 0.084123
H31   H     H_    0.473644 0.090213 0.261387 0.096969
H32   H     H_    0.438868 0.912671 0.667297 0.072209
H33   H     H_    0.434962 0.089125 0.670720 0.091685
H34   H     H_    0.496294 0.914403 0.292399 0.085607
H35   H     H_    0.515867 0.422314 0.645802 0.158659
H36   H     H_    0.472954 0.581003 0.414595 0.172140
H37   H     H_    0.471102 0.416267 0.426725 0.165989
H38   H     H_    0.517471 0.586869 0.633877 0.174194
H39   H     H_    0.054129 0.922094 0.629364 0.170300
H40   H     H_    0.188319 0.666585 0.175174 0.136095
H41   H     H_    0.943218 0.080661 0.376944 0.184124
H42   H     H_    0.946782 0.915540 0.394280 0.169612
H43   H     H_    0.051646 0.087073 0.612142 0.182219
H44   H     H_    0.651504 0.318885 0.821591 0.128668
H45   H     H_    0.232370 0.749877 0.177806 0.110416
H46   H     H_    0.363175 0.331847 0.175875 0.114237
H47   H     H_    0.767844 0.750943 0.821767 0.108841
H48   H     H_    0.145206 0.823135 0.820211 0.117952
H49   H     H_    0.731337 0.249714 0.178601 0.113337
H50   H     H_    0.863261 0.831578 0.178339 0.111600
H51   H     H_    0.769452 0.350073 0.825770 0.160163
H52   H     H_    0.265080 0.249657 0.819356 0.113569
H53   H     H_    0.056751 0.748530 0.819287 0.109869
H54   H     H_    0.830510 0.317578 0.179999 0.104956
H55   H     H_    0.945979 0.751814 0.180224 0.109073
H56   H     H_    0.179435 0.327106 0.817970 0.109169
H57   H     H_    0.554826 0.249319 0.820129 0.110595
H58   H     H_    0.322884 0.823616 0.178592 0.104748
H59   H     H_    0.446782 0.252524 0.177734 0.108728
H60   H     H_    0.683111 0.828924 0.820286 0.110019
H61   H     H_    0.889145 0.412731 0.494025 0.107170
H62   H     H_    0.313252 0.166705 0.824128 0.156191
H63   H     H_    0.906389 0.591298 0.348783 0.109623
H64   H     H_    0.896122 0.413444 0.337805 0.105351
H65   H     H_    0.896318 0.590868 0.501947 0.109936
H66   H     H_    0.384522 0.913501 0.491230 0.103919
H67   H     H_    0.408334 0.091839 0.350637 0.110409
H68   H     H_    0.394785 0.914091 0.337055 0.106711
H69   H     H_    0.396220 0.091465 0.502271 0.110628
H70   H     H_    0.821032 0.374676 0.710309 0.079175
H71   H     H_    0.760557 0.423696 0.596864 0.141483
H72   H     H_    0.631712 0.357104 0.483986 0.263870
H73   H     H_    0.748962 0.869429 0.176660 0.153615
H74   H     H_    0.744782 0.329000 0.528261 0.209276
H75   H     H_    0.691389 0.307816 0.596188 0.255232
H76   H     H_    0.226449 0.577068 0.414268 0.140627
H77   H     H_    0.154583 0.619281 0.291554 0.079871
H78   H     H_    0.265048 0.697244 0.389540 0.249041
H79   H     H_    0.217766 0.673059 0.462463 0.213165
H80   H     H_    0.336764 0.654793 0.511639 0.267581
H81   H     H_    0.152477 0.373950 0.269256 0.092862
H82   H     H_    0.193211 0.421073 0.384518 0.116849
H83   H     H_    0.310271 0.351471 0.514034 0.265729
H84   H     H_    0.684946 0.166938 0.175365 0.152724
H85   H     H_    0.191392 0.325188 0.436617 0.206667
H86   H     H_    0.269426 0.304508 0.399851 0.255804
H87   H     H_    0.724384 0.579014 0.577649 0.148408
H88   H     H_    0.813413 0.620018 0.693220 0.072859
H89   H     H_    0.699855 0.698491 0.625533 0.249954
H90   H     H_    0.716116 0.675269 0.522113 0.214135
H91   H     H_    0.610666 0.656815 0.510627 0.266616
H92   H     H_    0.347657 0.874045 0.724106 0.095690
H93   H     H_    0.278205 0.899204 0.581115 0.110593
H94   H     H_    0.171036 0.819905 0.523474 0.264750
H95   H     H_    0.255402 0.864328 0.823660 0.166958
H96   H     H_    0.291708 0.797799 0.589662 0.213390
H97   H     H_    0.239566 0.795092 0.664666 0.253754
H98   H     H_    0.833072 0.093996 0.497420 0.151183
H99   H     H_    0.704976 0.092225 0.405724 0.089116
H100  H     H_    0.701574 0.190150 0.358037 0.247782
H101  H     H_    0.763259 0.180852 0.505414 0.224609
H102  H     H_    0.829098 0.192153 0.448326 0.264409
H103  H     H_    0.641864 0.872725 0.261476 0.098810
H104  H     H_    0.683195 0.911613 0.387096 0.100445
H105  H     H_    0.796835 0.836679 0.499072 0.265982
H106  H     H_    0.948861 0.350114 0.176904 0.079883
H107  H     H_    0.676849 0.812101 0.413763 0.208681
H108  H     H_    0.755180 0.798148 0.374143 0.255311
H109  H     H_    0.135327 0.101669 0.498097 0.139501
H110  H     H_    0.253452 0.077965 0.552499 0.098604
H111  H     H_    0.314351 0.172219 0.622809 0.249310
H112  H     H_    0.225697 0.170975 0.474842 0.226902
H113  H     H_    0.195774 0.195927 0.565463 0.264782
H114  H     H_    0.436791 0.549114 0.714781 0.092457
H115  H     H_    0.441523 0.474472 0.725544 0.092554
H116  H     H_    0.273203 0.473546 0.656541 0.255648
N1    N     N_R   0.892620 0.603790 0.941800 -0.046512
N2    N     N_R   0.047790 0.602400 0.942090 -0.039378
N3    N     N_R   0.047790 0.397600 0.942090 -0.039801
N4    N     N_R   0.952210 0.602400 0.057910 -0.039740
N5    N     N_R   0.452210 0.897600 0.057910 -0.041856
N6    N     N_R   0.547790 0.102400 0.942090 -0.040979
N7    N     N_R   0.547790 0.897600 0.942090 -0.043241
N8    N     N_R   0.452210 0.102400 0.057910 -0.038927
N9    N     N_R   0.026300 0.529110 0.206760 -0.052388
N10   N     N_R   0.973700 0.470890 0.793240 -0.039517
N11   N     N_R   0.973700 0.529110 0.793240 -0.038523
N12   N     N_R   0.107380 0.396210 0.058200 -0.044351
N13   N     N_R   0.026300 0.470890 0.206760 -0.053870
N14   N     N_R   0.526300 0.029110 0.206760 -0.047116
N15   N     N_R   0.473700 0.970890 0.793240 -0.046820
N16   N     N_R   0.473700 0.029110 0.793240 -0.038640
N17   N     N_R   0.526300 0.970890 0.206760 -0.058101
N18   N     N_R   0.818530 0.472270 0.792960 -0.141379
N19   N     N_R   0.181470 0.527730 0.207040 -0.134513
N20   N     N_R   0.181470 0.472270 0.207040 -0.137191
N21   N     N_R   0.818530 0.527730 0.792960 -0.138590
N22   N     N_R   0.318530 0.972270 0.792960 -0.131454
N23   N     N_R   0.107380 0.603790 0.058200 -0.042654
N24   N     N_R   0.681470 0.027730 0.207040 -0.112778
N25   N     N_R   0.681470 0.972270 0.207040 -0.135225
N26   N     N_R   0.318530 0.027730 0.792960 -0.110467
N27   N     N_R   0.892620 0.396210 0.941800 -0.046334
N28   N     N_R   0.392620 0.103790 0.941800 -0.036248
N29   N     N_R   0.607380 0.896210 0.058200 -0.044395
N30   N     N_R   0.607380 0.103790 0.058200 -0.037182
N31   N     N_R   0.392620 0.896210 0.941800 -0.041068
N32   N     N_R   0.952210 0.397600 0.057910 -0.038801
Ni1   Ni    Ni4+2 0.934150 0.565840 0.869060 0.193188
Ni2   Ni    Ni4+2 0.065850 0.434160 0.130940 0.193590
Ni3   Ni    Ni4+2 0.065850 0.565840 0.130940 0.193101
Ni4   Ni    Ni4+2 0.934150 0.434160 0.869060 0.191341
Ni5   Ni    Ni4+2 0.434150 0.065840 0.869060 0.225286
Ni6   Ni    Ni4+2 0.565850 0.934160 0.130940 0.195176
Ni7   Ni    Ni4+2 0.565850 0.065840 0.130940 0.217798
Ni8   Ni    Ni4+2 0.434150 0.934160 0.869060 0.198249
O1    O     O_3   0.695237 0.406836 0.674756 -0.639373
O2    O     O_3   0.624142 0.495798 0.485145 -0.655144
O3    O     O_3   0.922641 0.006300 0.619112 -0.644388
O4    O     O_3   0.076005 0.995348 0.388376 -0.642685
O5    O     O_3   0.286828 0.598127 0.331817 -0.635944
O6    O     O_3   0.287720 0.404623 0.344630 -0.641866
O7    O     O_3   0.699721 0.598236 0.696446 -0.633891
O8    O     O_3   0.212687 0.902930 0.660525 -0.645764
O9    O     O_3   0.774605 0.100643 0.329924 -0.649137
O10   O     O_3   0.778369 0.902763 0.345961 -0.640426
O11   O     O_3   0.227331 0.101122 0.669409 -0.655791
O12   O     O_3   0.357973 0.506380 0.565544 -0.640455

loop_
_geom_bond_atom_site_label_1
_geom_bond_atom_site_label_2
_ccdc_geom_bond_type
C51   C97   S    
C4    H71   S    
C2    C109  S    
N9    N13   A    
C116  C123  S    
C74   H22   S    
N15   Ni8   S    
C59   C99   A    
C32   C45   A    
C94   O10   S    
C14   H97   S    
C86   C107  A    
C28   H16   S    
C91   N22   A    
C37   C97   A    
C114  C115  S    
C36   C41   A    
C120  H42   S    
C95   O11   S    
C5    H75   S    
C81   C101  A    
C2    C123  S    
C36   H50   S    
C89   N20   A    
N19   N20   A    
C16   H102  S    
C26   C27   S    
C47   C98   S    
C62   C67   A    
C78   C105  A    
C92   H84   S    
C27   H12   S    
C64   C68   A    
C74   C104  A    
C28   C29   S    
N5    N31   A    
C79   H27   S    
C1    H1    S    
C1    N1    A    
C38   C42   A    
C13   C112  S    
C59   H51   S    
N13   Ni2   S    
C81   H73   S    
N7    N29   A    
C17   H104  S    
N25   Ni6   S    
C124  O3    S    
N21   Ni1   S    
C17   O10   S    
C29   H18   S    
C53   C104  S    
N1    Ni1   S    
C40   C49   A    
C29   H19   S    
C80   C106  A    
N24   Ni7   S    
C23   H5    S    
C77   C100  A    
C28   O4    S    
N27   N32   A    
C82   C105  A    
C91   C111  A    
N7    Ni8   S    
C61   C63   A    
C90   N21   A    
C3    O4    S    
C17   H103  S    
C121  C124  S    
C62   C64   A    
C26   H11   S    
C33   C50   A    
C88   N19   A    
C13   C119  S    
C38   H52   S    
C44   C53   A    
C113  C122  S    
C19   C20   S    
C42   H56   S    
C8    C9    S    
C20   H112  S    
C80   N11   A    
C46   C55   A    
N8    N28   A    
N4    Ni3   S    
C7    H79   S    
N2    N23   A    
N9    Ni3   S    
C71   H2    S    
N19   Ni3   S    
N5    Ni6   S    
N10   Ni4   S    
C56   C58   A    
C94   C112  A    
C85   C108  A    
C25   H9    S    
C110  C114  S    
C88   C110  A    
C18   H108  S    
C92   C102  A    
C42   C51   A    
C93   N24   A    
N20   Ni2   S    
C21   H114  S    
C60   C66   A    
N17   Ni6   S    
C79   C106  A    
C19   O11   S    
C21   C22   S    
C33   C46   A    
C72   N3    A    
C54   C100  S    
C91   O8    S    
C24   C111  S    
C85   H33   S    
C66   C106  S    
C19   H109  S    
C87   N18   A    
C65   C105  S    
C39   H53   S    
C2    C117  S    
C70   C100  A    
C4    O1    S    
C6    C7    S    
C22   H116  S    
C72   C97   A    
C119  C121  S    
N26   Ni5   S    
C121  H43   S    
C71   C98   A    
C63   C67   A    
N27   Ni4   S    
C93   C112  A    
C27   H14   S    
C115  C123  S    
C31   C44   A    
C83   N14   A    
N18   Ni4   S    
C34   C39   A    
C35   H49   S    
C37   H29   S    
C116  H37   S    
C2    C113  S    
C6    O5    S    
C122  O12   S    
N2    Ni1   S    
C6    H77   S    
C9    H83   S    
C9    H85   S    
C74   N5    A    
C60   H65   S    
C95   N26   A    
C63   H68   S    
C31   H45   S    
N14   N17   A    
C115  C117  S    
N10   N11   A    
C29   H20   S    
C46   H60   S    
N28   Ni5   S    
C43   H57   S    
C27   H15   S    
C23   H6    S    
C73   H21   S    
C103  N31   A    
N30   Ni7   S    
N6    Ni5   S    
C4    H70   S    
C117  C122  S    
C87   O1    S    
C32   C51   A    
C7    H80   S    
C26   H10   S    
C49   C99   S    
C92   N30   A    
N14   Ni7   S    
N16   Ni5   S    
C58   C65   A    
C22   H4    S    
C38   C54   A    
C9    H86   S    
C20   H111  S    
C52   C102  S    
C64   H69   S    
C84   N15   A    
C81   N29   A    
C17   C18   S    
C77   N8    A    
N18   N21   A    
C82   N13   A    
C21   O12   S    
C118  C124  S    
C58   H64   S    
C113  H35   S    
C8    H82   S    
C86   H34   S    
C78   H26   S    
C26   O3    S    
C62   H67   S    
C75   N6    A    
C3    C119  S    
C11   H89   S    
C5    H72   S    
C87   C109  A    
N6    N30   A    
C69   C99   A    
C67   C107  S    
C10   H88   S    
N31   Ni8   S    
C21   H115  S    
C30   C49   A    
C12   C14   S    
C45   C54   A    
C20   H113  S    
N23   Ni3   S    
C10   C11   S    
C61   H66   S    
C79   N10   A    
C40   H54   S    
C30   C43   A    
C16   H100  S    
C76   N7    A    
C12   H92   S    
C77   H25   S    
N15   N16   A    
C25   H7    S    
C19   H110  S    
C44   H58   S    
C41   C50   A    
C90   O7    S    
C13   C120  S    
C34   H48   S    
C45   H59   S    
C39   C47   A    
C23   O2    S    
C76   C101  A    
C80   H28   S    
C94   N25   A    
C32   H46   S    
C14   H96   S    
C72   H13   S    
N22   Ni8   S    
N3    N12   A    
C10   O7    S    
C41   H55   S    
C119  H41   S    
N11   Ni1   S    
C71   N2    A    
C3    C24   S    
C4    C5    S    
C57   C60   A    
C18   H105  S    
C12   H93   S    
N22   N26   A    
C114  C116  S    
C113  C116  S    
C70   N28   A    
C5    H74   S    
C48   H40   S    
C59   N27   A    
C117  H38   S    
C7    H78   S    
C37   N12   A    
C48   C98   A    
C55   C101  S    
C48   N23   A    
C24   C118  S    
C73   C96   A    
C93   O9    S    
C115  H36   S    
C18   H107  S    
N1    N4    A    
C75   H23   S    
C85   N16   A    
C15   H98   S    
C35   C40   A    
N24   N25   A    
C8    O6    S    
C36   C55   A    
C95   C111  A    
C88   O5    S    
C12   O8    S    
C69   N32   A    
C6    H76   S    
C84   H32   S    
C61   C68   A    
C50   C96   S    
C22   H3    S    
C73   N4    A    
N8    Ni7   S    
C1    C96   A    
C56   C66   A    
C118  H39   S    
C89   C110  A    
C114  C122  S    
C15   O9    S    
C24   C121  S    
C84   C108  A    
C83   C107  A    
N29   Ni6   S    
C13   C124  S    
C86   N17   A    
C23   C25   S    
C15   H99   S    
C8    H81   S    
C43   C52   A    
C118  C120  S    
C57   H63   S    
C3    C120  S    
C70   H62   S    
C11   H90   S    
C30   H44   S    
C16   H101  S    
C82   H30   S    
C10   H87   S    
C89   O6    S    
C83   H31   S    
C56   H61   S    
C76   H24   S    
C34   C53   A    
N32   Ni2   S    
C103  H95   S    
C103  C104  A    
C78   N9    A    
C35   C52   A    
C14   H94   S    
C31   C47   A    
C28   H17   S    
C68   C108  S    
C90   C109  A    
C69   H106  S    
C25   H8    S    
N12   Ni2   S    
N3    Ni4   S    
C123  O2    S    
C75   C102  A    
C15   C16   S    
C11   H91   S    
C57   C65   A    
C33   H47   S    
