data_mof_unit_60693.cif
_audit_creation_date              2012-12-10T19:04:23-0500
_audit_creation_method            fapswitch 2.2
_symmetry_space_group_name_H-M    P1
_symmetry_Int_Tables_number       1
_space_group_crystal_system       triclinic
_cell_length_a                    10.645645
_cell_length_b                    13.063671
_cell_length_c                    13.63325
_cell_angle_alpha                 85.679173
_cell_angle_beta                  90.089752
_cell_angle_gamma                 93.052482
_cell_volume                      1887.91559879

loop_
_atom_site_label
_atom_site_type_symbol
_atom_type_description
_atom_site_fract_x
_atom_site_fract_y
_atom_site_fract_z
_atom_type_partial_charge
C1    C     C_R   0.498647 0.481191 0.685087 0.884934
C2    C     C_1   0.497667 0.466422 0.788151 -0.139184
C3    C     C_2   0.459629 0.033538 0.472370 -0.058462
C4    C     C_R   0.742570 0.499910 0.496802 0.869642
C5    C     C_2   0.534308 0.967397 0.523603 -0.277821
C6    C     C_1   0.525463 0.854799 0.518386 0.176861
C7    C     C_1   0.472410 0.145383 0.480209 0.120703
C8    C     C_R   0.501449 0.518841 0.314909 0.917737
C9    C     C_R   0.257302 0.500353 0.497999 0.842442
C10   C     C_3   0.921954 0.391670 0.468542 0.242149
C11   C     C_3   0.065105 0.391864 0.472748 -0.401461
C12   C     C_3   0.121026 0.499844 0.496031 0.098045
C13   C     C_3   0.933582 0.583445 0.417844 -0.352594
C14   C     C_3   0.928785 0.521513 0.597919 -0.477747
C15   C     C_3   0.878679 0.498864 0.494446 0.070342
C16   C     C_1   0.363281 0.995635 0.407565 0.217376
C17   C     C_3   0.077545 0.580602 0.415661 -0.390307
C18   C     C_3   0.072990 0.525448 0.597837 -0.397778
C19   C     C_1   0.502908 0.534133 0.211876 -0.159231
C20   C     C_2   0.504450 0.547969 0.020799 0.432021
C21   C     C_2   0.497388 0.458830 0.979164 -0.269239
C22   C     C_1   0.497227 0.458713 0.875521 0.100753
C23   C     C_1   0.503928 0.544087 0.124552 -0.017836
Cl1   Cl    Cl    0.867240 0.357000 0.349774 -0.614557
Cl2   Cl    Cl    0.514050 0.668968 0.953422 -0.566851
H1    H     H_    0.109831 0.603474 0.614914 0.201764
H2    H     H_    0.108790 0.560754 0.341869 0.185023
H3    H     H_    0.896210 0.596231 0.619599 0.210254
H4    H     H_    0.892211 0.460684 0.653796 0.170551
H5    H     H_    0.106689 0.469503 0.656433 0.171491
H6    H     H_    0.907575 0.660709 0.437673 0.188442
H7    H     H_    0.119701 0.658410 0.427920 0.194774
H8    H     H_    0.491549 0.385663 0.023034 0.147204
H9    H     H_    0.605773 0.998311 0.571798 0.169062
H10   H     H_    0.883295 0.330941 0.523735 0.126381
H11   H     H_    0.092484 0.332719 0.530925 0.162630
H12   H     H_    0.104124 0.370145 0.401927 0.221015
H13   H     H_    0.894730 0.572605 0.343336 0.209127
N1    N     N_1   0.479840 0.234530 0.484780 -0.081158
N2    N     N_1   0.520150 0.765470 0.515220 -0.088317
N3    N     N_1   0.286081 0.965236 0.355669 -0.182970
O1    O     O_R   0.492620 0.402510 0.634760 -0.617948
O2    O     O_R   0.505570 0.572960 0.644530 -0.581414
O3    O     O_R   0.678730 0.414780 0.495130 -0.589660
O4    O     O_R   0.691680 0.585220 0.504900 -0.627154
O5    O     O_R   0.494430 0.427040 0.355470 -0.585991
O6    O     O_R   0.507380 0.597490 0.365240 -0.607159
O7    O     O_R   0.308320 0.414780 0.495100 -0.627624
O8    O     O_R   0.321270 0.585220 0.504870 -0.619485
Zn1   Zn    Zn3+2 0.491360 0.386190 0.493470 1.004412
Zn2   Zn    Zn3+2 0.508640 0.613810 0.506530 0.996810

loop_
_geom_bond_atom_site_label_1
_geom_bond_atom_site_label_2
_ccdc_geom_bond_type
C12   C17   S    
C2    C22   T    
C19   C23   T    
C11   C12   S    
C10   H10   S    
C18   H5    S    
N2    Zn2   S    
C14   C18   S    
C18   H1    S    
C20   C23   S    
C13   C17   S    
C10   C15   S    
C10   Cl1   S    
C5    H9    S    
C4    C15   S    
O7    Zn1   S    
C8    O6    A    
C21   C22   S    
O2    Zn2   S    
C13   H13   S    
O1    Zn1   S    
C11   H11   S    
C1    O2    A    
C3    C7    S    
C4    O4    A    
C13   C15   S    
C5    C6    S    
C9    C12   S    
C6    N2    T    
C8    C19   S    
C21   H8    S    
C10   C11   S    
O4    Zn2   S    
C14   H4    S    
O3    Zn1   S    
C17   H2    S    
C1    O1    A    
N1    Zn1   S    
C9    O8    A    
C20   C21   D    
C9    O7    A    
C1    C2    S    
C20   Cl2   S    
O8    Zn2   S    
C12   C18   S    
C11   H12   S    
C17   H7    S    
O5    Zn1   S    
C14   C15   S    
C7    N1    T    
C4    O3    A    
C8    O5    A    
C14   H3    S    
C16   N3    T    
C13   H6    S    
O6    Zn2   S    
C3    C16   S    
C3    C5    D    
