data_mof_unit_43070.cif
_audit_creation_date              2012-12-11T14:22:44-0500
_audit_creation_method            fapswitch 2.2
_symmetry_space_group_name_H-M    P1
_symmetry_Int_Tables_number       1
_space_group_crystal_system       triclinic
_cell_length_a                    8.181645
_cell_length_b                    14.221738
_cell_length_c                    15.077181
_cell_angle_alpha                 93.60425
_cell_angle_beta                  99.060735
_cell_angle_gamma                 90.73396
_cell_volume                      1728.56230231

loop_
_atom_site_label
_atom_site_type_symbol
_atom_type_description
_atom_site_fract_x
_atom_site_fract_y
_atom_site_fract_z
_atom_type_partial_charge
Ba1   Ba    Ba6+2 0.142880 0.544780 0.454020 1.628202
Ba2   Ba    Ba6+2 0.667290 0.455210 0.545900 1.626929
C1    C     C_3   0.282840 0.775276 0.101906 -0.374114
C2    C     C_3   0.318793 0.746598 0.198402 0.356506
C3    C     C_3   0.527527 0.743950 0.657884 0.305312
C4    C     C_3   0.545149 0.850355 0.675981 -0.390896
C5    C     C_3   0.951822 0.199935 0.748371 0.404894
C6    C     C_3   0.947467 0.098888 0.776270 0.315092
C7    C     C_3   0.480052 0.249272 0.801700 0.335997
C8    C     C_3   0.521676 0.220719 0.898011 -0.346715
C9    C     C_R   0.015618 0.939527 0.547452 -0.035002
C10   C     C_R   0.817524 0.803898 0.499850 0.042979
C11   C     C_R   0.661628 0.772996 0.455452 -0.292584
C12   C     C_3   0.845559 0.797638 0.244141 0.351364
C13   C     C_R   0.547821 0.835869 0.415562 0.020982
C14   C     C_R   0.592489 0.930751 0.413864 -0.145650
C15   C     C_R   0.750181 0.964393 0.455521 -0.004424
C16   C     C_R   0.862858 0.901812 0.501683 -0.024484
C17   C     C_R   0.946352 0.098161 0.498863 -0.030077
C18   C     C_R   0.058946 0.035587 0.545109 -0.006864
C19   C     C_R   0.991216 0.196217 0.501284 0.044387
C20   C     C_R   0.145435 0.227498 0.547642 -0.295551
C21   C     C_R   0.259717 0.164561 0.586839 0.019877
C22   C     C_R   0.216037 0.069404 0.587477 -0.130138
C23   C     C_3   0.847672 0.896058 0.210333 -0.363610
C24   C     C_R   0.793853 0.060370 0.452820 -0.035541
C25   C     C_R   0.240375 0.466078 0.769027 -0.287608
C26   C     C_R   0.149554 0.431807 0.831109 0.017452
C27   C     C_R   0.211389 0.443186 0.923504 -0.126309
C28   C     C_R   0.363539 0.493048 0.955176 0.011505
C29   C     C_R   0.445393 0.532851 0.889733 -0.111019
C30   C     C_R   0.384460 0.519100 0.798191 0.037643
C31   C     C_R   0.589691 0.553122 0.083977 -0.134408
C32   C     C_R   0.653951 0.566624 0.175258 0.014203
C33   C     C_R   0.418002 0.484390 0.213207 0.064673
C34   C     C_3   0.761676 0.336871 0.278597 0.309841
C35   C     C_R   0.351341 0.471014 0.121607 -0.118882
C36   C     C_R   0.434058 0.506752 0.054430 0.002989
C37   C     C_R   0.565390 0.535333 0.239632 -0.288967
C38   C     C_3   0.723861 0.308941 0.178248 -0.394257
C39   C     C_3   0.042784 0.662793 0.721878 0.310292
C40   C     C_3   0.080392 0.691152 0.822183 -0.410673
C41   C     C_3   0.283601 0.259831 0.357094 0.308178
C42   C     C_3   0.271187 0.153390 0.338039 -0.387034
H1    H     H_    0.245473 0.681384 0.203113 0.094581
H2    H     H_    0.625762 0.252836 0.165032 0.126318
H3    H     H_    0.680801 0.370323 0.140151 0.066455
H4    H     H_    0.837243 0.282461 0.154035 0.131218
H5    H     H_    0.156070 0.637167 0.698272 0.007220
H6    H     H_    0.946771 0.605833 0.710686 0.075766
H7    H     H_    0.184778 0.743443 0.835871 0.119373
H8    H     H_    0.114088 0.628859 0.861030 0.072660
H9    H     H_    0.969557 0.722761 0.845152 0.123850
H10   H     H_    0.165673 0.285106 0.375543 0.007961
H11   H     H_    0.385867 0.276434 0.413791 0.068616
H12   H     H_    0.149134 0.789705 0.083397 0.145385
H13   H     H_    0.163358 0.134346 0.285098 0.129010
H14   H     H_    0.255635 0.118150 0.399741 0.064180
H15   H     H_    0.385901 0.127691 0.314799 0.117986
H16   H     H_    0.452728 0.731923 0.214298 -0.058141
H17   H     H_    0.316271 0.717486 0.055482 0.074325
H18   H     H_    0.645393 0.716889 0.640022 0.016193
H19   H     H_    0.425863 0.728568 0.600503 0.061100
H20   H     H_    0.651240 0.868251 0.730340 0.120862
H21   H     H_    0.567047 0.883795 0.614244 0.063223
H22   H     H_    0.430112 0.878755 0.696755 0.117115
H23   H     H_    0.356656 0.839599 0.094551 0.109255
H24   H     H_    0.816865 0.948391 0.262627 0.072324
H25   H     H_    0.854686 0.205941 0.688983 0.037816
H26   H     H_    0.074475 0.214610 0.728963 -0.071833
H27   H     H_    0.943800 0.051046 0.714551 -0.058949
H28   H     H_    0.832628 0.086862 0.805381 0.060951
H29   H     H_    0.343691 0.255746 0.785508 -0.025274
H30   H     H_    0.540840 0.318814 0.797656 0.082637
H31   H     H_    0.477279 0.274763 0.944523 0.073703
H32   H     H_    0.657734 0.214637 0.916908 0.140332
H33   H     H_    0.937064 0.796704 0.306792 0.095997
H34   H     H_    0.460644 0.151883 0.904713 0.140331
H35   H     H_    0.625536 0.699528 0.455386 0.072887
H36   H     H_    0.503501 0.978281 0.381047 0.071842
H37   H     H_    0.305430 0.021785 0.619822 0.070665
H38   H     H_    0.180797 0.301196 0.548815 0.070019
H39   H     H_    0.102946 0.894999 0.585394 0.095708
H40   H     H_    0.706491 0.104937 0.414964 0.098925
H41   H     H_    0.667327 0.577245 0.038392 0.076806
H42   H     H_    0.136828 0.414210 0.968391 0.077475
H43   H     H_    0.237298 0.430589 0.105033 0.083374
H44   H     H_    0.719898 0.782550 0.259452 -0.058969
H45   H     H_    0.554167 0.577500 0.907094 0.068108
H46   H     H_    0.616928 0.544778 0.310311 0.073290
H47   H     H_    0.192979 0.457183 0.697773 0.068036
H48   H     H_    0.972467 0.913744 0.195067 0.147779
H49   H     H_    0.754974 0.899788 0.148426 0.110684
H50   H     H_    0.646761 0.359351 0.302571 0.008975
H51   H     H_    0.854013 0.395925 0.289640 0.069530
O1    O     O_2   0.113690 0.728200 0.532750 -0.466712
O2    O     O_3   0.313779 0.300978 0.279232 -0.633119
O3    O     O_3   0.887340 0.732164 0.178017 -0.601948
O4    O     O_2   0.696600 0.271740 0.467230 -0.469606
O5    O     O_3   0.938380 0.387880 0.459490 -0.493194
O6    O     O_3   0.484630 0.331100 0.627330 -0.480684
O7    O     O_3   0.823162 0.258429 0.323127 -0.639680
O8    O     O_3   0.389110 0.548970 0.605210 -0.480848
O9    O     O_3   0.904740 0.378630 0.670330 -0.492562
O10   O     O_2   0.806426 0.433706 0.825506 -0.487067
O11   O     O_3   0.921603 0.262774 0.819442 -0.604668
O12   O     O_3   0.871900 0.612110 0.540440 -0.491021
O13   O     O_3   0.421180 0.451020 0.394720 -0.493589
O14   O     O_2   0.662730 0.548230 0.717350 -0.459586
O15   O     O_3   0.491719 0.703886 0.735523 -0.643049
O16   O     O_2   0.596131 0.164392 0.577582 -0.500877
O17   O     O_3   0.538157 0.181027 0.743384 -0.607494
O18   O     O_3   0.325660 0.668890 0.372600 -0.489158
O19   O     O_2   0.208886 0.834746 0.420881 -0.492537
O20   O     O_3   0.987769 0.741997 0.676720 -0.647500
O21   O     O_3   0.273968 0.819520 0.256593 -0.601618
O22   O     O_2   0.147570 0.451710 0.282630 -0.462784
O23   O     O_3   0.905540 0.621350 0.329600 -0.492642
O24   O     O_2   0.993747 0.559281 0.173989 -0.489437
P1    P     P_3+3 0.947560 0.714050 0.560480 0.969683
P2    P     P_3+3 0.325150 0.423860 0.297970 0.983075
P3    P     P_3+3 0.860976 0.618515 0.212707 0.944800
P4    P     P_3+3 0.862730 0.285940 0.439440 0.972252
P5    P     P_3+3 0.944660 0.378124 0.787859 0.953689
P6    P     P_3+3 0.339091 0.791005 0.367756 0.944282
P7    P     P_3+3 0.480120 0.581128 0.716132 0.946367
P8    P     P_3+3 0.469391 0.209084 0.632522 0.937953
O25   O     O_3   0.088943 0.083640 0.840063 -0.637931
C43   C     C_3   0.098378 0.986815 0.855021 0.164603
H52   H     H_    0.119875 0.944794 0.793269 0.045474
H53   H     H_    0.985130 0.960427 0.878724 0.027350
H54   H     H_    0.205270 0.976400 0.908379 0.067617

loop_
_geom_bond_atom_site_label_1
_geom_bond_atom_site_label_2
_ccdc_geom_bond_type
C38   H3    S    
C11   H35   S    
Ba2   O14   S    
C23   H49   S    
C39   C40   S    
C39   H6    S    
C17   C18   A    
O13   P2    S    
C41   C42   S    
O25   C43   S    
C5    H26   S    
C8    H34   S    
C5    C6    S    
C9    C16   A    
Ba2   P4    S    
C38   H2    S    
C28   C36   S    
C35   C36   A    
Ba1   O18   S    
C15   C24   A    
C20   H38   S    
O4    P4    D    
C26   C27   A    
C17   C19   A    
C40   H9    S    
C28   C29   A    
O18   P6    S    
C3    O15   S    
C42   H15   S    
C30   P7    S    
C13   C14   A    
Ba2   O12   S    
C3    H19   S    
C34   O7    S    
Ba1   Ba2   S    
O23   P3    S    
C12   H33   S    
C4    H20   S    
O8    P7    S    
C17   C24   A    
O22   P2    D    
O17   P8    S    
O2    P2    S    
C10   P1    S    
C8    H32   S    
C6    O25   S    
C4    H21   S    
C18   C22   A    
C42   H14   S    
C14   C15   A    
C29   H45   S    
C24   H40   S    
C21   C22   A    
C25   H47   S    
C7    C8    S    
Ba1   O8    S    
C37   H46   S    
C40   H7    S    
C43   H54   S    
C7    O17   S    
Ba2   O5    S    
C32   P3    S    
C19   C20   A    
C23   H24   S    
C7    H29   S    
C39   O20   S    
O1    P1    D    
Ba1   O5    S    
C39   H5    S    
C35   H43   S    
C12   O3    S    
C2    H1    S    
C1    H17   S    
C9    C18   A    
C6    H28   S    
C32   C37   A    
C33   P2    S    
O19   P6    D    
Ba2   O6    S    
C9    H39   S    
O10   P5    D    
C14   H36   S    
Ba1   P1    S    
C19   P4    S    
C33   C37   A    
C22   H37   S    
C27   C28   A    
C1    H12   S    
C41   H10   S    
C29   C30   A    
Ba2   O9    S    
C42   H13   S    
C2    H16   S    
C15   C16   A    
C5    O11   S    
Ba1   O22   S    
C27   H42   S    
O15   P7    S    
C41   H11   S    
Ba1   O12   S    
Ba2   O4    S    
O21   P6    S    
C11   C13   A    
O16   P8    D    
C7    H30   S    
O11   P5    S    
O7    P4    S    
O12   P1    S    
C34   C38   S    
C21   P8    S    
C43   H52   S    
O24   P3    D    
O3    P3    S    
C38   H4    S    
C23   H48   S    
C31   H41   S    
C33   C35   A    
C25   C30   A    
C2    O21   S    
C1    H23   S    
C41   O2    S    
C5    H25   S    
C26   P5    S    
O9    P5    S    
C31   C36   A    
O5    P4    S    
C12   H44   S    
C34   H51   S    
C3    C4    S    
Ba2   O8    S    
Ba1   O1    S    
Ba2   O13   S    
O6    P8    S    
C31   C32   A    
C3    H18   S    
Ba1   O23   S    
C12   C23   S    
Ba1   P2    S    
Ba1   O13   S    
C34   H50   S    
O14   P7    D    
C4    H22   S    
C10   C11   A    
O20   P1    S    
C13   P6    S    
C10   C16   A    
C25   C26   A    
C20   C21   A    
C43   H53   S    
C1    C2    S    
C40   H8    S    
C6    H27   S    
C8    H31   S    
