data_mof_unit_41968.cif
_audit_creation_date              2012-10-26T17:10:31-0400
_audit_creation_method            fapswitch 2.2
_symmetry_space_group_name_H-M    P1
_symmetry_Int_Tables_number       1
_space_group_crystal_system       triclinic
_cell_length_a                    16.918249
_cell_length_b                    16.924657
_cell_length_c                    16.905535
_cell_angle_alpha                 68.307825
_cell_angle_beta                  68.325325
_cell_angle_gamma                 68.115715
_cell_volume                      4020.39279104

loop_
_atom_site_label
_atom_site_type_symbol
_atom_type_description
_atom_site_fract_x
_atom_site_fract_y
_atom_site_fract_z
_atom_type_partial_charge
C1    C     C_R   0.599322 0.015262 0.599279 -0.021520
C2    C     C_R   0.169742 0.432830 0.978119 0.569528
C3    C     C_R   0.566770 0.022870 0.830060 0.566897
C4    C     C_R   0.433047 0.977662 0.169894 0.565661
C5    C     C_R   0.432883 0.169704 0.978140 0.571084
C6    C     C_R   0.566759 0.829939 0.022467 0.562699
C7    C     C_R   0.977703 0.433088 0.169869 0.566464
C8    C     C_R   0.022868 0.566772 0.830060 0.566554
C9    C     C_R   0.169905 0.977691 0.433047 0.571273
C10   C     C_R   0.829981 0.022922 0.566847 0.569881
C11   C     C_R   0.548798 0.006864 0.548499 0.041212
C12   C     C_R   0.401084 0.984103 0.401161 -0.021298
C13   C     C_R   0.451922 0.992023 0.451927 0.041172
C14   C     C_R   0.007078 0.548653 0.548523 0.041179
C15   C     C_R   0.991780 0.451825 0.452190 0.041409
C16   C     C_R   0.542527 0.544222 0.022498 0.041779
C17   C     C_R   0.448211 0.448559 0.002622 0.042111
C18   C     C_R   0.554900 0.056258 0.459949 -0.107850
C19   C     C_R   0.445856 0.942577 0.540463 -0.108087
C20   C     C_R   0.056301 0.459846 0.555183 -0.106362
C21   C     C_R   0.942521 0.540628 0.445544 -0.106388
C22   C     C_R   0.487786 0.584817 0.964842 -0.110183
C23   C     C_R   0.015411 0.599378 0.599149 -0.021265
C24   C     C_R   0.502796 0.407859 0.060492 -0.109918
C25   C     C_R   0.506992 0.048969 0.412230 -0.111540
C26   C     C_R   0.493773 0.949869 0.588192 -0.111706
C27   C     C_R   0.441197 0.537611 0.955071 -0.107056
C28   C     C_R   0.549531 0.455166 0.070252 -0.107161
C29   C     C_R   0.048770 0.412002 0.507567 -0.109768
C30   C     C_R   0.950052 0.588484 0.493174 -0.109861
C31   C     C_R   0.560278 0.018480 0.687288 -0.166075
C32   C     C_R   0.439946 0.981245 0.312984 -0.167145
C33   C     C_R   0.018497 0.687375 0.560275 -0.164919
C34   C     C_R   0.983885 0.401059 0.401333 -0.020971
C35   C     C_R   0.981121 0.312911 0.440137 -0.164991
C36   C     C_R   0.683015 0.555559 0.030890 -0.165030
C37   C     C_R   0.311196 0.438203 0.986520 -0.167041
C38   C     C_R   0.313026 0.981061 0.440218 -0.167764
C39   C     C_R   0.687254 0.018580 0.560299 -0.168059
C40   C     C_R   0.438498 0.311064 0.986579 -0.165980
C41   C     C_R   0.555350 0.683462 0.031233 -0.166256
C42   C     C_R   0.980905 0.440129 0.313180 -0.167502
C43   C     C_R   0.018709 0.560282 0.687150 -0.166897
C44   C     C_R   0.607096 0.027414 0.735589 -0.003419
C45   C     C_R   0.593883 0.594486 0.030158 -0.020287
C46   C     C_R   0.392516 0.973883 0.264296 -0.003893
C47   C     C_R   0.027380 0.735505 0.607345 -0.003701
C48   C     C_R   0.973864 0.264320 0.392516 -0.003765
C49   C     C_R   0.734476 0.605805 0.028269 -0.006809
C50   C     C_R   0.263718 0.391871 0.975727 -0.003221
C51   C     C_R   0.264325 0.973667 0.392765 -0.002035
C52   C     C_R   0.735434 0.027527 0.607292 -0.003635
C53   C     C_R   0.392105 0.263568 0.975840 -0.001875
C54   C     C_R   0.605831 0.734641 0.028334 -0.007043
C55   C     C_R   0.973625 0.392808 0.264332 -0.002099
C56   C     C_R   0.398784 0.398605 0.991438 -0.021540
C57   C     C_R   0.027619 0.607041 0.735516 -0.003178
C58   C     C_R   0.694532 0.034627 0.694994 0.257051
C59   C     C_R   0.304451 0.968506 0.304668 0.258832
C60   C     C_R   0.034657 0.694516 0.694997 0.256514
C61   C     C_R   0.968543 0.304793 0.304350 0.258111
C62   C     C_R   0.696113 0.696108 0.024092 0.253906
C63   C     C_R   0.304474 0.304127 0.969330 0.258000
C64   C     C_3   0.790530 0.984684 0.783598 -0.052922
C65   C     C_3   0.214895 0.025839 0.209152 -0.060105
C66   C     C_3   0.984740 0.790472 0.783573 -0.054001
C67   C     C_R   0.022930 0.829991 0.566854 0.569991
C68   C     C_3   0.026228 0.209026 0.215148 -0.061326
C69   C     C_3   0.782367 0.782339 0.922438 -0.086663
C70   C     C_3   0.209457 0.214807 0.023522 -0.058560
C71   C     C_R   0.977653 0.169927 0.433003 0.570229
C72   C     C_R   0.829908 0.566771 0.022351 0.562225
Cu1   Cu    Cu3+1 0.995180 0.995180 0.424630 0.925578
Cu2   Cu    Cu3+1 0.004820 0.004820 0.575370 0.914262
Cu3   Cu    Cu3+1 0.995180 0.424630 0.995180 0.923304
Cu4   Cu    Cu3+1 0.004820 0.575370 0.004820 0.945398
Cu5   Cu    Cu3+1 0.424630 0.995180 0.995180 0.920938
Cu6   Cu    Cu3+1 0.575370 0.004820 0.004820 0.944185
H1    H     H_    0.488747 0.909885 0.655858 0.103867
H2    H     H_    0.482426 0.652759 0.925673 0.104828
H3    H     H_    0.897111 0.572761 0.404428 0.113160
H4    H     H_    0.101769 0.427714 0.596238 0.114454
H5    H     H_    0.492692 0.014669 0.718093 0.140282
H6    H     H_    0.507806 0.984190 0.282352 0.139582
H7    H     H_    0.014655 0.718278 0.492626 0.140972
H8    H     H_    0.984065 0.282239 0.508069 0.140909
H9    H     H_    0.713290 0.487130 0.029531 0.139764
H10   H     H_    0.279298 0.504913 0.993167 0.140155
H11   H     H_    0.281829 0.986350 0.507393 0.138977
H12   H     H_    0.511973 0.089015 0.344588 0.103861
H13   H     H_    0.718744 0.012403 0.493434 0.139068
H14   H     H_    0.506076 0.279983 0.990800 0.140440
H15   H     H_    0.486185 0.713296 0.032542 0.141184
H16   H     H_    0.986178 0.507219 0.282011 0.139898
H17   H     H_    0.012523 0.493511 0.718568 0.140513
H18   H     H_    0.855478 0.996753 0.767715 0.131015
H19   H     H_    0.801966 0.922195 0.768273 0.057317
H20   H     H_    0.764678 0.976534 0.855652 0.137400
H21   H     H_    0.230290 0.087452 0.200965 0.062953
H22   H     H_    0.143057 0.034347 0.235188 0.122851
H23   H     H_    0.910182 0.656337 0.487716 0.106537
H24   H     H_    0.229891 0.016322 0.143218 0.127883
H25   H     H_    0.922226 0.801929 0.768232 0.058353
H26   H     H_    0.996837 0.855388 0.767687 0.130436
H27   H     H_    0.976596 0.764617 0.855629 0.137305
H28   H     H_    0.015928 0.143752 0.229206 0.127620
H29   H     H_    0.087461 0.199456 0.232201 0.064788
H30   H     H_    0.036088 0.235482 0.143134 0.122169
H31   H     H_    0.824543 0.729164 0.889068 0.103563
H32   H     H_    0.823649 0.823585 0.914831 0.099399
H33   H     H_    0.729127 0.824555 0.889119 0.102716
H34   H     H_    0.088698 0.344170 0.512988 0.107045
H35   H     H_    0.143688 0.230666 0.013217 0.128048
H36   H     H_    0.200902 0.228911 0.086061 0.062270
H37   H     H_    0.235350 0.143032 0.030877 0.122670
H38   H     H_    0.590499 0.422343 0.115786 0.111313
H39   H     H_    0.400892 0.570414 0.908912 0.112457
H40   H     H_    0.405009 0.897189 0.572457 0.112693
H41   H     H_    0.595687 0.101704 0.427963 0.112562
H42   H     H_    0.508550 0.339694 0.099040 0.103606
O1    O     O_R   0.124540 0.978640 0.385460 -0.483332
O2    O     O_R   0.124540 0.385460 0.978640 -0.488140
O3    O     O_R   0.021360 0.875460 0.614540 -0.491431
O4    O     O_R   0.978640 0.124540 0.385460 -0.486722
O5    O     O_R   0.013780 0.867370 0.487190 -0.521769
O6    O     O_R   0.986220 0.132630 0.512810 -0.522957
O7    O     O_R   0.867370 0.487190 0.013780 -0.525427
O8    O     O_R   0.132630 0.512810 0.986220 -0.523430
O9    O     O_R   0.487190 0.013780 0.867370 -0.524283
O10   O     O_R   0.512810 0.986220 0.132630 -0.526543
O11   O     O_R   0.512810 0.132630 0.986220 -0.524591
O12   O     O_R   0.875460 0.021360 0.614540 -0.490609
O13   O     O_R   0.487190 0.867370 0.013780 -0.527377
O14   O     O_R   0.986220 0.512810 0.132630 -0.525716
O15   O     O_R   0.013780 0.487190 0.867370 -0.523453
O16   O     O_R   0.132630 0.986220 0.512810 -0.524440
O17   O     O_R   0.867370 0.013780 0.487190 -0.523220
O18   O     O_3   0.735375 0.059469 0.736829 -0.521413
O19   O     O_3   0.261217 0.948120 0.261850 -0.519661
O20   O     O_3   0.059525 0.735322 0.736837 -0.523606
O21   O     O_3   0.948366 0.262172 0.260784 -0.521721
O22   O     O_3   0.747868 0.747745 0.013726 -0.517521
O23   O     O_R   0.978640 0.385460 0.124540 -0.485039
O24   O     O_3   0.262542 0.261582 0.946975 -0.520187
O25   O     O_R   0.021360 0.614540 0.875460 -0.487417
O26   O     O_R   0.385460 0.124540 0.978640 -0.484816
O27   O     O_R   0.614540 0.875460 0.021360 -0.463265
O28   O     O_R   0.614540 0.021360 0.875460 -0.486582
O29   O     O_R   0.385460 0.978640 0.124540 -0.487185
O30   O     O_R   0.875460 0.614540 0.021360 -0.463788

loop_
_geom_bond_atom_site_label_1
_geom_bond_atom_site_label_2
_ccdc_geom_bond_type
C16   C28   A    
C11   C18   A    
Cu3   O23   S    
Cu2   O12   S    
C46   C59   A    
Cu3   O2    S    
C53   C63   A    
Cu1   Cu2   S    
C37   H10   S    
C8    O25   A    
C34   C42   A    
C7    C55   S    
Cu6   O11   S    
C10   C52   S    
C7    O23   A    
C23   C43   A    
C64   O18   S    
Cu5   Cu6   S    
C70   H36   S    
C4    O29   A    
C38   H11   S    
C25   H12   S    
Cu5   O13   S    
C5    C53   S    
Cu5   O26   S    
C62   O22   S    
C6    O13   A    
C20   H4    S    
C67   O5    A    
C8    C57   S    
C35   H8    S    
Cu3   O15   S    
C29   H34   S    
C1    C31   A    
C31   H5    S    
C34   C35   A    
C5    O11   A    
C39   H13   S    
C19   C26   A    
C33   H7    S    
C2    C50   S    
C47   C60   A    
C37   C56   A    
C69   H31   S    
C41   H15   S    
C19   H40   S    
C44   C58   A    
C40   C56   A    
C49   C72   S    
Cu2   O16   S    
C9    O1    A    
C63   O24   S    
C71   O6    A    
C5    O26   A    
C68   H29   S    
Cu4   O30   S    
C28   H38   S    
C15   C34   S    
Cu6   O28   S    
C58   O18   S    
C64   H20   S    
C39   C52   A    
C3    O28   A    
C36   H9    S    
C3    O9    A    
C12   C32   A    
C8    O15   A    
C50   C63   A    
C13   C25   A    
C18   C25   A    
C68   H28   S    
C65   H24   S    
C14   C30   A    
C35   C48   A    
C47   C67   S    
C15   C29   A    
C20   C29   A    
C2    O2    A    
C70   H35   S    
C32   H6    S    
C6    O27   A    
C3    C44   S    
C24   H42   S    
C17   C24   A    
C31   C44   A    
C13   C19   A    
C72   O7    A    
C17   C27   A    
C66   H26   S    
C71   O4    A    
C36   C45   A    
C64   H18   S    
C7    O14   A    
Cu5   O29   S    
Cu4   O14   S    
C57   C60   A    
C4    C46   S    
C38   C51   A    
C54   C62   A    
C11   C26   A    
C23   C33   A    
C69   O22   S    
C14   C23   S    
Cu3   Cu4   S    
C14   C20   A    
C42   C55   A    
C48   C71   S    
C69   H32   S    
C1    C39   A    
C43   H17   S    
Cu1   O5    S    
C59   O19   S    
Cu1   O4    S    
C68   O21   S    
Cu5   O9    S    
C40   H14   S    
C17   C56   S    
C65   H21   S    
C52   C58   A    
Cu6   O27   S    
C60   O20   S    
C72   O30   A    
C61   O21   S    
C64   H19   S    
C10   O17   A    
C21   H3    S    
Cu4   O25   S    
C6    C54   S    
Cu1   O1    S    
C22   C27   A    
C33   C47   A    
C51   C59   A    
C66   H27   S    
C27   H39   S    
C16   C22   A    
C49   C62   A    
C42   H16   S    
C32   C46   A    
C66   H25   S    
C24   C28   A    
C65   H22   S    
C67   O3    A    
C16   C45   S    
C4    O10   A    
C70   H37   S    
C21   C30   A    
C70   O24   S    
C26   H1    S    
C9    C51   S    
Cu6   O10   S    
C22   H2    S    
C37   C50   A    
C69   H33   S    
C48   C61   A    
Cu2   O6    S    
Cu1   O17   S    
Cu4   O8    S    
C55   C61   A    
C30   H23   S    
Cu2   O3    S    
Cu3   O7    S    
C12   C38   A    
C10   O12   A    
C41   C54   A    
C43   C57   A    
C65   O19   S    
C9    O16   A    
C15   C21   A    
C66   O20   S    
C12   C13   S    
C40   C53   A    
C41   C45   A    
C1    C11   S    
C68   H30   S    
C18   H41   S    
C36   C49   A    
C2    O8    A    
