data_mof_unit_29745.cif
_audit_creation_date              2012-10-26T19:13:25-0400
_audit_creation_method            fapswitch 2.2
_symmetry_space_group_name_H-M    P1
_symmetry_Int_Tables_number       1
_space_group_crystal_system       triclinic
_cell_length_a                    13.413339
_cell_length_b                    13.922166
_cell_length_c                    15.11713
_cell_angle_alpha                 90.395229
_cell_angle_beta                  91.132283
_cell_angle_gamma                 72.431795
_cell_volume                      2690.81720909

loop_
_atom_site_label
_atom_site_type_symbol
_atom_type_description
_atom_site_fract_x
_atom_site_fract_y
_atom_site_fract_z
_atom_type_partial_charge
C1    C     C_R   0.497233 0.501065 0.669928 0.550864
C2    C     C_R   0.815987 0.412922 0.503829 -0.040520
C3    C     C_R   0.542200 0.411826 0.904285 -0.165877
C4    C     C_R   0.700508 0.445939 0.503129 0.543687
C5    C     C_R   0.542926 0.413719 0.812633 -0.147455
C6    C     C_R   0.491895 0.502508 0.766527 -0.033082
C7    C     C_R   0.435723 0.589687 0.813406 -0.001853
C8    C     C_R   0.434004 0.587201 0.906096 0.259842
C9    C     C_R   0.490124 0.498596 0.951260 0.013649
C10   C     C_R   0.538431 0.564622 0.092426 -0.074388
C11   C     C_R   0.543182 0.565590 0.184531 -0.031824
C12   C     C_R   0.980827 0.454194 0.512027 -0.003340
C13   C     C_R   0.503960 0.498313 0.232782 -0.003324
C14   C     C_R   0.464440 0.429081 0.186987 -0.141003
C15   C     C_R   0.461138 0.428185 0.095078 -0.142004
C16   C     C_R   0.502114 0.499247 0.329846 0.542449
C17   C     C_R   0.496665 0.496914 0.047801 0.031357
C18   C     C_R   0.462505 0.898867 0.418213 -0.024846
C19   C     C_R   0.463363 0.797241 0.425372 0.052155
C20   C     C_R   0.532041 0.787704 0.571088 0.138170
C21   C     C_R   0.524698 0.890332 0.568642 -0.131864
C22   C     C_R   0.494305 0.947406 0.491270 0.000338
C23   C     C_R   0.874086 0.477184 0.533531 0.013862
C24   C     C_R   0.585102 0.081123 0.528241 -0.044733
C25   C     C_R   0.580608 0.183781 0.537591 0.115155
C26   C     C_R   0.419106 0.234442 0.458991 0.034415
C27   C     C_R   0.415490 0.134468 0.456142 -0.136792
C28   C     C_R   0.300077 0.553860 0.502118 0.541608
C29   C     C_R   0.499214 0.055148 0.490070 0.006796
C30   C     C_R   0.037593 0.687628 0.596088 -0.015214
C31   C     C_R   0.187799 0.583797 0.517836 -0.014741
C32   C     C_R   0.868566 0.318754 0.467252 -0.082285
C33   C     C_R   0.976142 0.290121 0.454813 0.267281
C34   C     C_R   0.033353 0.527554 0.528605 0.028480
C35   C     C_R   0.031958 0.357476 0.477433 -0.113733
C36   C     C_1   0.375953 0.680644 0.767959 0.259657
C37   C     C_3   0.280553 0.669074 0.971541 -0.007439
C38   C     C_3   0.225246 0.759742 0.027786 -0.347617
C39   C     C_1   0.592010 0.633800 0.226751 0.209440
C40   C     C_1   0.432405 0.949283 0.334429 0.174557
C41   C     C_1   0.577031 0.734762 0.650581 0.247351
C42   C     C_1   0.680085 0.003328 0.554189 0.184053
C43   C     C_1   0.659448 0.209143 0.591106 0.260795
C44   C     C_1   0.992877 0.776590 0.648970 0.208859
C45   C     C_R   0.983729 0.616217 0.577656 0.037948
C46   C     C_3   0.076485 0.195245 0.345668 -0.013546
C47   C     C_3   0.116307 0.088740 0.308976 -0.349206
C48   C     C_R   0.882591 0.630154 0.608465 -0.119083
C49   C     C_R   0.829186 0.561801 0.586893 -0.099737
C50   C     C_R   0.133583 0.515585 0.496390 -0.128965
C51   C     C_R   0.139319 0.670565 0.566224 -0.134104
Cu1   Cu    Cu3+1 0.500000 0.403570 0.500010 0.959222
Cu2   Cu    Cu3+1 0.500000 0.596430 0.499990 0.986474
H1    H     H_    0.182350 0.722672 0.584104 0.155584
H2    H     H_    0.346808 0.119756 0.427808 0.115938
H3    H     H_    0.172116 0.452918 0.454445 0.104254
H4    H     H_    0.825833 0.267353 0.446756 0.156621
H5    H     H_    0.115808 0.330368 0.472127 0.101035
H6    H     H_    0.753635 0.573894 0.615605 0.163134
H7    H     H_    0.584626 0.343292 0.938822 0.135531
H8    H     H_    0.283352 0.599770 0.009215 0.130891
H9    H     H_    0.233980 0.671479 0.909314 0.138377
H10   H     H_    0.219512 0.830450 0.991637 0.178648
H11   H     H_    0.145208 0.757740 0.042864 0.104043
H12   H     H_    0.585591 0.346058 0.777678 0.161425
H13   H     H_    0.269465 0.758536 0.090902 0.165026
H14   H     H_    0.145088 0.223528 0.355432 0.116773
H15   H     H_    0.021385 0.243051 0.295888 0.130756
H16   H     H_    0.172983 0.039538 0.356515 0.169622
H17   H     H_    0.049944 0.057768 0.297390 0.166099
H18   H     H_    0.156060 0.089475 0.245348 0.118024
H19   H     H_    0.568084 0.616103 0.055067 0.152541
H20   H     H_    0.434233 0.376671 0.222287 0.134626
H21   H     H_    0.428910 0.375397 0.060763 0.118330
H22   H     H_    0.435567 0.762893 0.369660 0.143088
H23   H     H_    0.843443 0.694434 0.648945 0.147291
H24   H     H_    0.545610 0.925316 0.627568 0.121122
H25   H     H_    0.355366 0.293002 0.429168 0.120314
N1    N     N_R   0.500000 0.741310 0.499980 -0.242582
N2    N     N_R   0.500060 0.258650 0.499980 -0.242643
N3    N     N_1   0.327984 0.753382 0.731744 -0.287879
N4    N     N_1   0.631363 0.688373 0.260324 -0.276313
N5    N     N_1   0.408273 0.989577 0.267142 -0.306322
N6    N     N_1   0.613481 0.694504 0.715546 -0.314371
N7    N     N_1   0.755914 0.941177 0.574628 -0.262232
N8    N     N_1   0.722846 0.228316 0.634661 -0.293139
N9    N     N_1   0.957544 0.847683 0.691579 -0.247594
O1    O     O_R   0.499990 0.418570 0.628550 -0.497044
O2    O     O_3   0.026110 0.192902 0.426502 -0.541610
O3    O     O_R   0.499990 0.581440 0.628540 -0.488299
O4    O     O_R   0.650980 0.378820 0.499990 -0.496124
O5    O     O_R   0.650980 0.541690 0.499970 -0.494713
O6    O     O_R   0.500010 0.418560 0.371460 -0.505440
O7    O     O_R   0.500010 0.581430 0.371450 -0.504497
O8    O     O_R   0.349020 0.458310 0.500030 -0.516171
O9    O     O_R   0.349020 0.621180 0.500010 -0.499685
O10   O     O_3   0.381954 0.673007 0.952790 -0.552318

loop_
_geom_bond_atom_site_label_1
_geom_bond_atom_site_label_2
_ccdc_geom_bond_type
C30   C51   A    
C1    O3    A    
C22   C29   S    
C27   C29   A    
C25   N2    A    
C24   C42   S    
C7    C36   S    
C48   H23   S    
C30   C45   A    
C25   C43   S    
C37   O10   S    
C20   C41   S    
C7    C8    A    
C46   O2    S    
C12   C23   A    
C16   O6    A    
C26   H25   S    
C35   H5    S    
C21   C22   A    
Cu2   N1    S    
C5    C6    A    
C11   C39   S    
C27   H2    S    
C23   C49   A    
C10   C17   A    
Cu1   O8    S    
C2    C32   A    
C18   C19   A    
C18   C40   S    
C24   C29   A    
C47   H16   S    
C38   H13   S    
C8    C9    A    
C44   N9    T    
C4    O4    A    
C3    H7    S    
C1    O1    A    
C13   C14   A    
Cu2   O9    S    
C40   N5    T    
C30   C44   S    
C32   H4    S    
C37   H9    S    
C38   H11   S    
C34   C50   A    
C1    C6    S    
C14   H20   S    
Cu1   O1    S    
C24   C25   A    
C5    H12   S    
C34   C45   A    
C41   N6    T    
C26   N2    A    
C2    C4    S    
C8    O10   S    
C47   H17   S    
C46   H15   S    
C37   C38   S    
C3    C9    A    
C33   O2    S    
C36   N3    T    
Cu2   O5    S    
C26   C27   A    
Cu1   O6    S    
C42   N7    T    
C12   C35   A    
C19   N1    A    
C47   H18   S    
C9    C17   S    
C48   C49   A    
C28   O8    A    
C31   C50   A    
C12   C34   A    
Cu2   O3    S    
Cu1   Cu2   S    
C38   H10   S    
C45   C48   A    
C15   C17   A    
C46   C47   S    
C20   N1    A    
Cu2   O7    S    
C18   C22   A    
C43   N8    T    
C28   C31   S    
C39   N4    T    
C31   C51   A    
C3    C5    A    
C37   H8    S    
C6    C7    A    
C16   O7    A    
C49   H6    S    
C28   O9    A    
C51   H1    S    
C32   C33   A    
C19   H22   S    
C46   H14   S    
C11   C13   A    
C33   C35   A    
C50   H3    S    
C10   C11   A    
C15   H21   S    
C20   C21   A    
C13   C16   S    
C21   H24   S    
C2    C23   A    
C14   C15   A    
Cu1   O4    S    
Cu1   N2    S    
C4    O5    A    
C10   H19   S    
