data_mof_unit_22555.cif
_audit_creation_date              2012-12-10T17:16:42-0500
_audit_creation_method            fapswitch 2.2
_symmetry_space_group_name_H-M    P1
_symmetry_Int_Tables_number       1
_space_group_crystal_system       triclinic
_cell_length_a                    10.044614
_cell_length_b                    10.705608
_cell_length_c                    10.734121
_cell_angle_alpha                 88.560776
_cell_angle_beta                  94.344779
_cell_angle_gamma                 84.167669
_cell_volume                      1144.37800439

loop_
_atom_site_label
_atom_site_type_symbol
_atom_type_description
_atom_site_fract_x
_atom_site_fract_y
_atom_site_fract_z
_atom_type_partial_charge
C1    C     C_R   0.444129 0.510502 0.266162 0.758158
C2    C     C_R   0.504042 0.739890 0.498257 0.889895
C3    C     C_R   0.624991 0.124300 0.295358 -0.245907
C4    C     C_R   0.373511 0.889065 0.677478 -0.225028
C5    C     C_R   0.710027 0.056366 0.219435 -0.228900
C6    C     C_R   0.256619 0.945488 0.721777 -0.215600
C7    C     C_R   0.727277 0.926082 0.229623 0.551333
C8    C     C_R   0.195926 0.058924 0.668444 0.561863
C9    C     C_R   0.654172 0.864005 0.313594 -0.291510
C10   C     C_R   0.266119 0.123800 0.581778 -0.265552
C11   C     C_R   0.575850 0.931585 0.399643 0.015741
C12   C     C_R   0.555421 0.492247 0.733447 0.786602
C13   C     C_R   0.390012 0.068855 0.542251 0.012107
C14   C     C_R   0.560364 0.063373 0.389015 0.095922
C15   C     C_R   0.428768 0.943549 0.574375 0.068829
C16   C     C_R   0.511651 0.872993 0.495727 -0.175055
C17   C     C_R   0.474596 0.131203 0.467761 -0.190411
C18   C     C_3   0.034585 0.222685 0.712332 0.111843
C19   C     C_3   0.112664 0.266339 0.829677 -0.435873
C20   C     C_3   0.190114 0.376355 0.797992 -0.840635
C21   C     C_3   0.924216 0.799961 0.215958 0.081933
C22   C     C_3   0.032036 0.891141 0.234626 -0.408953
C23   C     C_2   0.413761 0.527361 0.130835 0.300708
C24   C     C_3   0.161550 0.825448 0.299879 -0.853921
C25   C     C_3   0.694993 0.290424 0.892115 0.073381
C26   C     C_3   0.572016 0.226964 0.928221 -0.417120
C27   C     C_3   0.581412 0.089829 0.891203 -0.892266
C28   C     C_3   0.208984 0.431986 0.126280 0.081935
C29   C     C_3   0.276345 0.296158 0.147010 -0.383510
C30   C     C_3   0.179285 0.208702 0.194912 -0.956795
C31   C     C_2   0.585729 0.493258 0.868173 0.322877
C32   C     C_2   0.514016 0.562222 0.066503 -0.174122
C33   C     C_2   0.502192 0.568152 0.931836 -0.212151
C34   C     C_2   0.071854 0.492428 0.487663 -0.186723
C35   C     C_2   0.926836 0.514369 0.505529 -0.158676
C36   C     C_R   0.492546 0.261177 0.490114 0.891609
H1    H     H_    0.608263 0.224653 0.277385 0.169075
H2    H     H_    0.107615 0.423431 0.422466 0.157560
H3    H     H_    0.879978 0.380957 0.390288 0.166449
H4    H     H_    0.120579 0.617939 0.611071 0.174734
H5    H     H_    0.926083 0.239056 0.726287 0.149325
H6    H     H_    0.044719 0.279202 0.626555 0.143224
H7    H     H_    0.041458 0.295418 0.900439 0.205034
H8    H     H_    0.184118 0.188680 0.873357 0.235814
H9    H     H_    0.247967 0.355602 0.715860 0.289488
H10   H     H_    0.262852 0.392990 0.876307 0.285162
H11   H     H_    0.119419 0.462423 0.779363 0.260209
H12   H     H_    0.414212 0.798127 0.717605 0.158067
H13   H     H_    0.964092 0.721190 0.159341 0.177892
H14   H     H_    0.904070 0.756921 0.307457 0.132896
H15   H     H_    0.053550 0.930391 0.142286 0.237331
H16   H     H_    0.995116 0.970150 0.292388 0.226968
H17   H     H_    0.142150 0.786554 0.392898 0.279017
H18   H     H_    0.237063 0.893776 0.313460 0.254646
H19   H     H_    0.203126 0.748197 0.242405 0.270953
H20   H     H_    0.786300 0.237513 0.939957 0.159504
H21   H     H_    0.706420 0.283059 0.790475 0.148784
H22   H     H_    0.563904 0.232600 0.030506 0.230013
H23   H     H_    0.761477 0.105187 0.151084 0.155858
H24   H     H_    0.479161 0.276015 0.879790 0.217682
H25   H     H_    0.583472 0.083704 0.788187 0.266089
H26   H     H_    0.492477 0.046352 0.920524 0.265350
H27   H     H_    0.673448 0.036583 0.937125 0.285273
H28   H     H_    0.117031 0.428641 0.062872 0.176865
H29   H     H_    0.170184 0.471631 0.212170 0.160415
H30   H     H_    0.312229 0.260563 0.058108 0.224226
H31   H     H_    0.364222 0.292113 0.216273 0.199464
H32   H     H_    0.231173 0.112187 0.208761 0.273583
H33   H     H_    0.091026 0.206185 0.126495 0.255748
H34   H     H_    0.208009 0.896484 0.792197 0.161465
H35   H     H_    0.144663 0.240387 0.285827 0.255534
H36   H     H_    0.661297 0.763470 0.307851 0.176805
H37   H     H_    0.218396 0.208830 0.535713 0.156904
H38   H     H_    0.415493 0.624508 0.885379 0.163319
H39   H     H_    0.612370 0.574161 0.111645 0.179518
H40   H     H_    0.890593 0.585365 0.568757 0.179709
N1    N     N_2   0.157300 0.551390 0.551120 -0.200372
N2    N     N_2   0.842700 0.448610 0.448880 -0.199788
O1    O     O_R   0.568940 0.489660 0.307530 -0.634528
O2    O     O_3   0.807112 0.859921 0.148899 -0.658145
O3    O     O_3   0.691376 0.416375 0.931220 -0.644452
O4    O     O_3   0.289523 0.513649 0.066933 -0.661473
O5    O     O_R   0.431060 0.510340 0.692470 -0.632014
O6    O     O_R   0.348880 0.522640 0.340350 -0.605457
O7    O     O_R   0.651120 0.477360 0.659650 -0.595166
O8    O     O_R   0.610030 0.300280 0.483580 -0.604966
O9    O     O_R   0.389970 0.699720 0.516420 -0.600470
O10   O     O_R   0.389970 0.333270 0.516400 -0.626444
O11   O     O_R   0.610030 0.666730 0.483600 -0.623038
O12   O     O_3   0.063662 0.092931 0.694512 -0.657910
Zn1   Zn    Zn3+2 0.646940 0.477980 0.478080 0.926329
Zn2   Zn    Zn3+2 0.353060 0.522020 0.521920 0.905911

loop_
_geom_bond_atom_site_label_1
_geom_bond_atom_site_label_2
_ccdc_geom_bond_type
N1    Zn2   S    
C23   O4    S    
C19   C20   S    
C25   H20   S    
C32   H39   S    
C21   H13   S    
C30   H35   S    
O7    Zn1   S    
C36   O10   A    
C24   H19   S    
O5    Zn2   S    
C26   C27   S    
C12   O7    A    
C28   C29   S    
C18   C19   S    
O8    Zn1   S    
C18   H6    S    
C34   N1    D    
C10   H37   S    
C24   H18   S    
C15   C16   A    
C7    C9    A    
C34   C35   S    
C27   H25   S    
C29   H31   S    
O10   Zn2   S    
C9    H36   S    
C17   C36   S    
O11   Zn1   S    
C2    C16   S    
O1    Zn1   S    
C20   H9    S    
O9    Zn2   S    
C25   O3    S    
C14   C17   A    
C25   H21   S    
C21   H14   S    
C19   H7    S    
C35   H40   S    
C5    H23   S    
C28   O4    S    
C18   O12   S    
H3    N2    S    
C4    C6    A    
C18   H5    S    
C5    C7    A    
C6    C8    A    
C36   O8    A    
C25   C26   S    
C12   O5    A    
C1    O6    A    
C2    O11   A    
C29   C30   S    
C27   H26   S    
C26   H22   S    
C11   C16   A    
C31   C33   D    
C2    O9    A    
C9    C11   A    
C3    C14   A    
C27   H27   S    
C28   H28   S    
C1    C23   S    
C13   C15   A    
C12   C31   S    
C1    O1    A    
C22   C24   S    
C8    O12   S    
C30   H33   S    
C19   H8    S    
C22   H16   S    
C4    H12   S    
C6    H34   S    
C34   H2    S    
C3    C5    A    
C10   C13   A    
N2    Zn1   S    
C35   N2    D    
C31   O3    S    
C13   C17   A    
C23   C32   D    
C4    C15   A    
C28   H29   S    
C24   H17   S    
C32   C33   S    
C21   O2    S    
C11   C14   A    
C20   H10   S    
C20   H11   S    
C29   H30   S    
C33   H38   S    
C3    H1    S    
C8    C10   A    
H4    N1    S    
C7    O2    S    
O6    Zn2   S    
C21   C22   S    
C26   H24   S    
C30   H32   S    
C22   H15   S    
