data_mof_unit_51421.cif
_audit_creation_date              2012-10-26T17:11:32-0400
_audit_creation_method            fapswitch 2.2
_symmetry_space_group_name_H-M    P1
_symmetry_Int_Tables_number       1
_space_group_crystal_system       triclinic
_cell_length_a                    28.052328
_cell_length_b                    18.685074
_cell_length_c                    16.842168
_cell_angle_alpha                 90.342798
_cell_angle_beta                  62.643006
_cell_angle_gamma                 91.004235
_cell_volume                      7839.44497586

loop_
_atom_site_label
_atom_site_type_symbol
_atom_type_description
_atom_site_fract_x
_atom_site_fract_y
_atom_site_fract_z
_atom_type_partial_charge
C1    C     C_R   0.293930 0.726331 0.330354 0.563901
C2    C     C_R   0.598506 0.998569 0.508748 -0.000015
C3    C     C_R   0.688514 0.718676 0.905537 0.024041
C4    C     C_R   0.926667 0.902733 0.066347 0.555318
C5    C     C_R   0.073334 0.097266 0.933653 0.554565
C6    C     C_R   0.074718 0.905081 0.932335 0.549048
C7    C     C_R   0.925108 0.094643 0.067827 0.549171
C8    C     C_R   0.426667 0.402733 0.066347 0.555319
C9    C     C_R   0.573334 0.597266 0.933653 0.554565
C10   C     C_R   0.574718 0.405081 0.932335 0.549048
C11   C     C_R   0.425108 0.594643 0.067827 0.549171
C12   C     C_R   0.019646 0.597984 0.610332 0.013263
C13   C     C_R   0.901504 0.501422 0.491195 0.000271
C14   C     C_R   0.980366 0.402013 0.389585 0.013121
C15   C     C_R   0.922370 0.599675 0.597723 0.008540
C16   C     C_R   0.077634 0.400297 0.402239 0.007407
C17   C     C_R   0.519646 0.097984 0.610332 0.013263
C18   C     C_R   0.480366 0.902013 0.389584 0.013121
C19   C     C_R   0.422370 0.099675 0.597723 0.008540
C20   C     C_R   0.577634 0.900298 0.402238 0.007407
C21   C     C_R   0.975618 0.637663 0.671266 -0.136192
C22   C     C_R   0.024393 0.362323 0.328669 -0.137780
C23   C     C_R   0.928349 0.639455 0.664009 -0.133707
C24   C     C_R   0.098506 0.498568 0.508748 -0.000015
C25   C     C_R   0.071654 0.360513 0.335955 -0.135641
C26   C     C_R   0.475618 0.137663 0.671266 -0.136192
C27   C     C_R   0.524393 0.862324 0.328668 -0.137781
C28   C     C_R   0.428349 0.139455 0.664009 -0.133707
C29   C     C_R   0.571655 0.860513 0.335954 -0.135641
C30   C     C_R   0.960911 0.549231 0.549711 0.014470
C31   C     C_R   0.039096 0.450748 0.450236 0.013672
C32   C     C_R   0.010401 0.549741 0.553705 0.015278
C33   C     C_R   0.989607 0.450244 0.446231 0.015216
C34   C     C_R   0.460911 0.049231 0.549711 0.014470
C35   C     C_R   0.616392 0.883430 0.430549 -0.029219
C36   C     C_R   0.539096 0.950748 0.450235 0.013672
C37   C     C_R   0.510401 0.049741 0.553705 0.015278
C38   C     C_R   0.489607 0.950244 0.446231 0.015217
C39   C     C_R   0.450592 0.000101 0.495844 -0.013717
C40   C     C_R   0.549417 0.999885 0.504095 -0.014038
C41   C     C_R   0.950592 0.500100 0.495844 -0.013717
C42   C     C_R   0.049417 0.499884 0.504096 -0.014038
C43   C     C_R   0.387251 0.943170 0.451207 -0.006307
C44   C     C_R   0.612761 0.056830 0.548722 -0.007047
C45   C     C_R   0.630782 0.936367 0.480235 -0.007783
C46   C     C_R   0.383615 0.116551 0.569415 -0.029064
C47   C     C_R   0.369226 0.063622 0.519721 -0.007916
C48   C     C_R   0.887251 0.443170 0.451207 -0.006307
C49   C     C_R   0.112761 0.556830 0.548722 -0.007047
C50   C     C_R   0.130782 0.436367 0.480235 -0.007783
C51   C     C_R   0.869226 0.563622 0.519721 -0.007916
C52   C     C_R   0.333301 0.938173 0.464561 -0.030229
C53   C     C_R   0.666707 0.061825 0.535391 -0.030552
C54   C     C_R   0.675208 0.934101 0.502219 -0.026417
C55   C     C_R   0.324799 0.065894 0.497746 -0.026548
C56   C     C_R   0.833301 0.438173 0.464561 -0.030229
C57   C     C_R   0.428558 0.897066 0.393050 -0.007526
C58   C     C_R   0.166707 0.561825 0.535391 -0.030552
C59   C     C_R   0.175208 0.434101 0.502219 -0.026417
C60   C     C_R   0.824799 0.565894 0.497746 -0.026548
C61   C     C_R   0.304936 0.001511 0.480491 -0.172890
C62   C     C_R   0.695069 0.998487 0.519470 -0.172760
C63   C     C_R   0.804936 0.501511 0.480491 -0.172889
C64   C     C_R   0.195069 0.498487 0.519470 -0.172760
C65   C     C_R   0.619973 0.804742 0.436335 0.075803
C66   C     C_R   0.654123 0.764713 0.361780 -0.062260
C67   C     C_R   0.650695 0.689837 0.364038 -0.088823
C68   C     C_R   0.571458 0.102959 0.606835 -0.007725
C69   C     C_R   0.613772 0.654494 0.441346 -0.106921
C70   C     C_R   0.579295 0.693891 0.515847 -0.113414
C71   C     C_R   0.581637 0.768660 0.512957 -0.056711
C72   C     C_R   0.380044 0.195241 0.563626 0.075692
C73   C     C_R   0.418383 0.231317 0.487002 -0.057714
C74   C     C_R   0.420731 0.306085 0.484106 -0.113861
C75   C     C_R   0.386254 0.345488 0.558603 -0.106675
C76   C     C_R   0.349326 0.310150 0.635912 -0.088903
C77   C     C_R   0.345894 0.235275 0.638176 -0.062256
C78   C     C_R   0.422469 0.858043 0.320960 0.038242
C79   C     C_R   0.116392 0.383430 0.430549 -0.029219
C80   C     C_R   0.432759 0.784494 0.307744 -0.068518
C81   C     C_R   0.442373 0.753064 0.226439 -0.114422
C82   C     C_R   0.437356 0.793165 0.160927 -0.095912
C83   C     C_R   0.422534 0.864765 0.176801 -0.113525
C84   C     C_R   0.415770 0.897461 0.256024 -0.101233
C85   C     C_R   0.577556 0.142079 0.678847 0.038670
C86   C     C_R   0.584196 0.102748 0.743896 -0.101661
C87   C     C_R   0.577393 0.135544 0.823083 -0.109837
C88   C     C_R   0.562604 0.207164 0.838792 -0.092930
C89   C     C_R   0.557653 0.247181 0.773160 -0.116064
C90   C     C_R   0.883614 0.616551 0.569415 -0.029064
C91   C     C_R   0.567290 0.215643 0.691904 -0.068541
C92   C     C_R   0.119973 0.304742 0.436335 0.075803
C93   C     C_R   0.154124 0.264713 0.361780 -0.062260
C94   C     C_R   0.150696 0.189837 0.364037 -0.088823
C95   C     C_R   0.113772 0.154494 0.441345 -0.106922
C96   C     C_R   0.079295 0.193891 0.515847 -0.113414
C97   C     C_R   0.081638 0.268660 0.512957 -0.056711
C98   C     C_R   0.880044 0.695241 0.563626 0.075692
C99   C     C_R   0.918383 0.731317 0.487002 -0.057714
C100  C     C_R   0.920731 0.806086 0.484107 -0.113862
C101  C     C_R   0.928558 0.397066 0.393050 -0.007526
C102  C     C_R   0.886254 0.845488 0.558603 -0.106675
C103  C     C_R   0.849326 0.810150 0.635912 -0.088903
C104  C     C_R   0.845894 0.735275 0.638176 -0.062255
C105  C     C_R   0.922469 0.358045 0.320960 0.038240
C106  C     C_R   0.932758 0.284495 0.307743 -0.068518
C107  C     C_R   0.942371 0.253066 0.226438 -0.114421
C108  C     C_R   0.937355 0.293168 0.160926 -0.095913
C109  C     C_R   0.922535 0.364769 0.176800 -0.113526
C110  C     C_R   0.915771 0.397464 0.256023 -0.101233
C111  C     C_R   0.077556 0.642080 0.678846 0.038670
C112  C     C_R   0.706262 0.274054 0.669510 0.565591
C113  C     C_R   0.071458 0.602959 0.606835 -0.007725
C114  C     C_R   0.084196 0.602749 0.743896 -0.101661
C115  C     C_R   0.077392 0.635545 0.823083 -0.109837
C116  C     C_R   0.062603 0.707166 0.838792 -0.092930
C117  C     C_R   0.057653 0.747182 0.773159 -0.116065
C118  C     C_R   0.067290 0.715644 0.691902 -0.068540
C119  C     C_R   0.221040 0.769518 0.953757 0.032655
C120  C     C_R   0.780237 0.233136 0.045197 0.011262
C121  C     C_R   0.780310 0.763373 0.046080 0.046591
C122  C     C_R   0.219699 0.236612 0.953911 0.046554
C123  C     C_R   0.721040 0.269518 0.953757 0.032655
C124  C     C_R   0.280236 0.733135 0.045197 0.011262
C125  C     C_R   0.280310 0.263372 0.046080 0.046591
C126  C     C_R   0.719699 0.736612 0.953912 0.046554
C127  C     C_R   0.275168 0.790649 0.920095 -0.094633
C128  C     C_R   0.704488 0.729376 0.670749 0.551029
C129  C     C_R   0.725944 0.212580 0.079172 -0.128351
C130  C     C_R   0.725748 0.780789 0.084844 -0.142064
C131  C     C_R   0.274262 0.219195 0.915146 -0.141528
C132  C     C_R   0.775168 0.290649 0.920095 -0.094633
C133  C     C_R   0.225944 0.712580 0.079172 -0.128351
C134  C     C_R   0.225748 0.280790 0.084844 -0.142064
C135  C     C_R   0.774262 0.719196 0.915145 -0.141528
C136  C     C_R   0.304805 0.773442 0.965137 0.103819
C137  C     C_R   0.696247 0.230480 0.034215 0.100273
C138  C     C_R   0.695284 0.767604 0.039574 0.101625
C139  C     C_R   0.295513 0.270622 0.329250 0.550838
C140  C     C_R   0.304726 0.232381 0.960417 0.101838
C141  C     C_R   0.804805 0.273443 0.965136 0.103820
C142  C     C_R   0.196246 0.730480 0.034215 0.100273
C143  C     C_R   0.195284 0.267604 0.039574 0.101625
C144  C     C_R   0.804726 0.732381 0.960416 0.101838
C145  C     C_R   0.145560 0.832131 0.943721 -0.089905
C146  C     C_R   0.854227 0.167459 0.056519 -0.122489
C147  C     C_R   0.856583 0.826501 0.054982 -0.087335
C148  C     C_R   0.143423 0.173489 0.945013 -0.087180
C149  C     C_R   0.645560 0.332131 0.943721 -0.089905
C150  C     C_R   0.793930 0.226331 0.330354 0.563901
C151  C     C_R   0.354226 0.667458 0.056520 -0.122489
C152  C     C_R   0.356583 0.326501 0.054982 -0.087335
C153  C     C_R   0.643423 0.673489 0.945013 -0.087180
C154  C     C_R   0.120941 0.857320 0.892987 -0.031903
C155  C     C_R   0.878912 0.142451 0.107182 -0.025153
C156  C     C_R   0.882889 0.850174 0.104091 -0.021110
C157  C     C_R   0.117113 0.149823 0.895907 -0.021540
C158  C     C_R   0.620941 0.357320 0.892987 -0.031903
C159  C     C_R   0.378912 0.642451 0.107182 -0.025153
C160  C     C_R   0.382889 0.350174 0.104091 -0.021110
C161  C     C_R   0.206262 0.774054 0.669510 0.565591
C162  C     C_R   0.617113 0.649823 0.895907 -0.021540
C163  C     C_R   0.142747 0.840140 0.802621 -0.145250
C164  C     C_R   0.857329 0.160095 0.197356 -0.141192
C165  C     C_R   0.864251 0.828280 0.192457 -0.141397
C166  C     C_R   0.135749 0.171720 0.807543 -0.141863
C167  C     C_R   0.642747 0.340140 0.802621 -0.145250
C168  C     C_R   0.357329 0.660095 0.197356 -0.141192
C169  C     C_R   0.364251 0.328280 0.192457 -0.141397
C170  C     C_R   0.635749 0.671720 0.807543 -0.141863
C171  C     C_R   0.185655 0.793485 0.763933 -0.007004
C172  C     C_R   0.204488 0.229376 0.670749 0.551029
C173  C     C_R   0.814850 0.207454 0.235698 -0.005166
C174  C     C_R   0.818789 0.784522 0.233118 -0.018693
C175  C     C_R   0.181214 0.215473 0.766879 -0.018541
C176  C     C_R   0.685655 0.293485 0.763933 -0.007004
C177  C     C_R   0.314850 0.707453 0.235698 -0.005167
C178  C     C_R   0.318788 0.284522 0.233118 -0.018693
C179  C     C_R   0.681214 0.715473 0.766879 -0.018541
C180  C     C_R   0.210463 0.769075 0.814453 -0.125395
C181  C     C_R   0.790799 0.233154 0.184573 -0.124140
C182  C     C_R   0.793294 0.759365 0.183136 -0.130042
C183  C     C_R   0.795513 0.770622 0.329250 0.550838
C184  C     C_R   0.206714 0.240622 0.816857 -0.130124
C185  C     C_R   0.710463 0.269075 0.814453 -0.125395
C186  C     C_R   0.290799 0.733154 0.184573 -0.124140
C187  C     C_R   0.293294 0.259365 0.183136 -0.130041
C188  C     C_R   0.706714 0.740622 0.816858 -0.130124
C189  C     C_R   0.196637 0.631076 0.527211 0.559544
C190  C     C_R   0.803367 0.368921 0.472770 0.559114
C191  C     C_R   0.797869 0.631482 0.491595 0.555670
C192  C     C_R   0.202134 0.368516 0.508391 0.555740
C193  C     C_R   0.696637 0.131076 0.527211 0.559544
C194  C     C_R   0.401504 0.001422 0.491195 0.000272
C195  C     C_R   0.303368 0.868921 0.472770 0.559114
C196  C     C_R   0.297869 0.131482 0.491595 0.555670
C197  C     C_R   0.702134 0.868516 0.508391 0.555740
C198  C     C_R   0.191260 0.789443 0.903960 0.017235
C199  C     C_R   0.809724 0.212329 0.095240 -0.013956
C200  C     C_R   0.811495 0.781310 0.094455 0.024000
C201  C     C_R   0.188514 0.218675 0.905537 0.024041
C202  C     C_R   0.691260 0.289443 0.903960 0.017235
C203  C     C_R   0.309724 0.712329 0.095240 -0.013956
C204  C     C_R   0.311495 0.281310 0.094455 0.024000
Cu1   Cu    Cu3+1 0.209920 0.785290 0.495070 0.913705
Cu2   Cu    Cu3+1 0.504760 0.500000 0.075850 0.905294
Cu3   Cu    Cu3+1 0.995240 0.000000 0.924150 0.903705
Cu4   Cu    Cu3+1 0.004760 0.000000 0.075850 0.905295
Cu5   Cu    Cu3+1 0.790080 0.214710 0.504930 0.917093
Cu6   Cu    Cu3+1 0.790080 0.785290 0.504930 0.931782
Cu7   Cu    Cu3+1 0.209920 0.214710 0.495070 0.931554
Cu8   Cu    Cu3+1 0.709920 0.285290 0.495070 0.913705
Cu9   Cu    Cu3+1 0.290080 0.714710 0.504930 0.917094
Cu10  Cu    Cu3+1 0.290080 0.285290 0.504930 0.931782
Cu11  Cu    Cu3+1 0.709920 0.714710 0.495070 0.931554
Cu12  Cu    Cu3+1 0.495240 0.500000 0.924150 0.903705
H1    H     H_    0.603069 0.826460 0.290208 0.101491
H2    H     H_    0.733350 0.999315 0.520703 0.159382
H3    H     H_    0.619917 0.759651 0.140651 0.215509
H4    H     H_    0.766652 0.500683 0.479271 0.159311
H5    H     H_    0.233350 0.499315 0.520703 0.159382
H6    H     H_    0.294293 0.821808 0.858977 0.135283
H7    H     H_    0.706635 0.181782 0.140561 0.114306
H8    H     H_    0.706970 0.806325 0.149648 0.094815
H9    H     H_    0.293040 0.193662 0.850339 0.095480
H10   H     H_    0.794293 0.321808 0.858977 0.135283
H11   H     H_    0.206635 0.681781 0.140561 0.114306
H12   H     H_    0.206971 0.306326 0.149648 0.094815
H13   H     H_    0.396931 0.173500 0.709767 0.101380
H14   H     H_    0.793040 0.693663 0.850339 0.095480
H15   H     H_    0.130570 0.847657 0.013060 0.148603
H16   H     H_    0.868307 0.150091 0.988064 0.131583
H17   H     H_    0.869610 0.845492 0.987361 0.147019
H18   H     H_    0.130397 0.154497 0.012633 0.147103
H19   H     H_    0.630570 0.347657 0.013060 0.148603
H20   H     H_    0.368307 0.650090 0.988064 0.131583
H21   H     H_    0.369610 0.345492 0.987361 0.147019
H22   H     H_    0.630397 0.654497 0.012633 0.147103
H23   H     H_    0.125982 0.862935 0.762179 0.148994
H24   H     H_    0.523213 0.830796 0.275835 0.125291
H25   H     H_    0.873884 0.136998 0.237946 0.147718
H26   H     H_    0.883759 0.847979 0.231035 0.154641
H27   H     H_    0.116238 0.152027 0.768968 0.154514
H28   H     H_    0.625982 0.362935 0.762179 0.148994
H29   H     H_    0.373884 0.636998 0.237946 0.147719
H30   H     H_    0.383759 0.347979 0.231035 0.154641
H31   H     H_    0.616237 0.652027 0.768968 0.154514
H32   H     H_    0.245237 0.735141 0.784186 0.130860
H33   H     H_    0.756627 0.268147 0.214393 0.131737
H34   H     H_    0.758531 0.724211 0.213307 0.116644
H35   H     H_    0.476806 0.169195 0.724092 0.125325
H36   H     H_    0.241480 0.275772 0.786683 0.116492
H37   H     H_    0.745237 0.235141 0.784186 0.130860
H38   H     H_    0.256627 0.768146 0.214393 0.131737
H39   H     H_    0.258531 0.224211 0.213307 0.116644
H40   H     H_    0.741480 0.775772 0.786683 0.116492
H41   H     H_    0.682367 0.791967 0.301736 0.080269
H42   H     H_    0.676697 0.659127 0.305968 0.095228
H43   H     H_    0.611518 0.596601 0.443196 0.093543
H44   H     H_    0.550169 0.666532 0.575308 0.096729
H45   H     H_    0.553512 0.798682 0.570054 0.106012
H46   H     H_    0.103069 0.326459 0.290208 0.101491
H47   H     H_    0.446508 0.201291 0.429907 0.102218
H48   H     H_    0.449860 0.333441 0.424644 0.095412
H49   H     H_    0.388512 0.403381 0.556748 0.093807
H50   H     H_    0.323324 0.340865 0.693978 0.095257
H51   H     H_    0.317647 0.208026 0.698222 0.080579
H52   H     H_    0.438135 0.753284 0.356948 0.107193
H53   H     H_    0.454501 0.697820 0.213761 0.122082
H54   H     H_    0.444839 0.768725 0.097941 0.120152
H55   H     H_    0.418341 0.895651 0.126272 0.111974
H56   H     H_    0.408036 0.954299 0.264727 0.111593
H57   H     H_    0.896931 0.673500 0.709767 0.101381
H58   H     H_    0.591900 0.045898 0.735317 0.112383
H59   H     H_    0.581517 0.104716 0.873717 0.118339
H60   H     H_    0.555062 0.231670 0.901768 0.128041
H61   H     H_    0.545528 0.302431 0.785726 0.122016
H62   H     H_    0.561942 0.246778 0.642617 0.106618
H63   H     H_    0.182367 0.291967 0.301736 0.080269
H64   H     H_    0.176697 0.159127 0.305967 0.095228
H65   H     H_    0.111519 0.096601 0.443196 0.093543
H66   H     H_    0.050170 0.166531 0.575308 0.096729
H67   H     H_    0.053512 0.298682 0.570054 0.106012
H68   H     H_    0.023212 0.330795 0.275836 0.125290
H69   H     H_    0.946507 0.701291 0.429907 0.102218
H70   H     H_    0.949860 0.833441 0.424644 0.095412
H71   H     H_    0.888512 0.903381 0.556748 0.093807
H72   H     H_    0.823324 0.840865 0.693978 0.095257
H73   H     H_    0.817647 0.708026 0.698222 0.080579
H74   H     H_    0.938133 0.253284 0.356947 0.107194
H75   H     H_    0.954499 0.197822 0.213759 0.122083
H76   H     H_    0.944837 0.268729 0.097939 0.120152
H77   H     H_    0.918344 0.395656 0.126270 0.111974
H78   H     H_    0.908039 0.454302 0.264726 0.111593
H79   H     H_    0.976806 0.669196 0.724092 0.125326
H80   H     H_    0.091899 0.545899 0.735318 0.112383
H81   H     H_    0.081516 0.604718 0.873718 0.118339
H82   H     H_    0.055061 0.731672 0.901768 0.128041
H83   H     H_    0.045528 0.802432 0.785724 0.122016
H84   H     H_    0.061942 0.746778 0.642615 0.106618
H85   H     H_    0.120216 0.728416 0.133689 0.223166
H86   H     H_    0.139833 0.651715 0.074552 0.231932
H87   H     H_    0.862915 0.328186 0.980724 0.237286
H88   H     H_    0.884960 0.257105 0.910555 0.228248
H89   H     H_    0.880092 0.740334 0.859339 0.215197
H90   H     H_    0.266652 0.000683 0.479271 0.159312
H91   H     H_    0.862368 0.658130 0.906047 0.235104
H92   H     H_    0.137643 0.341857 0.093943 0.233111
H93   H     H_    0.119917 0.259653 0.140651 0.215509
H94   H     H_    0.620217 0.228417 0.133689 0.223167
H95   H     H_    0.639833 0.151715 0.074552 0.231932
H96   H     H_    0.362915 0.828186 0.980724 0.237286
H97   H     H_    0.384960 0.757105 0.910555 0.228248
H98   H     H_    0.380092 0.240333 0.859339 0.215197
H99   H     H_    0.362367 0.158129 0.906048 0.235104
H100  H     H_    0.637642 0.841856 0.093944 0.233111
N1    N     N_3   0.141312 0.707521 0.069253 -0.638151
N2    N     N_3   0.858872 0.300219 0.930133 -0.637383
N3    N     N_3   0.860089 0.712909 0.920107 -0.636416
N4    N     N_3   0.139921 0.287078 0.079882 -0.637039
N5    N     N_3   0.641312 0.207521 0.069253 -0.638151
N6    N     N_3   0.358872 0.800218 0.930133 -0.637383
N7    N     N_3   0.360088 0.212908 0.920108 -0.636416
N8    N     N_3   0.639921 0.787077 0.079883 -0.637039
O1    O     O_R   0.255040 0.869590 0.478480 -0.512961
O2    O     O_R   0.817950 0.203450 0.375560 -0.512022
O3    O     O_R   0.817950 0.796550 0.375560 -0.511804
O4    O     O_R   0.182050 0.203450 0.624440 -0.511791
O5    O     O_R   0.682050 0.296550 0.624440 -0.511900
O6    O     O_R   0.317950 0.703450 0.375560 -0.512021
O7    O     O_R   0.317950 0.296550 0.375560 -0.511804
O8    O     O_R   0.682050 0.703450 0.624440 -0.511791
O9    O     O_R   0.250530 0.763330 0.367210 -0.514259
O10   O     O_R   0.749470 0.236670 0.632790 -0.512881
O11   O     O_R   0.749470 0.763330 0.632790 -0.513734
O12   O     O_R   0.744960 0.130410 0.521520 -0.512253
O13   O     O_R   0.250530 0.236670 0.367210 -0.513814
O14   O     O_R   0.750530 0.263330 0.367210 -0.514259
O15   O     O_R   0.249470 0.736670 0.632790 -0.512881
O16   O     O_R   0.249470 0.263330 0.632790 -0.513734
O17   O     O_R   0.750530 0.736670 0.367210 -0.513815
O18   O     O_R   0.177260 0.690030 0.513710 -0.498384
O19   O     O_R   0.822740 0.309970 0.486290 -0.497767
O20   O     O_R   0.822740 0.690030 0.486290 -0.499464
O21   O     O_R   0.177260 0.309970 0.513710 -0.499545
O22   O     O_R   0.677260 0.190030 0.513710 -0.498383
O23   O     O_R   0.744960 0.869590 0.521520 -0.510970
O24   O     O_R   0.322740 0.809970 0.486290 -0.497767
O25   O     O_R   0.322740 0.190030 0.486290 -0.499464
O26   O     O_R   0.677260 0.809970 0.513710 -0.499545
O27   O     O_R   0.051640 0.926880 0.885090 -0.519482
O28   O     O_R   0.948360 0.073120 0.114910 -0.520063
O29   O     O_R   0.948360 0.926880 0.114910 -0.511189
O30   O     O_R   0.051640 0.073120 0.885090 -0.511822
O31   O     O_R   0.551640 0.426880 0.885090 -0.519482
O32   O     O_R   0.448360 0.573120 0.114910 -0.520062
O33   O     O_R   0.448360 0.426880 0.114910 -0.511189
O34   O     O_R   0.255040 0.130410 0.478480 -0.511056
O35   O     O_R   0.551640 0.573120 0.885090 -0.511823
O36   O     O_R   0.940620 0.926560 0.986760 -0.515087
O37   O     O_R   0.059380 0.073440 0.013240 -0.515181
O38   O     O_R   0.059380 0.926560 0.013240 -0.511336
O39   O     O_R   0.940620 0.073440 0.986760 -0.512213
O40   O     O_R   0.440620 0.426560 0.986760 -0.515087
O41   O     O_R   0.559380 0.573440 0.013240 -0.515182
O42   O     O_R   0.559380 0.426560 0.013240 -0.511336
O43   O     O_R   0.440620 0.573440 0.986760 -0.512213
O44   O     O_R   0.755040 0.369590 0.478480 -0.512961
O45   O     O_R   0.244960 0.630410 0.521520 -0.512253
O46   O     O_R   0.244960 0.369590 0.521520 -0.510969
O47   O     O_R   0.755040 0.630410 0.478480 -0.511056
O48   O     O_R   0.182050 0.796550 0.624440 -0.511900

loop_
_geom_bond_atom_site_label_1
_geom_bond_atom_site_label_2
_ccdc_geom_bond_type
C49   C113  A    
C105  C110  A    
H89   N3    S    
C31   C42   A    
C138  N8    S    
C196  O25   A    
C129  H7    S    
C66   H41   S    
C50   C79   A    
C14   C33   A    
C114  C115  A    
C19   C46   A    
C11   C159  S    
C16   C31   A    
Cu7   O13   S    
C124  C133  A    
C43   C194  A    
C50   C59   A    
C128  O11   A    
C186  H38   S    
C52   C61   A    
C7    O39   A    
Cu12  O31   S    
C106  C107  A    
C24   C42   A    
C108  C109  A    
C190  O19   A    
C131  C140  A    
C134  C143  A    
C13   C51   A    
C44   C53   A    
C183  O3    A    
Cu7   O34   S    
Cu4   O29   S    
C46   C72   S    
C172  C175  S    
C125  C140  A    
C24   C50   A    
C166  H27   S    
C147  C200  A    
Cu8   O44   S    
C164  H25   S    
C150  O14   A    
C27   H24   S    
C10   O42   A    
Cu4   O38   S    
H91   N3    S    
C127  C136  A    
C6    O27   A    
H92   N4    S    
Cu5   O2    S    
C179  C188  A    
Cu12  O43   S    
Cu10  O7    S    
C177  C186  A    
C120  C129  A    
C185  C202  A    
C91   H62   S    
C75   C76   A    
C164  C173  A    
C111  C113  S    
C7    O28   A    
C192  O21   A    
C180  H32   S    
Cu9   O24   S    
Cu10  O16   S    
C111  C118  A    
C130  C138  A    
Cu11  O8    S    
C163  H23   S    
C15   C30   A    
C75   H49   S    
C16   C25   A    
C184  H36   S    
C57   C78   S    
Cu6   O23   S    
C133  H11   S    
C72   C73   A    
C172  O4    A    
Cu10  O25   S    
C117  H83   S    
C118  H84   S    
C115  H81   S    
C106  H74   S    
Cu7   O4    S    
C22   H68   S    
C25   H46   S    
C161  O15   A    
C109  H77   S    
C48   C101  A    
C8    O40   A    
H85   N1    S    
C18   C38   A    
C69   C70   A    
C93   H63   S    
C67   H42   S    
C180  C198  A    
C94   H64   S    
C2    C40   A    
C129  C137  A    
C88   C89   A    
H100  N8    S    
C98   C99   A    
C161  O48   A    
C11   O32   A    
C125  C204  S    
C76   H50   S    
C123  C132  A    
C27   C29   A    
C119  C198  S    
C23   H57   S    
C121  C130  A    
C174  C182  A    
Cu9   O45   S    
H94   N5    S    
C139  O7    A    
C85   C86   A    
C133  C142  A    
C122  C201  S    
C195  O24   A    
Cu2   O41   S    
C51   C90   A    
C38   C39   A    
C137  N5    S    
C43   C52   A    
Cu6   Cu11  S    
C100  H70   S    
C120  C199  S    
Cu6   O11   S    
C197  O23   A    
C20   C35   A    
C152  H21   S    
C2    C44   A    
C95   H65   S    
C22   C25   A    
C107  C108  A    
C30   C41   A    
C169  H30   S    
C89   C91   A    
C149  C158  A    
C10   C158  S    
C55   C196  S    
Cu6   O3    S    
C68   C85   S    
C121  C144  A    
C87   H59   S    
C122  C143  A    
H95   N5    S    
C92   C97   A    
C2    C45   A    
C58   C64   A    
C103  H72   S    
C56   C190  S    
C124  C203  S    
C34   C39   A    
C188  H40   S    
C165  C174  A    
Cu1   O1    S    
C141  N2    S    
C151  C159  A    
C132  H10   S    
C1    O9    A    
C83   C84   A    
C89   H61   S    
C19   C28   A    
Cu8   O22   S    
C112  O5    A    
C145  C154  A    
C112  C176  S    
Cu7   O21   S    
C192  O46   A    
C181  C199  A    
C122  C131  A    
C197  O26   A    
C132  C141  A    
C184  C201  A    
C80   H52   S    
C120  C141  A    
C183  O17   A    
Cu3   O27   S    
C123  C137  A    
C170  C179  A    
C168  H29   S    
C14   C22   A    
C130  H8    S    
C182  H34   S    
Cu3   O39   S    
C145  C198  A    
C117  C118  A    
C108  H76   S    
Cu5   O19   S    
H96   N6    S    
C55   C61   A    
C186  C203  A    
C148  C157  A    
Cu2   O32   S    
C102  C103  A    
C43   C57   A    
C173  C181  A    
C161  C171  S    
C150  C173  S    
C51   C60   A    
C149  C202  A    
C73   H47   S    
Cu5   O10   S    
C172  O16   A    
C74   H48   S    
C125  C134  A    
C87   C88   A    
C114  H80   S    
C34   C37   A    
C53   C193  S    
C73   C74   A    
C21   H79   S    
H97   N6    S    
C9    O35   A    
H87   N2    S    
C13   C41   A    
C3    C126  S    
C112  O10   A    
C176  C185  A    
C110  H78   S    
C166  C175  A    
C149  H19   S    
C54   C197  S    
C153  H22   S    
Cu6   O20   S    
C97   H67   S    
C185  H37   S    
H93   N4    S    
C189  O18   A    
C35   C65   S    
C168  C177  A    
C104  H73   S    
Cu5   Cu8   S    
C190  O44   A    
C127  H6    S    
C150  O2    A    
C146  C155  A    
C158  C167  A    
C160  C169  A    
C70   C71   A    
C163  C171  A    
Cu3   O30   S    
C69   H43   S    
C70   H44   S    
C145  H15   S    
Cu1   Cu9   S    
C139  O13   A    
H3    N8    S    
C59   C192  S    
C52   C195  S    
C196  O34   A    
C6    O38   A    
C10   O31   A    
C124  C136  A    
Cu3   Cu4   S    
C182  C200  A    
C5    O30   A    
C86   C87   A    
C14   C101  A    
C54   C62   A    
C134  H12   S    
C63   H4    S    
C143  N4    S    
C121  C200  S    
C144  N3    S    
Cu4   O28   S    
Cu1   O48   S    
C18   C57   A    
H88   N2    S    
C162  C170  A    
C81   H53   S    
C78   C80   A    
C128  C179  S    
C5    O37   A    
C83   H55   S    
C147  C156  A    
C6    C154  S    
Cu5   O12   S    
C178  C187  A    
C4    C156  S    
C126  C135  A    
C5    C157  S    
C21   C23   A    
C193  O22   A    
C140  N7    S    
C170  H31   S    
C8    C160  S    
C86   H58   S    
C46   C47   A    
C17   C68   A    
Cu4   O37   S    
C174  C183  S    
C37   C40   A    
C105  C106  A    
C153  C162  A    
C16   C79   A    
C33   C41   A    
C36   C38   A    
Cu2   O42   S    
C109  C110  A    
C156  C165  A    
C187  C204  A    
C92   C93   A    
Cu1   O18   S    
C111  C114  A    
C148  H18   S    
C189  O45   A    
C94   C95   A    
Cu3   O36   S    
C20   C36   A    
H98   N7    S    
Cu12  O35   S    
C7    C155  S    
C82   C83   A    
C128  O8    A    
C103  C104  A    
C119  C142  A    
C32   C42   A    
C152  C204  A    
C165  H26   S    
C28   H13   S    
C115  C116  A    
C175  C184  A    
Cu8   O5    S    
C71   H45   S    
C152  C160  A    
C93   C94   A    
Cu1   O9    S    
C47   C194  A    
C95   C96   A    
Cu10  O46   S    
C3    C188  A    
C81   C82   A    
C85   C91   A    
C61   H90   S    
C146  H16   S    
C116  C117  A    
C59   C64   A    
Cu9   O6    S    
C60   C63   A    
C17   C26   A    
C62   H2    S    
Cu8   O14   S    
C3    C153  A    
C159  C168  A    
C146  C199  A    
H99   N7    S    
C1    C177  S    
C31   C33   A    
C136  N6    S    
C15   C23   A    
C116  H82   S    
C12   C32   A    
C4    O36   A    
C107  H75   S    
C148  C201  A    
C20   C29   A    
C99   H69   S    
C101  C105  S    
Cu12  O40   S    
C39   C194  A    
C74   C75   A    
C84   H56   S    
H86   N1    S    
Cu11  O26   S    
C154  C163  A    
C36   C40   A    
C76   C77   A    
C65   C71   A    
C12   C21   A    
C135  H14   S    
C96   H66   S    
C49   C58   A    
C77   H51   S    
C67   C69   A    
C102  H71   S    
C72   C77   A    
C53   C62   A    
C131  H9    S    
Cu11  O47   S    
C99   C100  A    
C191  O47   A    
C96   C97   A    
Cu7   Cu10  S    
C58   C189  S    
C100  C102  A    
Cu11  O17   S    
C56   C63   A    
C193  O12   A    
C17   C37   A    
Cu2   O33   S    
C79   C92   S    
C147  H17   S    
C135  C144  A    
C45   C54   A    
C65   C66   A    
C191  O20   A    
C171  C180  A    
C44   C68   A    
C1    O6    A    
C187  H39   S    
C169  C178  A    
C47   C55   A    
C12   C113  A    
Cu2   Cu12  S    
C24   C49   A    
C48   C56   A    
C126  C138  A    
C123  C202  S    
C142  N1    S    
C18   C27   A    
C151  C203  A    
C80   C81   A    
C195  O1    A    
C19   C34   A    
C157  C166  A    
C13   C48   A    
C155  C164  A    
C8    O33   A    
C26   C28   A    
C82   H54   S    
C88   H60   S    
C139  C178  S    
C181  H33   S    
C4    O29   A    
C15   C90   A    
C30   C32   A    
C60   C191  S    
C98   C104  A    
C151  H20   S    
Cu9   O15   S    
C29   H1    S    
C64   H5    S    
C66   C67   A    
C9    O41   A    
C9    C162  S    
C26   H35   S    
C11   O43   A    
C78   C84   A    
C167  H28   S    
C90   C98   S    
C119  C127  A    
C167  C176  A    
C35   C45   A    
