data_mof_unit_43762.cif
_audit_creation_date              2013-03-05T16:30:59-0500
_audit_creation_method            fapswitch 2.2
_symmetry_space_group_name_H-M    P1
_symmetry_Int_Tables_number       1
_space_group_crystal_system       triclinic
_cell_length_a                    13.004555
_cell_length_b                    10.851439
_cell_length_c                    9.547508
_cell_angle_alpha                 90.595745
_cell_angle_beta                  95.985043
_cell_angle_gamma                 90.232311
_cell_volume                      1339.89212764

loop_
_atom_site_label
_atom_site_type_symbol
_atom_site_description
_atom_site_fract_x
_atom_site_fract_y
_atom_site_fract_z
_atom_type_partial_charge
O1    O     O_R   0.500000 0.319640 0.618810 -0.579381
O2    O     O_R   0.500010 0.319680 0.381230 -0.586014
C1    C     C_R   0.497580 0.262533 0.499005 0.800079
O3    O     O_R   0.348990 0.499960 0.599490 -0.597037
O4    O     O_R   0.349000 0.500000 0.361910 -0.597320
C2    C     C_R   0.300543 0.499699 0.473845 0.798717
Cu1   Cu    Cu3+1 0.499990 0.499980 0.640670 0.956523
Cu2   Cu    Cu3+1 0.500010 0.500020 0.359330 0.950514
O5    O     O_R   0.499990 0.680320 0.618770 -0.578205
O6    O     O_R   0.500000 0.680360 0.381190 -0.590107
O7    O     O_R   0.651000 0.500000 0.638090 -0.582380
O8    O     O_R   0.651010 0.500040 0.400510 -0.585964
C3    C     C_R   0.499358 0.737759 0.500299 0.851186
C4    C     C_R   0.699469 0.499257 0.526155 0.842100
C5    C     C_R   0.812259 0.497753 0.541228 -0.041994
C6    C     C_R   0.187780 0.498697 0.458787 -0.048378
C7    C     C_R   0.024483 0.494870 0.311674 -0.197701
C8    C     C_R   0.131957 0.496282 0.324750 -0.190922
C9    C     C_R   0.135346 0.499673 0.579774 -0.255754
C10   C     C_R   0.027962 0.498396 0.567572 0.171815
C11   C     C_R   0.972117 0.496026 0.432489 0.175256
C12   C     C_R   0.864736 0.495133 0.420330 -0.249849
C13   C     C_R   0.868114 0.498829 0.675210 -0.155872
C14   C     C_R   0.975572 0.499310 0.688344 -0.195909
H1    H     H_    0.822336 0.492235 0.316490 0.145171
H2    H     H_    0.828976 0.499096 0.769779 0.147367
H3    H     H_    0.982436 0.493091 0.207483 0.135269
H4    H     H_    0.017576 0.500540 0.792559 0.132557
H5    H     H_    0.171194 0.495398 0.230108 0.149604
H6    H     H_    0.177817 0.501528 0.683732 0.145239
C15   C     C_R   0.489110 0.065777 0.622710 0.038400
C16   C     C_R   0.487656 0.129747 0.496819 -0.056697
C17   C     C_R   0.473999 0.063011 0.369146 -0.196442
H7    H     H_    0.466539 0.109669 0.268866 0.161181
C18   C     C_R   0.475454 0.934247 0.370265 -0.195264
H8    H     H_    0.467901 0.884900 0.270480 0.156808
C19   C     C_R   0.492078 0.871145 0.498932 -0.037838
C20   C     C_R   0.494598 0.939491 0.624066 0.014881
C21   C     C_3   0.564641 0.941608 0.760125 0.168148
C22   C     C_3   0.556022 0.081406 0.758418 -0.459131
H9    H     H_    0.528871 0.899268 0.848891 0.075298
H10   H     H_    0.512160 0.118665 0.843298 0.169729
H11   H     H_    0.629543 0.130916 0.745549 0.222179
C23   C     C_R   0.588299 0.526233 0.086610 0.247101
N1    N     N_R   0.500660 0.500930 0.148010 -0.184071
C24   C     C_R   0.415857 0.461492 0.061951 -0.083621
H12   H     H_    0.347217 0.431590 0.106970 0.136636
C25   C     C_R   0.415814 0.461579 0.913302 -0.075791
H13   H     H_    0.347102 0.431598 0.848378 0.138510
N2    N     N_R   0.500660 0.500890 0.852110 -0.185776
C26   C     C_R   0.588630 0.524956 0.939218 0.213478
C27   C     C_3   0.650122 0.640948 0.943278 -0.415989
C28   C     C_3   0.648875 0.643276 0.101856 -0.477415
H14   H     H_    0.728482 0.626954 0.909764 0.207444
H15   H     H_    0.605372 0.716144 0.889915 0.225928
H16   H     H_    0.726729 0.630726 0.159376 0.197430
H17   H     H_    0.603878 0.721311 0.140302 0.217551
N3    N     N_R   0.671501 0.902296 0.749590 0.137339
O9    O     O_R   0.699811 0.852732 0.635042 -0.368978
O10   O     O_R   0.739944 0.917391 0.857956 -0.359632

loop_
_geom_bond_atom_site_label_1
_geom_bond_atom_site_label_2
_geom_bond_distance
_ccdc_geom_bond_type
O4    Cu2   1.966537 S    
C13   C14   1.389962 A    
C15   C20   1.372652 A    
C19   C20   1.397027 A    
C7    C11   1.399295 A    
C3    C19   1.451009 S    
C15   C16   1.392702 A    
C27   H15   1.102155 S    
Cu2   O8    1.962050 S    
C16   C17   1.406158 A    
C9    C10   1.389181 A    
C22   H10   1.112211 S    
C17   H7    1.083299 S    
C5    C12   1.400936 A    
Cu1   Cu2   2.686128 S    
C21   H9    1.110986 S    
C8    H5    1.083021 S    
O1    Cu1   1.965890 S    
N1    C24   1.369079 A    
C27   C28   1.515744 S    
Cu1   O7    1.966539 S    
C21   N3    1.468446 S    
C1    C16   1.445900 S    
O3    Cu1   1.962050 S    
C23   C26   1.407605 A    
C25   N2    1.369865 A    
C25   H13   1.080046 S    
C18   C19   1.409964 A    
C27   H14   1.110006 S    
O6    C3    1.291717 A    
C7    C8    1.390194 A    
O2    C1    1.292951 A    
C6    C9    1.401222 A    
O4    C2    1.296044 A    
C17   C18   1.397626 A    
O7    C4    1.296079 A    
C24   C25   1.419184 A    
C13   H2    1.081699 S    
O3    C2    1.295492 A    
Cu2   N1    2.018604 S    
C5    C13   1.403544 A    
C2    C6    1.458450 S    
C26   C27   1.486479 S    
C7    H3    1.083974 S    
C14   H4    1.083922 S    
C20   C21   1.506704 S    
C10   C11   1.412537 A    
Cu2   O6    1.965888 S    
C24   H12   1.080445 S    
C28   H16   1.109921 S    
C21   C22   1.521722 S    
Cu1   O5    1.970247 S    
C28   H17   1.112011 S    
C4    C5    1.458992 S    
O5    C3    1.296426 A    
C15   C22   1.491254 S    
N2    C26   1.365023 A    
N3    O9    1.301621 A    
C11   C12   1.389130 A    
C9    H6    1.084329 S    
N3    O10   1.301063 A    
C23   C28   1.489634 S    
C10   C14   1.399106 A    
C22   H11   1.113380 S    
O2    Cu2   1.970247 S    
C23   N1    1.363126 A    
C18   H8    1.083275 S    
Cu1   N2    2.017757 S    
O8    C4    1.295699 A    
O1    C1    1.292663 A    
C12   H1    1.083117 S    
C6    C8    1.403850 A    
