data_mof_unit_43260.cif
_audit_creation_date              2012-12-10T17:09:16-0500
_audit_creation_method            fapswitch 2.2
_symmetry_space_group_name_H-M    P1
_symmetry_Int_Tables_number       1
_space_group_crystal_system       triclinic
_cell_length_a                    17.761292
_cell_length_b                    19.074064
_cell_length_c                    11.824217
_cell_angle_alpha                 89.898501
_cell_angle_beta                  75.697047
_cell_angle_gamma                 90.014583
_cell_volume                      3881.63334899

loop_
_atom_site_label
_atom_site_type_symbol
_atom_type_description
_atom_site_fract_x
_atom_site_fract_y
_atom_site_fract_z
_atom_type_partial_charge
C1    C     C_R   0.401994 0.102317 0.521286 0.845356
C2    C     C_R   0.596580 0.896721 0.479132 0.860320
C3    C     C_R   0.597985 0.102402 0.478571 0.844199
C4    C     C_R   0.403375 0.896744 0.521029 0.861654
C5    C     C_R   0.902143 0.602422 0.521164 0.851230
C6    C     C_R   0.096835 0.396908 0.479099 0.841913
C7    C     C_R   0.098189 0.602194 0.478641 0.840431
C8    C     C_R   0.903376 0.396703 0.521097 0.865854
C9    C     C_R   0.537872 0.001736 0.961661 -0.037406
C10   C     C_R   0.462105 0.001501 0.038362 -0.036785
C11   C     C_R   0.036711 0.503915 0.962526 -0.023212
C12   C     C_R   0.961288 0.502328 0.039012 -0.043287
C13   C     C_R   0.407653 0.999822 0.864924 0.132771
C14   C     C_R   0.592335 0.000010 0.135081 0.132359
C15   C     C_R   0.907495 0.502216 0.864804 0.135468
C16   C     C_R   0.092070 0.504155 0.134409 0.118603
C17   C     C_R   0.396492 0.001972 0.987477 -0.142291
C18   C     C_R   0.603489 0.002475 0.012537 -0.140918
C19   C     C_R   0.895909 0.502940 0.987718 -0.142201
C20   C     C_R   0.102077 0.511479 0.012334 -0.110346
C21   C     C_R   0.544827 0.000914 0.837292 0.139048
C22   C     C_R   0.455158 0.000612 0.162737 0.139046
C23   C     C_R   0.044423 0.497952 0.838487 0.133759
C24   C     C_R   0.954778 0.500298 0.163253 0.139461
C25   C     C_R   0.651518 0.162836 0.465160 -0.100058
C26   C     C_R   0.352474 0.834525 0.533520 -0.104802
C27   C     C_R   0.348076 0.162309 0.534686 -0.097588
C28   C     C_R   0.646911 0.834113 0.467101 -0.106684
C29   C     C_R   0.151510 0.662638 0.465777 -0.096767
C30   C     C_R   0.852864 0.334117 0.533714 -0.109608
C31   C     C_R   0.849063 0.663048 0.533862 -0.098604
C32   C     C_R   0.147149 0.334340 0.467193 -0.104535
C33   C     C_R   0.259660 0.754707 0.654745 0.073173
C34   C     C_R   0.744204 0.243453 0.344217 0.106874
C35   C     C_R   0.735083 0.750142 0.347415 0.077369
C36   C     C_R   0.253862 0.240635 0.656750 0.107916
C37   C     C_R   0.761947 0.252053 0.654017 0.076338
C38   C     C_R   0.242128 0.744942 0.345228 0.106299
C39   C     C_R   0.235985 0.250957 0.347266 0.075747
C40   C     C_R   0.759685 0.746106 0.653988 0.105187
C41   C     C_R   0.323565 0.800128 0.641830 -0.047777
C42   C     C_R   0.680917 0.197244 0.356731 -0.078368
C43   C     C_R   0.673059 0.797773 0.360136 -0.044737
C44   C     C_R   0.318295 0.195908 0.643428 -0.079202
C45   C     C_R   0.824280 0.299336 0.641901 -0.048129
C46   C     C_R   0.179075 0.698459 0.358200 -0.078341
C47   C     C_R   0.173791 0.298355 0.359938 -0.044846
C48   C     C_R   0.822598 0.699466 0.640777 -0.079860
C49   C     C_R   0.328700 0.812118 0.435488 -0.160351
C50   C     C_R   0.676538 0.183896 0.562893 -0.195867
C51   C     C_R   0.671917 0.812489 0.564592 -0.164003
C52   C     C_R   0.322188 0.182972 0.437416 -0.198449
C53   C     C_R   0.830119 0.310935 0.435283 -0.160395
C54   C     C_R   0.177830 0.682589 0.563090 -0.194709
C55   C     C_R   0.171312 0.312115 0.565203 -0.181985
C56   C     C_R   0.821671 0.682392 0.437264 -0.194753
C57   C     C_R   0.269546 0.762992 0.444140 0.063017
C58   C     C_R   0.735519 0.233188 0.554522 0.096270
C59   C     C_R   0.730662 0.763015 0.555913 0.064518
C60   C     C_R   0.263131 0.232213 0.446226 0.096036
C61   C     C_R   0.770987 0.261835 0.443612 0.064619
C62   C     C_R   0.234602 0.734059 0.555035 0.095121
C63   C     C_R   0.228284 0.260928 0.557155 0.072363
C64   C     C_R   0.763440 0.732417 0.445770 0.097313
Cu1   Cu    Cu3+1 0.507800 1.000000 0.383250 1.017755
Cu2   Cu    Cu3+1 0.492200 0.000000 0.616750 1.018407
Cu3   Cu    Cu3+1 0.007800 0.500000 0.383250 1.014117
Cu4   Cu    Cu3+1 0.992200 0.500000 0.616750 1.003699
H1    H     H_    0.649980 0.160470 0.645879 0.185646
H2    H     H_    0.356742 0.834002 0.352026 0.244300
H3    H     H_    0.348414 0.159567 0.354427 0.185718
H4    H     H_    0.645498 0.835562 0.647552 0.244722
H5    H     H_    0.155188 0.655825 0.644931 0.182538
H6    H     H_    0.858622 0.332532 0.351826 0.244909
H7    H     H_    0.845594 0.656935 0.355237 0.183207
H8    H     H_    0.146590 0.336743 0.647679 0.237971
N1    N     N_R   0.519530 0.000000 0.207810 -0.242051
N2    N     N_R   0.480470 0.000000 0.792190 -0.241875
N3    N     N_R   0.019530 0.500000 0.207810 -0.244975
N4    N     N_R   0.980470 0.500000 0.792190 -0.243014
O1    O     O_R   0.430030 0.075530 0.417420 -0.605883
O2    O     O_R   0.569970 0.924470 0.582580 -0.559072
O3    O     O_R   0.569970 0.075530 0.582580 -0.605913
O4    O     O_R   0.430030 0.924470 0.417420 -0.559469
O5    O     O_R   0.930030 0.575530 0.417420 -0.605455
O6    O     O_R   0.069970 0.424470 0.582580 -0.595060
O7    O     O_R   0.069970 0.575530 0.582580 -0.609628
O8    O     O_R   0.930030 0.424470 0.417420 -0.561242
O9    O     O_R   0.416860 0.075510 0.614610 -0.600466
O10   O     O_R   0.583140 0.924490 0.385390 -0.557176
O11   O     O_R   0.583140 0.075510 0.385390 -0.599873
O12   O     O_R   0.416860 0.924490 0.614610 -0.556156
O13   O     O_R   0.916860 0.575510 0.614610 -0.597788
O14   O     O_R   0.083140 0.424490 0.385390 -0.552953
O15   O     O_R   0.083140 0.575510 0.385390 -0.603248
O16   O     O_R   0.916860 0.424490 0.614610 -0.548677
C65   C     C_2   0.661013 0.001156 0.184697 0.514817
H9    H     H_    0.682043 0.050169 0.210903 0.019571
O17   O     O_2   0.698423 0.947866 0.187614 -0.519955
C66   C     C_2   0.338955 0.001477 0.815344 0.513737
H10   H     H_    0.318141 0.050695 0.789438 0.020499
O18   O     O_2   0.301171 0.948433 0.812363 -0.520414
C67   C     C_2   0.160835 0.504199 0.183275 0.567407
H11   H     H_    0.183064 0.552867 0.208881 0.019662
O19   O     O_2   0.197279 0.450266 0.185607 -0.525739
C68   C     C_2   0.838995 0.506008 0.815067 0.520822
H12   H     H_    0.817524 0.556366 0.794880 0.015288
O20   O     O_2   0.802029 0.453333 0.806003 -0.522631
C69   C     C_2   0.378680 0.000415 0.246269 0.451636
H13   H     H_    0.352905 0.048924 0.283713 0.048099
O21   O     O_2   0.340703 0.946667 0.266453 -0.521095
C70   C     C_2   0.621311 0.001316 0.753823 0.453176
H14   H     H_    0.646979 0.050102 0.717047 0.047022
O22   O     O_2   0.659494 0.947785 0.733189 -0.521823
C71   C     C_2   0.878386 0.497627 0.246837 0.449353
H15   H     H_    0.851920 0.544815 0.288651 0.049029
O23   O     O_2   0.841219 0.443315 0.262529 -0.521908
C72   C     C_2   0.120559 0.481424 0.759216 0.388056
H16   H     H_    0.143419 0.510869 0.680493 0.093157
O24   O     O_2   0.159916 0.433829 0.782582 -0.513723
C73   C     C_2   0.643361 0.189745 0.258319 0.439986
H17   H     H_    0.678054 0.181081 0.170213 0.079733
O25   O     O_2   0.573038 0.195750 0.274542 -0.494340
C74   C     C_2   0.363279 0.805696 0.738343 0.517875
H18   H     H_    0.330299 0.809159 0.828405 0.145673
O26   O     O_2   0.434087 0.803538 0.718058 -0.519879
C75   C     C_2   0.356778 0.189422 0.741101 0.438208
H19   H     H_    0.322946 0.180673 0.829713 0.081902
O27   O     O_2   0.427095 0.196290 0.723565 -0.495129
C76   C     C_2   0.632587 0.804288 0.264677 0.516964
H20   H     H_    0.665234 0.808004 0.174396 0.145529
O28   O     O_2   0.561713 0.802898 0.286095 -0.521698
C77   C     C_2   0.140151 0.691731 0.261140 0.438868
H21   H     H_    0.173946 0.684263 0.172175 0.083047
O29   O     O_2   0.069629 0.696990 0.279566 -0.493925
C78   C     C_2   0.862402 0.307073 0.739727 0.522519
H22   H     H_    0.828083 0.312759 0.828757 0.145367
O30   O     O_2   0.933076 0.304444 0.721873 -0.513294
C79   C     C_2   0.862977 0.693547 0.736366 0.439645
H23   H     H_    0.830164 0.687484 0.826224 0.082818
O31   O     O_2   0.933684 0.697879 0.715606 -0.492285
C80   C     C_2   0.133998 0.305262 0.263780 0.519419
H24   H     H_    0.167130 0.309688 0.173850 0.143146
O32   O     O_2   0.063176 0.303340 0.284173 -0.517287
I1    I     I_    0.708862 0.210289 0.824321 -0.371801
I2    I     I_    0.292441 0.789039 0.175378 -0.179847
I3    I     I_    0.287325 0.208415 0.177233 -0.374425
I4    I     I_    0.711575 0.791682 0.823066 -0.182689
I5    I     I_    0.197914 0.723652 0.827331 -0.333436
I6    I     I_    0.796318 0.286106 0.173883 -0.183357
I7    I     I_    0.785240 0.706626 0.177751 -0.376742
I8    I     I_    0.194889 0.273878 0.829770 -0.196657
C81   C     C_2   0.315086 0.009251 0.057739 0.414211
H25   H     H_    0.297414 0.055829 0.109498 0.070886
O33   O     O_2   0.267539 0.962904 0.058485 -0.422333
C82   C     C_2   0.684850 0.010403 0.942299 0.411757
H26   H     H_    0.702195 0.057193 0.890629 0.070557
O34   O     O_2   0.732740 0.964381 0.941496 -0.422796
C83   C     C_2   0.814401 0.509186 0.058060 0.417133
H27   H     H_    0.796700 0.554222 0.113658 0.070915
O35   O     O_2   0.766762 0.463566 0.054723 -0.427090
C84   C     C_2   0.178472 0.537124 0.940506 0.425306
H28   H     H_    0.179728 0.573886 0.870479 0.068031
O36   O     O_2   0.240185 0.515867 0.955259 -0.460313

loop_
_geom_bond_atom_site_label_1
_geom_bond_atom_site_label_2
_ccdc_geom_bond_type
Cu4   N4    S    
C6    C32   S    
C44   C75   S    
C7    C29   S    
Cu4   O6    S    
C14   C18   A    
C30   C45   A    
C53   H6    S    
C34   C42   A    
C17   C81   S    
C23   C72   S    
C70   O22   D    
C65   H9    S    
C34   I6    S    
C57   C62   A    
C10   C22   A    
C15   C19   A    
C47   C80   S    
C59   C64   A    
Cu4   O16   S    
C60   C63   A    
C15   C68   S    
C39   C47   A    
C82   H26   S    
C50   H1    S    
C69   O21   D    
C28   C51   A    
C29   C54   A    
C10   C17   A    
C1    O1    A    
C71   H15   S    
C38   C57   A    
C49   C57   A    
C73   O25   D    
C3    O11   A    
C14   N1    A    
C2    O10   A    
C40   C48   A    
C25   C50   A    
C38   I2    S    
C5    C31   S    
C8    O16   A    
C52   C60   A    
Cu2   O3    S    
C72   H16   S    
C53   C61   A    
C27   C44   A    
C7    O7    A    
C83   H27   S    
C33   C62   A    
C6    O14   A    
C55   C63   A    
C21   N2    A    
Cu3   O14   S    
C56   C64   A    
C35   C64   A    
C31   C56   A    
C81   O33   D    
C36   C63   A    
C35   C43   A    
C9    C10   A    
C32   C55   A    
C37   C58   A    
C5    O5    A    
C5    O13   A    
C58   C61   A    
C56   H7    S    
Cu3   O15   S    
C35   I7    S    
C70   H14   S    
C65   O17   D    
Cu2   O9    S    
C84   O36   D    
Cu1   O10   S    
Cu2   N2    S    
C30   C53   A    
C11   C20   A    
Cu3   O5    S    
Cu1   N1    S    
C40   I4    S    
Cu3   Cu4   S    
C50   C58   A    
C3    C25   S    
Cu3   N3    S    
C78   O30   D    
C26   C49   A    
C36   I8    S    
Cu1   O4    S    
Cu2   O12   S    
C54   C62   A    
C71   O23   D    
C34   C61   A    
C24   N3    A    
C8    O8    A    
C76   O28   D    
C75   O27   D    
Cu2   O2    S    
C54   H5    S    
C16   C67   S    
Cu1   O1    S    
C15   N4    A    
C4    O4    A    
C16   C20   A    
C22   C69   S    
C20   C84   S    
C19   C83   S    
C66   O18   D    
Cu3   O8    S    
C67   O19   D    
C79   O31   D    
C73   H17   S    
C55   H8    S    
C31   C48   A    
C3    O3    A    
C77   H21   S    
C23   N4    A    
C32   C47   A    
C80   O32   D    
C36   C44   A    
C51   C59   A    
C51   H4    S    
C37   C45   A    
C75   H19   S    
C21   C70   S    
C18   C82   S    
C27   C52   A    
C41   C74   S    
C14   C65   S    
C74   O26   D    
C84   H28   S    
Cu1   O11   S    
C13   N2    A    
C45   C78   S    
C1    O9    A    
C48   C79   S    
C43   C76   S    
C22   N1    A    
C78   H22   S    
C25   C42   A    
C4    C26   S    
C11   C12   A    
C7    O15   A    
C12   C24   A    
C28   C43   A    
Cu4   O13   S    
C6    O6    A    
C13   C17   A    
C29   C46   A    
C49   H2    S    
C16   N3    A    
C33   C41   A    
C13   C66   S    
C82   O34   D    
C76   H20   S    
C8    C30   S    
C1    C27   S    
C52   H3    S    
C33   I5    S    
C69   H13   S    
C46   C77   S    
Cu4   O7    S    
C79   H23   S    
C9    C21   A    
C68   O20   D    
C39   C60   A    
C12   C19   A    
C11   C23   A    
C66   H10   S    
C72   O24   D    
C38   C46   A    
C2    O2    A    
C9    C18   A    
C42   C73   S    
C24   C71   S    
Cu1   Cu2   S    
C68   H12   S    
C39   I3    S    
C67   H11   S    
C40   C59   A    
C77   O29   D    
C80   H24   S    
C2    C28   S    
C37   I1    S    
C81   H25   S    
C83   O35   D    
C26   C41   A    
C74   H18   S    
C4    O12   A    
