data_mof_unit_24860.cif
_audit_creation_date              2012-12-11T14:22:55-0500
_audit_creation_method            fapswitch 2.2
_symmetry_space_group_name_H-M    P1
_symmetry_Int_Tables_number       1
_space_group_crystal_system       triclinic
_cell_length_a                    10.97819
_cell_length_b                    10.953407
_cell_length_c                    18.864251
_cell_angle_alpha                 90.398855
_cell_angle_beta                  89.885395
_cell_angle_gamma                 60.486322
_cell_volume                      1973.96141571

loop_
_atom_site_label
_atom_site_type_symbol
_atom_type_description
_atom_site_fract_x
_atom_site_fract_y
_atom_site_fract_z
_atom_type_partial_charge
C1    C     C_R   0.237887 0.644923 0.610308 0.531369
C2    C     C_3   0.691618 0.540035 0.798972 -0.259765
C3    C     C_3   0.698813 0.674774 0.812510 0.038487
C4    C     C_3   0.669848 0.649616 0.676574 0.071279
C5    C     C_3   0.804457 0.660365 0.688765 -0.106028
C6    C     C_3   0.682074 0.521306 0.719052 -0.230586
C7    C     C_R   0.690276 0.158460 0.823686 -0.007034
C8    C     C_R   0.806145 0.140448 0.781615 -0.037119
C9    C     C_R   0.794894 0.141798 0.706284 -0.003635
C10   C     C_R   0.551903 0.201111 0.718283 -0.123466
C11   C     C_R   0.563014 0.196049 0.790178 0.328950
C12   C     C_R   0.652294 0.620762 0.601739 0.544564
C13   C     C_R   0.932220 0.121681 0.811253 -0.094701
C14   C     C_R   0.045769 0.095017 0.768010 -0.141501
C15   C     C_R   0.036556 0.088187 0.694890 -0.136576
C16   C     C_R   0.913915 0.107653 0.664217 -0.080448
C17   C     C_R   0.664653 0.177367 0.675184 -0.074120
C18   C     C_R   0.187270 0.659442 0.835761 -0.006289
C19   C     C_R   0.186744 0.547414 0.797473 0.025040
C20   C     C_R   0.183288 0.550233 0.722081 0.017161
C21   C     C_R   0.214971 0.754239 0.726429 -0.155618
C22   C     C_R   0.211786 0.755121 0.799421 -0.154480
C23   C     C_R   0.628392 0.227602 0.602471 0.532614
C24   C     C_R   0.186339 0.434096 0.832392 -0.004476
C25   C     C_R   0.168398 0.334630 0.795109 -0.060950
C26   C     C_R   0.154190 0.343143 0.722024 -0.154249
C27   C     C_R   0.161093 0.449540 0.685714 -0.123763
C28   C     C_R   0.200095 0.654751 0.686226 -0.006209
C29   C     C_R   0.652060 0.674123 0.168356 -0.007537
C30   C     C_R   0.715828 0.538874 0.196982 -0.031564
C31   C     C_R   0.746617 0.523950 0.269831 0.024392
C32   C     C_R   0.590829 0.775007 0.287087 -0.148882
C33   C     C_R   0.594698 0.791481 0.214154 -0.144791
C34   C     C_R   0.219863 0.652121 0.401534 0.543168
C35   C     C_R   0.771610 0.418996 0.152367 -0.054265
C36   C     C_R   0.884386 0.294506 0.174554 0.373553
C37   C     C_R   0.929619 0.283003 0.243873 -0.126831
C38   C     C_R   0.862033 0.394592 0.291327 -0.153421
C39   C     C_R   0.665997 0.641558 0.316233 0.016879
C40   C     C_R   0.656697 0.155301 0.176586 0.001583
C41   C     C_R   0.522960 0.216876 0.207048 0.011678
C42   C     C_R   0.513151 0.202873 0.280255 0.038603
C43   C     C_R   0.764074 0.118063 0.292211 -0.174372
C44   C     C_R   0.776525 0.099517 0.219900 -0.128526
C45   C     C_R   0.643658 0.619523 0.391215 0.543270
C46   C     C_R   0.400353 0.277983 0.165391 -0.087683
C47   C     C_R   0.274942 0.297379 0.192871 -0.111554
C48   C     C_R   0.267165 0.267861 0.263432 -0.142331
C49   C     C_R   0.384587 0.218529 0.306482 -0.086051
C50   C     C_R   0.633014 0.173113 0.323149 0.005639
C51   C     C_R   0.147433 0.669942 0.183693 -0.006784
C52   C     C_R   0.209360 0.742752 0.214635 0.023817
C53   C     C_R   0.185486 0.774663 0.286770 0.038590
C54   C     C_R   0.108706 0.601932 0.299951 -0.151403
C55   C     C_R   0.091324 0.605304 0.226981 -0.142258
C56   C     C_R   0.614391 0.228655 0.395007 0.548101
C57   C     C_R   0.273876 0.803140 0.173658 -0.060089
C58   C     C_R   0.285692 0.915120 0.200399 -0.071161
C59   C     C_R   0.246364 0.958686 0.269891 -0.135019
C60   C     C_R   0.191283 0.893949 0.311803 -0.088721
C61   C     C_R   0.158836 0.684341 0.330626 0.000263
C62   C     C_R   0.703288 0.102116 0.895949 0.556125
C63   C     C_R   0.723562 0.687915 0.888395 0.537978
C64   C     C_R   0.120560 0.703821 0.906239 0.525488
C65   C     C_R   0.676459 0.106270 0.103982 0.535278
C66   C     C_R   0.694945 0.690769 0.097231 0.525938
C67   C     C_3   0.561701 0.802766 0.785419 -0.231628
C68   C     C_R   0.093685 0.708397 0.112449 0.522487
C69   C     C_3   0.541002 0.783219 0.706452 -0.235953
C70   C     C_3   0.823075 0.668693 0.769864 -0.212118
Cr1   Cr    Cr6+3 0.392940 0.397950 0.502230 0.995379
Cr2   Cr    Cr6+3 0.398400 0.708500 0.501260 0.994966
Cr3   Cr    Cr6+3 0.708640 0.393530 0.496460 0.989814
Cr4   Cr    Cr6+3 0.937880 0.938320 0.007620 1.069434
Cr5   Cr    Cr6+3 0.625560 0.937220 0.994510 1.035185
Cr6   Cr    Cr6+3 0.938080 0.625010 0.001190 1.008846
H1    H     H_    0.567102 0.901054 0.792224 0.170812
H2    H     H_    0.777170 0.422948 0.702012 0.154815
H3    H     H_    0.920369 0.574491 0.785859 0.145135
H4    H     H_    0.893751 0.561461 0.668568 0.146825
H5    H     H_    0.450156 0.229523 0.696779 0.183194
H6    H     H_    0.944547 0.131944 0.867226 0.152557
H7    H     H_    0.143912 0.073321 0.791377 0.098303
H8    H     H_    0.126487 0.063587 0.661719 0.099977
H9    H     H_    0.915048 0.092336 0.607531 0.130453
H10   H     H_    0.231478 0.832237 0.701089 0.139771
H11   H     H_    0.470003 0.814908 0.816469 0.120330
H12   H     H_    0.207749 0.415671 0.888341 0.164942
H13   H     H_    0.220089 0.837048 0.827562 0.136117
H14   H     H_    0.168134 0.250293 0.823884 0.123996
H15   H     H_    0.138382 0.267271 0.692882 0.112851
H16   H     H_    0.140508 0.454914 0.629658 0.134722
H17   H     H_    0.535109 0.866616 0.320938 0.120263
H18   H     H_    0.738386 0.425869 0.097788 0.136785
H19   H     H_    0.554865 0.896407 0.193693 0.143625
H20   H     H_    0.016788 0.186919 0.261430 0.121207
H21   H     H_    0.448395 0.770154 0.701091 0.134911
H22   H     H_    0.912156 0.379140 0.342024 0.145926
H23   H     H_    0.856565 0.088003 0.324002 0.118410
H24   H     H_    0.402051 0.305619 0.110559 0.132301
H25   H     H_    0.881340 0.040828 0.198141 0.206211
H26   H     H_    0.183978 0.334627 0.159233 0.138686
H27   H     H_    0.169558 0.283629 0.285316 0.093337
H28   H     H_    0.373126 0.185395 0.358590 0.135424
H29   H     H_    0.080221 0.538544 0.332382 0.119946
H30   H     H_    0.306086 0.770448 0.119293 0.120969
H31   H     H_    0.032978 0.558550 0.204589 0.145541
H32   H     H_    0.519253 0.878308 0.676086 0.120476
H33   H     H_    0.323524 0.969234 0.166902 0.133815
H34   H     H_    0.256850 0.043626 0.291845 0.096176
H35   H     H_    0.149340 0.942107 0.362826 0.128319
H36   H     H_    0.835350 0.760845 0.784432 0.118494
H37   H     H_    0.786165 0.446979 0.820089 0.139604
H38   H     H_    0.598546 0.546707 0.826340 0.123961
H39   H     H_    0.590214 0.506699 0.708357 0.131013
O1    O     O_R   0.507340 0.255690 0.581430 -0.530674
O2    O     O_R   0.524510 0.695820 0.424050 -0.495849
O3    O     O_R   0.736370 0.504260 0.414810 -0.538078
O4    O     O_R   0.691220 0.277270 0.422180 -0.499193
O5    O     O_3   0.499990 0.499990 0.499980 -0.239126
O6    O     O_R   0.089570 0.825450 0.930590 -0.519223
O7    O     O_R   0.818700 0.054260 0.929860 -0.526224
O8    O     O_R   0.606310 0.077010 0.915520 -0.437313
O9    O     O_R   0.646730 0.806540 0.917560 -0.507853
O10   O     O_R   0.837290 0.593240 0.915240 -0.529198
O11   O     O_R   0.065320 0.635310 0.931580 -0.527032
O12   O     O_R   0.280360 0.527380 0.578910 -0.513303
O13   O     O_R   0.068470 0.828620 0.091850 -0.494429
O14   O     O_R   0.799150 0.057200 0.079350 -0.452577
O15   O     O_R   0.585220 0.080180 0.076770 -0.535717
O16   O     O_R   0.627170 0.809480 0.067050 -0.509283
O17   O     O_R   0.816200 0.596410 0.076500 -0.515313
O18   O     O_R   0.045770 0.638240 0.081070 -0.512534
O19   O     O_3   0.833840 0.833520 0.001110 -0.261786
O20   O     O_R   0.260600 0.739610 0.584580 -0.534305
O21   O     O_R   0.532370 0.695050 0.573830 -0.515101
O22   O     O_R   0.744850 0.503430 0.576380 -0.535126
O23   O     O_R   0.699080 0.276500 0.571950 -0.509901
O24   O     O_R   0.498860 0.256520 0.419860 -0.539004
O25   O     O_R   0.272490 0.528150 0.429140 -0.496771
O26   O     O_R   0.252110 0.740440 0.423010 -0.533735
F1    F     F_    0.448247 0.219334 0.827167 -0.658784
F2    F     F_    0.954070 0.187245 0.127879 -0.647035
C71   C     C_3   0.810262 0.783567 0.651162 -0.299648
C72   C     C_3   0.825211 0.768627 0.570526 -0.427370
H40   H     H_    0.906011 0.660590 0.554934 0.153310
H41   H     H_    0.723775 0.795400 0.545640 0.162426
H42   H     H_    0.857749 0.843059 0.549924 0.134466
H43   H     H_    0.718462 0.886084 0.665378 0.155001
H44   H     H_    0.903608 0.787694 0.670709 0.154123

loop_
_geom_bond_atom_site_label_1
_geom_bond_atom_site_label_2
_ccdc_geom_bond_type
C45   O3    A    
C34   O26   A    
C8    C13   A    
Cr3   O4    S    
C58   H33   S    
Cr6   O11   S    
C41   C42   A    
C23   O23   A    
C35   C36   A    
C67   H1    S    
C38   H22   S    
C49   H28   S    
C63   O9    A    
Cr5   O19   S    
C7    C8    A    
C7    C11   A    
C26   C27   A    
C17   C23   S    
Cr1   O5    S    
Cr5   O8    S    
C36   C37   A    
C36   F2    S    
C43   H23   S    
C72   H40   S    
C30   C31   A    
C2    H37   S    
Cr2   O21   S    
Cr3   O23   S    
C10   C17   A    
C15   C16   A    
C29   C33   A    
C59   H34   S    
C18   C19   A    
C32   C39   A    
C4    C69   S    
C71   H44   S    
C23   O1    A    
C54   C55   A    
C53   C61   A    
C69   H32   S    
Cr4   O13   S    
C19   C20   A    
C8    C9    A    
Cr2   O2    S    
C1    C28   S    
C41   C46   A    
C4    C12   S    
C68   O13   A    
C54   H29   S    
Cr5   O15   S    
C39   C45   S    
C68   O18   A    
C57   H30   S    
C59   C60   A    
Cr3   O5    S    
C13   C14   A    
Cr6   O10   S    
Cr1   O12   S    
C2    C6    S    
C14   H7    S    
C33   H19   S    
C62   O8    A    
C72   H41   S    
C53   C60   A    
Cr5   O16   S    
C65   O15   A    
C66   O17   A    
Cr2   O26   S    
C54   C61   A    
Cr5   O9    S    
C3    C70   S    
C24   C25   A    
C4    C6    S    
C10   C11   A    
C56   O24   A    
Cr6   O19   S    
C4    C5    S    
C5    C71   S    
Cr1   O24   S    
C20   C28   A    
C26   H15   S    
C48   H27   S    
C13   H6    S    
C34   C61   S    
C50   C56   S    
C51   C52   A    
C37   H20   S    
C55   H31   S    
C67   C69   S    
C37   C38   A    
C43   C44   A    
C7    C62   S    
C29   C30   A    
C47   C48   A    
C14   C15   A    
Cr6   O18   S    
C32   H17   S    
Cr2   O5    S    
C25   H14   S    
C27   H16   S    
C5    H4    S    
C24   H12   S    
C63   O10   A    
C70   H36   S    
C42   C50   A    
C30   C35   A    
C9    C17   A    
C40   C41   A    
Cr4   O7    S    
C21   C28   A    
C64   O11   A    
C40   C65   S    
C16   H9    S    
C56   O4    A    
C58   C59   A    
C62   O7    A    
C72   H42   S    
C52   C53   A    
C66   O16   A    
C35   H18   S    
C45   O2    A    
C46   H24   S    
C46   C47   A    
C48   C49   A    
Cr1   O25   S    
Cr3   O3    S    
C71   H43   S    
C70   H3    S    
C18   C22   A    
C9    C16   A    
C3    C67   S    
C1    O12   A    
C71   C72   S    
Cr2   O20   S    
C5    C70   S    
C21   H10   S    
C65   O14   A    
C44   H25   S    
C43   C50   A    
C15   H8    S    
C20   C27   A    
C3    C63   S    
C10   H5    S    
C67   H11   S    
C31   C38   A    
C32   C33   A    
C2    C3    S    
C25   C26   A    
C60   H35   S    
C1    O20   A    
Cr6   O17   S    
C2    H38   S    
C18   C64   S    
C57   C58   A    
Cr3   O22   S    
Cr4   O19   S    
C34   O25   A    
C22   H13   S    
C31   C39   A    
Cr1   O1    S    
C19   C24   A    
C51   C55   A    
C51   C68   S    
C11   F1    S    
C6    H39   S    
C6    H2    S    
C52   C57   A    
C42   C49   A    
C29   C66   S    
C40   C44   A    
Cr4   O6    S    
C12   O21   A    
Cr4   O14   S    
C47   H26   S    
C12   O22   A    
C21   C22   A    
C64   O6    A    
C69   H21   S    
