data_mof_unit_33867.cif
_audit_creation_date              2012-12-10T17:45:59-0500
_audit_creation_method            fapswitch 2.2
_symmetry_space_group_name_H-M    P1
_symmetry_Int_Tables_number       1
_space_group_crystal_system       triclinic
_cell_length_a                    15.089357
_cell_length_b                    13.660323
_cell_length_c                    27.834255
_cell_angle_alpha                 90.19561
_cell_angle_beta                  89.598149
_cell_angle_gamma                 90.054684
_cell_volume                      5737.1724328

loop_
_atom_site_label
_atom_site_type_symbol
_atom_type_description
_atom_site_fract_x
_atom_site_fract_y
_atom_site_fract_z
_atom_type_partial_charge
C1    C     C_R   0.328479 0.499934 0.500143 0.807553
C2    C     C_R   0.671582 0.500069 0.500142 0.820080
C3    C     C_R   0.505979 0.472735 0.101999 -0.046099
C4    C     C_R   0.509893 0.466135 0.898417 -0.045970
C5    C     C_R   0.429986 0.442753 0.127698 -0.020936
C6    C     C_R   0.588362 0.487430 0.872799 -0.020676
C7    C     C_R   0.356273 0.408470 0.102714 -0.150408
C8    C     C_R   0.666281 0.506485 0.897894 -0.150184
C9    C     C_R   0.580233 0.506896 0.127470 -0.020256
C10   C     C_R   0.431660 0.446347 0.872837 -0.020205
C11   C     C_R   0.497264 0.498458 0.354246 -0.086648
C12   C     C_R   0.503053 0.498109 0.646408 -0.114676
C13   C     C_R   0.430301 0.441341 0.974745 0.041601
C14   C     C_R   0.585706 0.496775 0.025666 0.041575
C15   C     C_R   0.587972 0.490277 0.974700 0.041546
C16   C     C_R   0.430644 0.438517 0.025789 0.041727
C17   C     C_R   0.509447 0.465635 0.949495 0.067043
C18   C     C_R   0.507510 0.469145 0.050946 0.067181
C19   C     C_R   0.352868 0.422255 0.947834 -0.206738
C20   C     C_R   0.658701 0.531720 0.052438 -0.206889
C21   C     C_R   0.353730 0.424801 0.897958 -0.152284
C22   C     C_R   0.655821 0.536605 0.102269 -0.152540
C23   C     C_R   0.498529 0.499967 0.407330 0.802357
C24   C     C_R   0.500353 0.500201 0.592914 0.806162
C25   C     C_R   0.356459 0.406157 0.052825 -0.207238
C26   C     C_R   0.666328 0.507735 0.947790 -0.207529
C27   C     C_R   0.814513 0.588604 0.506303 -0.255267
C28   C     C_R   0.185746 0.411006 0.496508 -0.256954
C29   C     C_R   0.768410 0.500276 0.500908 -0.074587
C30   C     C_R   0.231758 0.499584 0.500644 -0.066451
C31   C     C_R   0.814674 0.412092 0.496676 -0.232767
C32   C     C_R   0.185523 0.587461 0.505777 -0.241648
C33   C     C_R   0.906890 0.411340 0.497258 0.082623
C34   C     C_R   0.093398 0.587643 0.506599 0.094061
C35   C     C_R   0.953640 0.500159 0.502187 0.031037
C36   C     C_R   0.046534 0.498685 0.501993 0.040580
C37   C     C_R   0.907385 0.590207 0.507373 0.088646
C38   C     C_R   0.092768 0.408612 0.497229 0.067336
C39   C     C_R   0.952225 0.322368 0.493150 -0.218920
C40   C     C_R   0.048071 0.676005 0.512498 -0.253474
C41   C     C_R   0.045321 0.318875 0.493470 0.086057
C42   C     C_R   0.955442 0.678758 0.513619 0.089475
C43   C     C_R   0.437296 0.793328 0.526088 -0.011911
C44   C     C_R   0.561226 0.206670 0.472904 0.006931
C45   C     C_R   0.561107 0.793059 0.472843 -0.005294
C46   C     C_R   0.437696 0.206924 0.526362 0.000099
C47   C     C_R   0.429742 0.447287 0.178084 0.521012
C48   C     C_R   0.586938 0.489403 0.822397 0.519702
C49   C     C_R   0.561913 0.896162 0.471764 -0.003795
C50   C     C_R   0.435267 0.103808 0.526364 -0.003711
C51   C     C_R   0.434840 0.896447 0.526068 -0.000432
C52   C     C_R   0.562200 0.103527 0.471915 -0.001581
C53   C     C_R   0.498581 0.948127 0.499054 0.087742
C54   C     C_R   0.498711 0.051841 0.499132 0.087333
C55   C     C_R   0.624070 0.948265 0.444053 -0.214919
C56   C     C_R   0.370886 0.051687 0.552573 -0.203458
C57   C     C_R   0.370326 0.948882 0.552150 -0.213238
C58   C     C_R   0.624520 0.051094 0.444293 -0.207802
C59   C     C_R   0.576794 0.511367 0.177828 0.531193
C60   C     C_R   0.432907 0.450240 0.822460 0.530275
C61   C     C_R   0.536114 0.408467 0.280960 0.130136
C62   C     C_R   0.517701 0.395024 0.717922 0.127713
C63   C     C_R   0.533815 0.416130 0.331044 -0.271356
C64   C     C_R   0.514937 0.405924 0.668103 -0.260510
C65   C     C_R   0.460153 0.574918 0.326208 0.051207
C66   C     C_R   0.494845 0.583052 0.676169 0.052859
C67   C     C_R   0.463376 0.566875 0.275974 -0.159874
C68   C     C_R   0.498077 0.570669 0.726389 -0.134441
C69   C     C_R   0.500834 0.485107 0.253397 0.324054
C70   C     C_R   0.508900 0.478521 0.747078 0.314882
Cu1   Cu    Cu3+1 0.500000 0.597420 0.500000 0.924666
Cu2   Cu    Cu3+1 0.500000 0.402580 0.500000 0.937725
H1    H     H_    0.778867 0.343688 0.492687 0.147883
H2    H     H_    0.221254 0.656007 0.509411 0.149833
H3    H     H_    0.913626 0.256013 0.489767 0.134635
H4    H     H_    0.085286 0.743526 0.516480 0.139485
H5    H     H_    0.389087 0.752406 0.546857 0.124386
H6    H     H_    0.609174 0.247644 0.451962 0.120249
H7    H     H_    0.609152 0.751903 0.451966 0.129572
H8    H     H_    0.389709 0.248076 0.547281 0.126272
H9    H     H_    0.672564 0.909445 0.422370 0.144981
H10   H     H_    0.320881 0.090381 0.573290 0.134514
H11   H     H_    0.319536 0.910429 0.572295 0.131026
H12   H     H_    0.673590 0.089550 0.422909 0.134050
H13   H     H_    0.435820 0.624161 0.253780 0.137315
H14   H     H_    0.492021 0.632023 0.750752 0.132004
H15   H     H_    0.297601 0.383343 0.121666 0.184614
H16   H     H_    0.727892 0.521184 0.879025 0.185281
H17   H     H_    0.522940 0.340868 0.646125 0.170120
H18   H     H_    0.561393 0.357037 0.352101 0.158215
H19   H     H_    0.292491 0.410224 0.879126 0.184635
H20   H     H_    0.713440 0.564176 0.121001 0.184279
H21   H     H_    0.289398 0.407529 0.964166 0.139476
H22   H     H_    0.718759 0.558419 0.035984 0.139642
H23   H     H_    0.297528 0.376835 0.036606 0.139183
H24   H     H_    0.729629 0.521225 0.964150 0.139430
H25   H     H_    0.777018 0.655642 0.509482 0.161996
H26   H     H_    0.223527 0.344291 0.492492 0.152208
N1    N     N_R   0.502536 0.481073 0.201939 -0.465430
N2    N     N_R   0.509847 0.471377 0.798444 -0.466986
N3    N     N_R   0.500000 0.743810 0.500000 -0.182997
N4    N     N_R   0.500000 0.256190 0.500000 -0.181033
O1    O     O_R   0.370260 0.582280 0.500010 -0.590995
O2    O     O_R   0.629740 0.417720 0.499990 -0.589497
O3    O     O_R   0.629740 0.582280 0.499990 -0.590261
O4    O     O_R   0.370260 0.417720 0.500010 -0.589698
O5    O     O_R   0.500020 0.582260 0.430260 -0.581465
O6    O     O_R   0.499980 0.417740 0.569740 -0.579664
O7    O     O_R   0.499980 0.582260 0.569740 -0.593415
O8    O     O_R   0.500020 0.417740 0.430260 -0.581706
O9    O     O_2   0.357532 0.418104 0.203103 -0.546217
O10   O     O_2   0.661732 0.509654 0.797468 -0.544544
O11   O     O_2   0.357790 0.433935 0.797638 -0.558471
O12   O     O_2   0.646881 0.545876 0.202548 -0.559737
C71   C     C_3   0.414991 0.664309 0.347793 -0.388367
C72   C     C_3   0.326068 0.637785 0.371658 -0.303398
C73   C     C_3   0.286786 0.725324 0.398517 -0.826339
H27   H     H_    0.331464 0.748396 0.428040 0.264759
H28   H     H_    0.276932 0.787632 0.373591 0.247945
H29   H     H_    0.221612 0.704758 0.414281 0.240443
H30   H     H_    0.278757 0.613478 0.343588 0.218295
H31   H     H_    0.333990 0.576739 0.397438 0.217729
H32   H     H_    0.459927 0.702064 0.373204 0.222354
H33   H     H_    0.401389 0.719299 0.319398 0.182994
C74   C     C_3   0.482324 0.684725 0.654554 -0.364536
C75   C     C_3   0.473485 0.770194 0.690439 -0.392556
C76   C     C_3   0.459020 0.867033 0.664528 -0.827883
H34   H     H_    0.513486 0.881075 0.638372 0.261096
H35   H     H_    0.394792 0.865267 0.645435 0.249032
H36   H     H_    0.457242 0.927809 0.691090 0.245299
H37   H     H_    0.415900 0.757605 0.714788 0.227387
H38   H     H_    0.534950 0.776343 0.712048 0.230057
H39   H     H_    0.540531 0.700865 0.631193 0.222834
H40   H     H_    0.421449 0.683342 0.632290 0.204367
C77   C     C_3   0.095045 0.221489 0.490134 -0.398260
C78   C     C_3   0.038100 0.128082 0.488871 -0.360645
C79   C     C_3   0.096279 0.036602 0.487312 -0.848147
H41   H     H_    0.139112 0.037029 0.454691 0.259100
H42   H     H_    0.138703 0.033115 0.519726 0.252276
H43   H     H_    0.053901 0.970181 0.486333 0.242918
H44   H     H_    0.995470 0.124613 0.521561 0.218524
H45   H     H_    0.995580 0.128195 0.456415 0.221211
H46   H     H_    0.136952 0.222509 0.457115 0.200015
H47   H     H_    0.139196 0.216115 0.521852 0.195878
C80   C     C_3   0.911494 0.777009 0.522688 -0.406564
C81   C     C_3   0.883697 0.825348 0.475523 -0.348339
C82   C     C_3   0.841610 0.925220 0.484870 -0.860034
H48   H     H_    0.779638 0.916751 0.506232 0.265300
H49   H     H_    0.887941 0.973535 0.504738 0.254198
H50   H     H_    0.825668 0.960554 0.450139 0.240405
H51   H     H_    0.942932 0.835192 0.452039 0.223313
H52   H     H_    0.835460 0.778282 0.456216 0.217049
H53   H     H_    0.854147 0.769155 0.547598 0.195395
H54   H     H_    0.958406 0.826817 0.541456 0.196054
C83   C     C_3   0.532039 0.294066 0.738754 -0.392095
C84   C     C_3   0.450315 0.228878 0.731554 -0.336302
C85   C     C_3   0.464316 0.127531 0.753072 -0.846935
H55   H     H_    0.521875 0.090896 0.735617 0.253759
H56   H     H_    0.476103 0.133388 0.792329 0.260930
H57   H     H_    0.404334 0.082005 0.747193 0.243329
H58   H     H_    0.391664 0.263245 0.749074 0.260931
H59   H     H_    0.436341 0.220406 0.692604 0.212857
H60   H     H_    0.590590 0.260131 0.720854 0.196924
H61   H     H_    0.547239 0.297966 0.777685 0.208215
C86   C     C_3   0.575025 0.317325 0.258091 -0.394951
C87   C     C_3   0.676037 0.314754 0.263685 -0.342004
C88   C     C_3   0.715595 0.224134 0.239616 -0.836587
H62   H     H_    0.687833 0.156655 0.256059 0.253245
H63   H     H_    0.701118 0.224216 0.200537 0.259111
H64   H     H_    0.788589 0.224042 0.244399 0.246222
H65   H     H_    0.705820 0.381032 0.247076 0.261627
H66   H     H_    0.693604 0.314056 0.302397 0.211343
H67   H     H_    0.545072 0.251818 0.275421 0.196798
H68   H     H_    0.558638 0.312729 0.219326 0.206752

loop_
_geom_bond_atom_site_label_1
_geom_bond_atom_site_label_2
_ccdc_geom_bond_type
C74   H40   S    
C66   C68   A    
C87   H66   S    
C86   C87   S    
C59   O12   S    
Cu1   O5    S    
C27   C29   A    
C68   H14   S    
C14   C18   A    
C35   C36   A    
C43   N3    A    
C80   C81   S    
C47   N1    A    
C77   C78   S    
C39   C41   A    
C53   C54   A    
C62   C83   S    
C46   N4    A    
C33   C39   A    
C6    C48   A    
C2    C29   S    
C34   C40   A    
C84   C85   S    
C82   H49   S    
C72   H31   S    
C11   C63   A    
C73   H28   S    
C32   H2    S    
C12   C64   A    
C47   O9    S    
C9    C22   A    
C31   H1    S    
C86   H67   S    
C71   C72   S    
C59   N1    A    
C56   C57   A    
C62   C70   A    
C3    C18   A    
C11   C23   S    
C37   C42   A    
C61   C63   A    
C62   C64   A    
C82   H48   S    
C2    O2    A    
C85   H55   S    
C7    H15   S    
Cu2   O6    S    
C70   N2    S    
C65   C67   A    
C78   H45   S    
C57   H11   S    
C51   C57   A    
C75   H38   S    
C55   H9    S    
C1    O1    A    
C61   C86   S    
C19   H21   S    
C1    O4    A    
C80   H53   S    
C44   C52   A    
C40   C42   A    
Cu1   N3    S    
C84   H59   S    
C87   H65   S    
C85   H56   S    
C65   C71   S    
C60   O11   S    
C64   H17   S    
C52   C54   A    
C46   C50   A    
C88   H64   S    
C8    H16   S    
C10   C21   A    
C26   H24   S    
C8    C26   A    
C48   N2    A    
C79   H43   S    
Cu2   O8    S    
C67   H13   S    
C71   H32   S    
C72   H30   S    
C13   C19   A    
C5    C47   A    
C14   C20   A    
C82   H50   S    
C38   C41   A    
C88   H63   S    
C73   H29   S    
C88   H62   S    
C5    C7    A    
C44   N4    A    
C45   N3    A    
C15   C26   A    
C6    C8    A    
Cu2   O2    S    
C83   H60   S    
C86   H68   S    
C49   C55   A    
C12   C66   A    
C50   C56   A    
C40   H4    S    
C67   C69   A    
C32   C34   A    
C10   C60   A    
C44   H6    S    
C76   H35   S    
C78   H44   S    
C3    C9    A    
C58   H12   S    
C79   H42   S    
C45   C49   A    
C23   O5    A    
C31   C33   A    
C45   H7    S    
C16   C18   A    
C50   C54   A    
C52   C58   A    
C24   O6    A    
C4    C17   A    
C69   N1    S    
C4    C6    A    
C77   H47   S    
C48   O10   S    
C20   C22   A    
C84   H58   S    
C25   H23   S    
C85   H57   S    
C39   H3    S    
Cu1   O3    S    
C74   C75   S    
C81   H52   S    
C13   C16   A    
C80   H54   S    
C4    C10   A    
C76   H34   S    
C3    C5    A    
C41   C77   S    
C81   C82   S    
C21   H19   S    
C28   H26   S    
C16   C25   A    
C15   C17   A    
C23   O8    A    
C20   H22   S    
C27   H25   S    
C71   H33   S    
C35   C37   A    
C24   O7    A    
Cu2   O4    S    
C78   C79   S    
C60   N2    A    
C56   H10   S    
C83   H61   S    
C43   H5    S    
C79   H41   S    
C12   C24   S    
C2    O3    A    
C74   H39   S    
C7    C25   A    
C66   C74   S    
C13   C17   A    
C61   C69   A    
C28   C30   A    
C76   H36   S    
Cu1   Cu2   S    
C29   C31   A    
C73   H27   S    
C36   C38   A    
C30   C32   A    
C43   C51   A    
C87   C88   S    
Cu2   N4    S    
C75   H37   S    
C27   C37   A    
C75   C76   S    
C49   C53   A    
Cu1   O7    S    
C63   H18   S    
C77   H46   S    
C1    C30   S    
C33   C35   A    
C72   C73   S    
C34   C36   A    
C51   C53   A    
C81   H51   S    
C68   C70   A    
C55   C58   A    
C83   C84   S    
C22   H20   S    
C14   C15   A    
C46   H8    S    
C9    C59   A    
C28   C38   A    
C42   C80   S    
Cu1   O1    S    
C11   C65   A    
C19   C21   A    
