data_mof_unit_39546.cif
_audit_creation_date              2012-12-10T16:49:27-0500
_audit_creation_method            fapswitch 2.2
_symmetry_space_group_name_H-M    P1
_symmetry_Int_Tables_number       1
_space_group_crystal_system       triclinic
_cell_length_a                    7.775014
_cell_length_b                    8.573524
_cell_length_c                    12.822937
_cell_angle_alpha                 90.297343
_cell_angle_beta                  87.108808
_cell_angle_gamma                 93.413463
_cell_volume                      852.163002295

loop_
_atom_site_label
_atom_site_type_symbol
_atom_type_description
_atom_site_fract_x
_atom_site_fract_y
_atom_site_fract_z
_atom_type_partial_charge
C1    C     C_R   0.454908 0.205417 0.497156 0.966473
C2    C     C_R   0.685645 0.400189 0.139349 0.463244
C3    C     C_R   0.559867 0.430463 0.868653 -0.356307
C4    C     C_R   0.438504 0.562739 0.131557 -0.336703
C5    C     C_R   0.559857 0.449103 0.975180 0.128503
C6    C     C_R   0.435001 0.539622 0.025635 0.124538
C7    C     C_2   0.431188 0.041972 0.495413 -0.368666
C8    C     C_2   0.568925 0.958065 0.503984 -0.363744
C9    C     C_3   0.965354 0.363867 0.176952 0.094538
C10   C     C_3   0.077963 0.263952 0.239608 -0.736640
C11   C     C_3   0.014440 0.516371 0.833996 0.117389
C12   C     C_R   0.545134 0.794596 0.502627 0.961417
C13   C     C_3   0.042975 0.341888 0.814778 -0.930411
C14   C     C_R   0.463761 0.500644 0.699984 0.905767
C15   C     C_R   0.535468 0.496357 0.300198 0.917311
C16   C     C_R   0.558924 0.489849 0.188637 -0.158500
C17   C     C_R   0.438308 0.501127 0.811950 -0.148953
C18   C     C_R   0.303338 0.599099 0.970251 -0.332231
C19   C     C_R   0.682767 0.378418 0.031665 -0.326180
C20   C     C_R   0.300077 0.573748 0.862984 0.543480
H1    H     H_    0.341912 0.632109 0.170468 0.174665
H2    H     H_    0.005233 0.350127 0.093014 0.129751
H3    H     H_    0.051957 0.138551 0.220474 0.238515
H4    H     H_    0.216079 0.295990 0.220098 0.216918
H5    H     H_    0.050499 0.281887 0.324487 0.261604
H6    H     H_    0.910040 0.549528 0.784086 0.199130
H7    H     H_    0.967889 0.535390 0.916203 0.126837
H8    H     H_    0.108983 0.324161 0.737463 0.269455
H9    H     H_    0.122140 0.296068 0.876138 0.243730
H10   H     H_    0.918706 0.271873 0.817319 0.218472
H11   H     H_    0.655768 0.362248 0.829111 0.175093
H12   H     H_    0.202057 0.661726 0.010016 0.141946
H13   H     H_    0.771731 0.301916 0.992863 0.155847
H14   H     H_    0.999301 0.616921 0.422786 0.188542
H15   H     H_    0.000580 0.381512 0.575960 0.192068
H16   H     H_    0.300961 0.991214 0.487202 0.180421
H17   H     H_    0.699161 0.008847 0.512126 0.181462
H18   H     H_    0.988874 0.488329 0.200327 0.134975
N1    N     N_2   0.054030 0.541640 0.471970 -0.175721
N2    N     N_2   0.945970 0.458360 0.528030 -0.171781
O1    O     O_R   0.609680 0.261530 0.506880 -0.606049
O2    O     O_3   0.162162 0.616376 0.807604 -0.612348
O3    O     O_R   0.390320 0.738470 0.493120 -0.607505
O4    O     O_R   0.323330 0.288220 0.488910 -0.645896
O5    O     O_R   0.676670 0.711780 0.511090 -0.632397
O6    O     O_R   0.619510 0.488830 0.661140 -0.637112
O7    O     O_R   0.380490 0.511170 0.338860 -0.640236
O8    O     O_R   0.333160 0.515520 0.643180 -0.576127
O9    O     O_R   0.666840 0.484480 0.356820 -0.589094
O10   O     O_3   0.790671 0.313907 0.198020 -0.598101
Zn1   Zn    Zn3+2 0.691200 0.482180 0.511990 0.953447
Zn2   Zn    Zn3+2 0.308800 0.517820 0.488010 0.945163

loop_
_geom_bond_atom_site_label_1
_geom_bond_atom_site_label_2
_ccdc_geom_bond_type
C4    C16   A    
C20   O2    S    
C13   H8    S    
O7    Zn2   S    
C5    C19   A    
C15   O7    A    
C10   H3    S    
N2    Zn1   S    
C2    C16   A    
C9    C10   S    
C1    O4    A    
C11   H7    S    
C8    C12   S    
O4    Zn2   S    
H15   N2    S    
C7    C8    D    
C14   O6    A    
C3    H11   S    
C4    H1    S    
C11   C13   S    
C14   C17   S    
C10   H5    S    
C1    O1    A    
C9    H18   S    
C3    C17   A    
C12   O3    A    
C18   C20   A    
C15   O9    A    
C7    H16   S    
C5    C6    A    
C6    C18   A    
O3    Zn2   S    
C18   H12   S    
C8    H17   S    
O5    Zn1   S    
C15   C16   S    
C3    C5    A    
C13   H10   S    
O8    Zn2   S    
C17   C20   A    
C11   O2    S    
C4    C6    A    
C9    H2    S    
C19   H13   S    
C13   H9    S    
N1    N2    D    
C14   O8    A    
C2    O10   S    
C11   H6    S    
C10   H4    S    
C2    C19   A    
C1    C7    S    
O6    Zn1   S    
O1    Zn1   S    
C9    O10   S    
H14   N1    S    
N1    Zn2   S    
C12   O5    A    
O9    Zn1   S    
