data_mof_unit_27215.cif
_audit_creation_date              2012-10-26T19:40:00-0400
_audit_creation_method            fapswitch 2.2
_symmetry_space_group_name_H-M    P1
_symmetry_Int_Tables_number       1
_space_group_crystal_system       triclinic
_cell_length_a                    15.001268
_cell_length_b                    8.705247
_cell_length_c                    7.451869
_cell_angle_alpha                 102.802053
_cell_angle_beta                  93.981816
_cell_angle_gamma                 91.207124
_cell_volume                      945.991308583

loop_
_atom_site_label
_atom_site_type_symbol
_atom_type_description
_atom_site_fract_x
_atom_site_fract_y
_atom_site_fract_z
_atom_type_partial_charge
C1    C     C_R   0.498071 0.199913 0.453471 0.538665
C2    C     C_R   0.184381 0.343188 0.455371 -0.000459
C3    C     C_R   0.766904 0.506348 0.494343 0.007889
C4    C     C_R   0.233109 0.488190 0.510159 0.012814
C5    C     C_R   0.807319 0.366015 0.424404 -0.150281
C6    C     C_R   0.191860 0.627536 0.579003 -0.146446
C7    C     C_R   0.900444 0.356149 0.436540 0.011607
C8    C     C_R   0.099772 0.629937 0.594402 0.025600
C9    C     C_R   0.953285 0.494242 0.516820 0.024539
C10   C     C_R   0.047487 0.489554 0.521554 0.023019
C11   C     C_R   0.911878 0.637756 0.590931 0.012618
C12   C     C_R   0.502563 0.800097 0.546454 0.538721
C13   C     C_R   0.089287 0.345519 0.450804 0.007578
C14   C     C_R   0.941320 0.211152 0.371520 0.017403
C15   C     C_R   0.058532 0.770121 0.677150 0.009673
C16   C     C_3   0.769851 0.798724 0.640709 -0.267778
C17   C     C_3   0.758414 0.834329 0.847495 -0.426438
C18   C     C_3   0.236820 0.191510 0.417935 -0.279722
C19   C     C_3   0.278485 0.158363 0.598248 -0.438991
C20   C     C_3   0.884013 0.060098 0.296747 -0.284457
C21   C     C_3   0.933227 0.905486 0.252856 -0.456935
C22   C     C_3   0.110324 0.923833 0.758864 -0.283062
C23   C     C_R   0.034853 0.209341 0.377466 -0.110487
C24   C     C_3   0.162907 0.921315 0.941363 -0.437219
C25   C     C_R   0.965778 0.770918 0.676835 -0.133804
C26   C     C_2   0.496840 0.032248 0.427227 -0.166098
C27   C     C_2   0.504340 0.967763 0.572655 -0.170452
C28   C     C_R   0.329266 0.497423 0.502836 0.543891
C29   C     C_R   0.670670 0.500876 0.497398 0.544599
C30   C     C_R   0.817463 0.644732 0.577298 0.000584
Cu1   Cu    Cu3+1 0.510010 0.517380 0.684380 0.933857
Cu2   Cu    Cu3+1 0.489990 0.482620 0.315620 0.940657
H1    H     H_    0.489375 0.961411 0.286772 0.134112
H2    H     H_    0.299021 0.034094 0.575329 0.129733
H3    H     H_    0.197734 0.084969 0.345619 0.121046
H4    H     H_    0.290254 0.201209 0.324724 0.160441
H5    H     H_    0.764020 0.264165 0.363338 0.102584
H6    H     H_    0.233740 0.733868 0.620473 0.108077
H7    H     H_    0.969950 0.898736 0.127449 0.146352
H8    H     H_    0.980010 0.894618 0.370735 0.163164
H9    H     H_    0.884106 0.804281 0.226167 0.148021
H10   H     H_    0.836865 0.047644 0.401142 0.135640
H11   H     H_    0.844251 0.072509 0.169790 0.141905
H12   H     H_    0.511709 0.038610 0.713116 0.134165
H13   H     H_    0.116881 0.900277 0.044187 0.144594
H14   H     H_    0.212913 0.828296 0.924722 0.163487
H15   H     H_    0.198731 0.037005 0.995415 0.132091
H16   H     H_    0.154906 0.948617 0.656330 0.138755
H17   H     H_    0.065074 0.024698 0.784941 0.144614
H18   H     H_    0.063843 0.100894 0.317524 0.113744
H19   H     H_    0.936564 0.879476 0.741879 0.116523
H20   H     H_    0.430809 0.379108 0.948660 0.233732
H21   H     H_    0.569202 0.620888 0.051387 0.234811
H22   H     H_    0.712581 0.745847 0.882717 0.183086
H23   H     H_    0.823627 0.833103 0.925610 0.145772
H24   H     H_    0.730004 0.952432 0.890454 0.132009
H25   H     H_    0.806294 0.898256 0.605083 0.123751
H26   H     H_    0.703025 0.796357 0.566057 0.147430
H27   H     H_    0.338576 0.234585 0.650039 0.179107
H28   H     H_    0.230446 0.180949 0.706987 0.150511
N1    N     N_2   0.474890 0.456420 0.038520 -0.253914
N2    N     N_2   0.525110 0.543580 0.961480 -0.257273
O1    O     O_R   0.506510 0.286130 0.619770 -0.511289
O2    O     O_R   0.493490 0.713870 0.380230 -0.504958
O3    O     O_R   0.489600 0.256770 0.308360 -0.503280
O4    O     O_R   0.510400 0.743230 0.691640 -0.502316
O5    O     O_R   0.378710 0.514640 0.655720 -0.509509
O6    O     O_R   0.621290 0.485360 0.344280 -0.507774
O7    O     O_R   0.361800 0.485290 0.344300 -0.500816
O8    O     O_R   0.638200 0.514710 0.655700 -0.499212

loop_
_geom_bond_atom_site_label_1
_geom_bond_atom_site_label_2
_ccdc_geom_bond_type
C14   C23   A    
Cu1   O4    S    
C22   H16   S    
C25   H19   S    
Cu2   O7    S    
C5    H5    S    
C19   H28   S    
C2    C18   S    
C29   O6    A    
C9    C10   A    
C17   H23   S    
C26   H1    S    
C1    O3    A    
Cu1   Cu2   S    
C21   H7    S    
Cu2   O6    S    
C24   H14   S    
C20   H11   S    
C6    H6    S    
Cu2   O3    S    
C15   C22   S    
C16   H26   S    
Cu1   O5    S    
C20   H10   S    
C9    C11   A    
C17   H24   S    
Cu2   O2    S    
C26   C27   D    
C1    C26   S    
C21   H8    S    
C12   O4    A    
C11   C30   A    
C22   H17   S    
C21   H9    S    
C2    C4    A    
C6    C8    A    
C3    C30   A    
C4    C6    A    
C4    C28   S    
Cu2   N1    S    
C29   O8    A    
C8    C15   A    
C5    C7    A    
C16   H25   S    
Cu1   O8    S    
N1    N2    D    
C12   O2    A    
C22   C24   S    
C15   C25   A    
C24   H13   S    
C12   C27   S    
C16   C30   S    
C7    C9    A    
Cu1   O1    S    
C28   O5    A    
C20   C21   S    
C13   C23   A    
C14   C20   S    
C8    C10   A    
C18   C19   S    
C18   H3    S    
Cu1   N2    S    
C3    C29   S    
C2    C13   A    
C11   C25   A    
C1    O1    A    
C23   H18   S    
H20   N1    S    
C19   H27   S    
C27   H12   S    
C24   H15   S    
C18   H4    S    
C17   H22   S    
C10   C13   A    
C7    C14   A    
C28   O7    A    
H21   N2    S    
C16   C17   S    
C3    C5    A    
C19   H2    S    
