data_mof_unit_33103.cif
_audit_creation_date              2012-12-10T16:56:34-0500
_audit_creation_method            fapswitch 2.2
_symmetry_space_group_name_H-M    P1
_symmetry_Int_Tables_number       1
_space_group_crystal_system       triclinic
_cell_length_a                    7.773922
_cell_length_b                    8.573731
_cell_length_c                    15.711754
_cell_angle_alpha                 90.871847
_cell_angle_beta                  85.898314
_cell_angle_gamma                 93.638588
_cell_volume                      1042.36446413

loop_
_atom_site_label
_atom_site_type_symbol
_atom_type_description
_atom_site_fract_x
_atom_site_fract_y
_atom_site_fract_z
_atom_type_partial_charge
C1    C     C_R   0.545761 0.794714 0.497810 0.962535
C2    C     C_3   0.455886 0.356842 0.027667 0.059199
C3    C     C_1   0.506500 0.499540 0.750637 -0.167505
C4    C     C_1   0.493500 0.500460 0.249363 -0.167506
C5    C     C_3   0.341942 0.453441 0.975048 -0.217739
C6    C     C_3   0.658058 0.546559 0.024952 -0.217739
C7    C     C_3   0.504154 0.499579 0.916870 0.140211
C8    C     C_3   0.495846 0.500421 0.083130 0.140211
C9    C     C_1   0.507043 0.499380 0.825910 -0.050791
C10   C     C_1   0.492957 0.500619 0.174090 -0.050791
C11   C     C_1   0.592926 0.800837 0.940296 0.167778
C12   C     C_R   0.454239 0.205286 0.502190 0.962535
C13   C     C_1   0.407074 0.199163 0.059704 0.167778
C14   C     C_R   0.502192 0.500038 0.661922 0.904137
C15   C     C_R   0.497808 0.499962 0.338078 0.904137
C16   C     C_2   0.569842 0.958207 0.496559 -0.371869
C17   C     C_2   0.430158 0.041793 0.503441 -0.371869
C18   C     C_3   0.382616 0.599341 0.031792 -0.204957
C19   C     C_3   0.617384 0.400659 0.968207 -0.204957
C20   C     C_3   0.544114 0.643158 0.972333 0.059199
H1    H     H_    0.287981 0.681207 0.059428 0.157694
H2    H     H_    0.712019 0.318793 0.940572 0.157694
H3    H     H_    0.786400 0.585816 0.047090 0.149187
H4    H     H_    0.213600 0.414183 0.952910 0.149187
H5    H     H_    0.701773 0.009253 0.489992 0.181572
H6    H     H_    0.298227 0.990747 0.510008 0.181572
H7    H     H_    0.013363 0.382003 0.436424 0.194612
H8    H     H_    0.986636 0.617997 0.563576 0.194612
N1    N     N_2   0.950320 0.457950 0.477300 -0.171923
N2    N     N_2   0.049680 0.542050 0.522700 -0.171923
N3    N     N_1   0.631402 0.925164 0.915012 -0.210318
N4    N     N_1   0.368597 0.074836 0.084988 -0.210318
O1    O     O_R   0.389250 0.738570 0.505570 -0.612994
O2    O     O_R   0.610750 0.261430 0.494430 -0.612994
O3    O     O_R   0.678390 0.711630 0.491020 -0.630375
O4    O     O_R   0.321610 0.288370 0.508980 -0.630376
O5    O     O_R   0.355460 0.513480 0.630490 -0.610756
O6    O     O_R   0.644540 0.486520 0.369510 -0.610755
O7    O     O_R   0.644600 0.486540 0.615950 -0.621126
O8    O     O_R   0.355400 0.513460 0.384050 -0.621126
Zn1   Zn    Zn3+2 0.306940 0.517990 0.509710 0.953427
Zn2   Zn    Zn3+2 0.693060 0.482010 0.490290 0.953427

loop_
_geom_bond_atom_site_label_1
_geom_bond_atom_site_label_2
_ccdc_geom_bond_type
C12   C17   S    
C5    C7    S    
C15   O6    A    
N1    N2    D    
C3    C9    T    
N1    Zn2   S    
C12   O4    A    
C18   H1    S    
C6    C20   S    
C13   N4    T    
C18   C20   S    
O2    Zn2   S    
O1    Zn1   S    
C4    C15   S    
H8    N2    S    
C14   O7    A    
C11   N3    T    
N2    Zn1   S    
C1    C16   S    
C14   O5    A    
C6    C19   S    
C5    H4    S    
O4    Zn1   S    
C3    C14   S    
C17   H6    S    
O8    Zn1   S    
O3    Zn2   S    
O6    Zn2   S    
O7    Zn2   S    
C7    C19   S    
O5    Zn1   S    
C11   C20   S    
C2    C8    S    
C15   O8    A    
C2    C5    S    
H7    N1    S    
C6    H3    S    
C4    C10   T    
C19   H2    S    
C1    O3    A    
C8    C10   S    
C7    C20   S    
C16   H5    S    
C7    C9    S    
C2    C13   S    
C6    C8    S    
C5    C18   S    
C2    C19   S    
C12   O2    A    
C8    C18   S    
C1    O1    A    
C16   C17   D    
