data_mof_unit_39091.cif
_audit_creation_date              2013-03-05T15:59:56-0500
_audit_creation_method            fapswitch 2.2
_symmetry_space_group_name_H-M    P1
_symmetry_Int_Tables_number       1
_space_group_crystal_system       triclinic
_cell_length_a                    12.59602
_cell_length_b                    12.95632
_cell_length_c                    19.111279
_cell_angle_alpha                 91.252401
_cell_angle_beta                  101.806127
_cell_angle_gamma                 83.841423
_cell_volume                      3035.3253273

loop_
_atom_site_label
_atom_site_type_symbol
_atom_site_description
_atom_site_fract_x
_atom_site_fract_y
_atom_site_fract_z
_atom_type_partial_charge
O1    O     O_R   0.366740 0.627160 0.482470 -0.600262
O2    O     O_R   0.544830 0.662520 0.505920 -0.596963
C1    C     C_R   0.439883 0.692343 0.496336 0.901612
O3    O     O_R   0.410920 0.482320 0.590130 -0.619788
O4    O     O_R   0.589010 0.517690 0.613590 -0.613123
C2    C     C_R   0.502247 0.494462 0.634796 0.880119
Zn1   Zn    Zn3+2 0.381090 0.476390 0.484340 1.005714
Zn2   Zn    Zn3+2 0.618910 0.523610 0.515660 0.999798
O5    O     O_R   0.455170 0.337480 0.494080 -0.561264
O6    O     O_R   0.633260 0.372840 0.517530 -0.591318
O7    O     O_R   0.410990 0.482310 0.386410 -0.610312
O8    O     O_R   0.589080 0.517680 0.409870 -0.621648
C3    C     C_R   0.559801 0.308112 0.512167 0.914251
C4    C     C_R   0.498155 0.505417 0.365242 0.897180
C5    C     C_R   0.411880 0.448062 0.730389 -0.202694
H1    H     H_    0.337521 0.446425 0.690349 0.217282
C6    C     C_R   0.409139 0.424532 0.800517 -0.079267
C7    C     C_R   0.504421 0.429523 0.853603 -0.136829
C8    C     C_R   0.604144 0.444467 0.834375 0.424615
C9    C     C_R   0.606333 0.466847 0.763107 -0.120489
C10   C     C_R   0.508043 0.472039 0.710869 -0.197492
N1    N     N_R   0.577816 0.391347 0.980381 -0.132020
N2    N     N_R   0.575975 0.407879 0.048897 -0.150291
C11   C     C_R   0.493195 0.470266 0.067864 0.306183
N3    N     N_R   0.411253 0.514075 0.016698 -0.140406
N4    N     N_R   0.413700 0.498159 0.948221 -0.144544
C12   C     C_R   0.497075 0.436685 0.928926 0.410045
C13   C     C_R   0.402059 0.473880 0.168596 -0.150828
H2    H     H_    0.331263 0.447463 0.133375 0.159258
C14   C     C_R   0.402652 0.484365 0.240619 -0.185519
H3    H     H_    0.330673 0.467720 0.259020 0.153108
C15   C     C_R   0.494965 0.513493 0.288108 -0.102465
C16   C     C_R   0.583055 0.546135 0.260816 -0.098101
C17   C     C_R   0.584002 0.530917 0.187564 -0.072077
C18   C     C_R   0.493717 0.492110 0.142583 0.004126
C19   C     C_R   0.715039 0.068557 0.610964 -0.249185
H4    H     H_    0.793496 0.044596 0.644865 0.195101
C20   C     C_R   0.592979 0.200850 0.537196 -0.166631
C21   C     C_R   0.292684 0.844946 0.480031 -0.041300
C22   C     C_R   0.257203 0.944962 0.500909 -0.255381
C23   C     C_R   0.332015 0.010274 0.536780 -0.064765
C24   C     C_R   0.444073 0.973366 0.549291 0.028735
C25   C     C_R   0.473748 0.866430 0.551063 0.019106
C26   C     C_R   0.528540 0.037761 0.559437 0.052121
C27   C     C_R   0.633218 0.001097 0.597846 0.009460
C28   C     C_R   0.651890 0.898185 0.622673 0.459433
C29   C     C_R   0.573568 0.829856 0.596172 -0.288738
C30   C     C_R   0.512448 0.133311 0.525311 -0.226305
C31   C     C_R   0.695303 0.169014 0.581632 0.456270
C32   C     C_R   0.402001 0.802093 0.508406 -0.166019
H5    H     H_    0.434923 0.155942 0.489936 0.202557
H6    H     H_    0.171348 0.972599 0.487698 0.202581
H7    H     H_    0.589343 0.750079 0.613218 0.158005
C33   C     C_R   0.086785 0.341735 0.400209 0.305889
N5    N     N_R   0.222200 0.444680 0.463280 -0.152737
C34   C     C_R   0.804893 0.622857 0.590213 0.068805
C35   C     C_R   0.909199 0.653941 0.606151 -0.215579
C36   C     C_R   0.986353 0.612712 0.567745 -0.159199
C37   C     C_R   0.959825 0.538227 0.513564 0.055129
C38   C     C_R   0.851704 0.510557 0.498907 0.200315
C39   C     C_R   0.037558 0.485736 0.476876 -0.071054
C40   C     C_R   0.005326 0.407269 0.425572 -0.088686
C41   C     C_R   0.893882 0.390654 0.406342 -0.055475
C42   C     C_R   0.822102 0.436257 0.446940 -0.261705
C43   C     C_R   0.147682 0.505561 0.491399 -0.127239
C44   C     C_R   0.195942 0.362481 0.419895 0.512016
N6    N     N_R   0.776960 0.554780 0.536340 -0.121817
H8    H     H_    0.177481 0.567495 0.525775 0.163803
H9    H     H_    0.746157 0.652508 0.621293 0.145167
H10   H     H_    0.066144 0.638934 0.582964 0.157435
H11   H     H_    0.930631 0.709270 0.648544 0.186875
H12   H     H_    0.742779 0.411007 0.437381 0.229111
O9    O     O_3   0.750791 0.862041 0.665360 -0.637322
C45   C     C_3   0.734001 0.842115 0.734414 0.060142
H13   H     H_    0.689458 0.772351 0.733931 0.176021
H14   H     H_    0.687508 0.909894 0.755414 0.153728
C46   C     C_3   0.843914 0.821814 0.785252 -0.735296
H15   H     H_    0.889928 0.890674 0.787273 0.248829
H16   H     H_    0.831565 0.806140 0.839764 0.234086
H17   H     H_    0.892176 0.753502 0.767082 0.244982
C47   C     C_2   0.212408 0.788886 0.429866 0.927133
O10   O     O_2   0.238928 0.742370 0.378693 -0.602034
O11   O     O_R   0.104951 0.792986 0.439547 -0.822419
H18   H     H_    0.057701 0.752114 0.401895 0.348965
C48   C     C_2   0.291453 0.107117 0.571172 0.916271
O12   O     O_2   0.354697 0.156382 0.612556 -0.610519
O13   O     O_R   0.179745 0.137901 0.560898 -0.861673
H19   H     H_    0.163506 0.202666 0.589100 0.343305
O14   O     O_3   0.278728 0.290444 0.406255 -0.614206
C49   C     C_3   0.280975 0.283947 0.332597 0.134832
H20   H     H_    0.352413 0.320706 0.323953 0.161201
H21   H     H_    0.206918 0.322070 0.296393 0.155177
C50   C     C_3   0.299215 0.170554 0.311296 -0.792205
H22   H     H_    0.228991 0.129043 0.316736 0.269978
H23   H     H_    0.308649 0.165416 0.254774 0.220182
H24   H     H_    0.374285 0.132279 0.345852 0.249051
C51   C     C_2   0.845943 0.331013 0.342486 1.017389
O15   O     O_2   0.874415 0.340709 0.285734 -0.506613
O16   O     O_R   0.763224 0.268650 0.346174 -0.870838
H25   H     H_    0.735031 0.234260 0.298843 0.345640
O17   O     O_3   0.061680 0.255875 0.358065 -0.592458
C52   C     C_3   0.063831 0.169626 0.402323 0.092102
H26   H     H_    0.017368 0.188597 0.445558 0.153793
H27   H     H_    0.149665 0.141289 0.426057 0.198449
C53   C     C_3   0.012158 0.082542 0.357493 -0.770555
H28   H     H_    0.058568 0.058071 0.315384 0.255387
H29   H     H_    0.012057 0.014767 0.391992 0.228027
H30   H     H_    0.926661 0.108975 0.331724 0.273159
C54   C     C_2   0.305809 0.393278 0.815964 0.953591
O18   O     O_2   0.307818 0.336374 0.866558 -0.615357
O19   O     O_R   0.206066 0.426262 0.771019 -0.814732
H31   H     H_    0.141899 0.398948 0.786413 0.349488
O20   O     O_3   0.697984 0.447249 0.886617 -0.573489
C55   C     C_3   0.757802 0.347967 0.891654 0.097347
H32   H     H_    0.789569 0.328930 0.842216 0.156238
H33   H     H_    0.707015 0.286278 0.901005 0.145272
C56   C     C_3   0.854513 0.347279 0.954134 -0.711779
H34   H     H_    0.825469 0.364383 0.004683 0.271572
H35   H     H_    0.902505 0.269788 0.958564 0.203901
H36   H     H_    0.907913 0.406803 0.945745 0.262355
C57   C     C_2   0.712595 0.484228 0.746073 0.943898
O21   O     O_2   0.753838 0.424079 0.706563 -0.592542
O22   O     O_R   0.768094 0.566159 0.778411 -0.790467
H37   H     H_    0.840654 0.568785 0.763699 0.329661
C58   C     C_2   0.665757 0.606830 0.305630 0.932370
O23   O     O_2   0.635868 0.681267 0.339913 -0.594806
O24   O     O_R   0.776897 0.580476 0.307950 -0.768415
H38   H     H_    0.824327 0.627633 0.340574 0.345148
C59   C     C_2   0.674382 0.561981 0.156402 0.952211
O25   O     O_2   0.657300 0.634156 0.114042 -0.602301
O26   O     O_R   0.777534 0.506243 0.173473 -0.709961
H39   H     H_    0.831885 0.533929 0.148137 0.354463
O27   O     O_3   0.769585 0.239533 0.605036 -0.560127
C60   C     C_3   0.856534 0.222074 0.568628 0.107557
H40   H     H_    0.827137 0.240526 0.510874 0.155698
H41   H     H_    0.894972 0.140291 0.574052 0.140231
C61   C     C_3   0.943108 0.292739 0.600345 -0.718686
H42   H     H_    0.991453 0.260456 0.651863 0.247520
H43   H     H_    0.997999 0.300070 0.562633 0.186620
H44   H     H_    0.904552 0.371200 0.610425 0.284137

loop_
_geom_bond_atom_site_label_1
_geom_bond_atom_site_label_2
_geom_bond_distance
_ccdc_geom_bond_type
O13   H19   1.012411 S    
C50   H22   1.106635 S    
C23   C24   1.414285 A    
C33   O17   1.385024 S    
C8    C9    1.405095 A    
Zn1   N5    2.043499 S    
C60   C61   1.521278 S    
C9    C57   1.481343 S    
C55   H32   1.112194 S    
C35   C36   1.389923 A    
O22   H37   1.013795 S    
C20   C31   1.416285 A    
C46   H15   1.110703 S    
Zn1   O7    1.987813 S    
C61   H43   1.107936 S    
N4    C12   1.356255 A    
O17   C52   1.410802 S    
C45   H14   1.116078 S    
C19   H4    1.083374 S    
C7    C8    1.412279 A    
C54   O19   1.399335 S    
C48   O12   1.223429 D    
C14   H3    1.080694 S    
O7    C4    1.310080 A    
C8    O20   1.385610 S    
C5    H1    1.083299 S    
C34   C35   1.387646 A    
C52   C53   1.522452 S    
C6    C7    1.410467 A    
C17   C18   1.410266 A    
O9    C45   1.412018 S    
O5    C3    1.308798 A    
C51   O16   1.398790 S    
O20   C55   1.414010 S    
C30   H5    1.083370 S    
O11   H18   1.013981 S    
C38   N6    1.366897 A    
C45   C46   1.520700 S    
N2    C11   1.353886 A    
C20   C30   1.390589 A    
C29   H7    1.076157 S    
C48   O13   1.395512 S    
C58   O23   1.223328 D    
C37   C38   1.416333 A    
C50   H23   1.110451 S    
O1    Zn1   1.942798 S    
C39   C40   1.428926 A    
C24   C26   1.401660 A    
O3    Zn1   1.980718 S    
C47   O11   1.398472 S    
C1    C32   1.479181 S    
C51   O15   1.222923 D    
C44   O14   1.384993 S    
C46   H16   1.110459 S    
C61   H44   1.109135 S    
C37   C39   1.424798 A    
C11   C18   1.448492 S    
C45   H13   1.112761 S    
C11   N3    1.352491 A    
C21   C47   1.483100 S    
O3    C2    1.306854 A    
C56   H36   1.110745 S    
C21   C22   1.401523 A    
C36   H10   1.076780 S    
C60   H41   1.114501 S    
C33   C40   1.416784 A    
C36   C37   1.413896 A    
C22   H6    1.081936 S    
C2    C10   1.474409 S    
C47   O10   1.223101 D    
O1    C1    1.299823 A    
C40   C41   1.414999 A    
C39   C43   1.408166 A    
C53   H29   1.109810 S    
C49   H21   1.115725 S    
O16   H25   1.013778 S    
Zn2   O8    1.980718 S    
C43   H8    1.075666 S    
C16   C58   1.489395 S    
C16   C17   1.411770 A    
C57   O21   1.222825 D    
C19   C27   1.402465 A    
C53   H30   1.109414 S    
C35   H11   1.081576 S    
C52   H27   1.109459 S    
C3    C20   1.468812 S    
C22   C23   1.398357 A    
O8    C4    1.302996 A    
O26   H39   1.013774 S    
C50   H24   1.111012 S    
N1    C12   1.354343 A    
O27   C60   1.409460 S    
C24   C25   1.395067 A    
O24   H38   1.013994 S    
N5    C44   1.362297 A    
C26   C27   1.409888 A    
C49   C50   1.522042 S    
C59   O25   1.222614 D    
C53   H28   1.109731 S    
C46   H17   1.109497 S    
Zn1   O5    1.930735 S    
C31   O27   1.380082 S    
C28   C29   1.406023 A    
C13   H2    1.084078 S    
O19   H31   1.014046 S    
N5    C43   1.349457 A    
C17   C59   1.482870 S    
O2    Zn2   1.930734 S    
C7    C12   1.461566 S    
C4    C15   1.472137 S    
O6    C3    1.301505 A    
C6    C54   1.490189 S    
O4    Zn2   1.987812 S    
C55   H33   1.114779 S    
C25   C32   1.416542 A    
C5    C6    1.389049 A    
C60   H40   1.112585 S    
C33   C44   1.402665 A    
C34   N6    1.356645 A    
C23   C48   1.493725 S    
C61   H42   1.110487 S    
C38   C42   1.391327 A    
C15   C16   1.424515 A    
C56   H35   1.110485 S    
O2    C1    1.313287 A    
N3    N4    1.326437 A    
C41   C51   1.486057 S    
C54   O18   1.223214 D    
C14   C15   1.401974 A    
C49   H20   1.104553 S    
O4    C2    1.306266 A    
C13   C14   1.378773 A    
C42   H12   1.063739 S    
C52   H26   1.115249 S    
C57   O22   1.396864 S    
C55   C56   1.520775 S    
C41   C42   1.385980 A    
C27   C28   1.404640 A    
C5    C10   1.404840 A    
C21   C32   1.428965 A    
C9    C10   1.418901 A    
Zn2   N6    2.031293 S    
Zn2   O6    1.942798 S    
C34   H9    1.075458 S    
C58   O24   1.396793 S    
N1    N2    1.326683 A    
O14   C49   1.414245 S    
C56   H34   1.110893 S    
C13   C18   1.390816 A    
C25   C29   1.412486 A    
C28   O9    1.382892 S    
C19   C31   1.405540 A    
C26   C30   1.387946 A    
C59   O26   1.397021 S    
