data_mof_unit_22725.cif
_audit_creation_date              2013-03-05T15:50:58-0500
_audit_creation_method            fapswitch 2.2
_symmetry_space_group_name_H-M    P1
_symmetry_Int_Tables_number       1
_space_group_crystal_system       triclinic
_cell_length_a                    11.70457
_cell_length_b                    10.829729
_cell_length_c                    9.605166
_cell_angle_alpha                 89.461758
_cell_angle_beta                  90.122473
_cell_angle_gamma                 93.68442
_cell_volume                      1214.9535977

loop_
_atom_site_label
_atom_site_type_symbol
_atom_site_description
_atom_site_fract_x
_atom_site_fract_y
_atom_site_fract_z
_atom_type_partial_charge
O1    O     O_R   0.499990 0.319640 0.618810 -0.565711
O2    O     O_R   0.500000 0.319660 0.381240 -0.576645
C1    C     C_R   0.492231 0.262194 0.500641 0.868400
O3    O     O_R   0.337190 0.500000 0.618790 -0.568531
O4    O     O_R   0.337200 0.500030 0.381210 -0.552087
C2    C     C_R   0.284546 0.504992 0.499939 0.902065
Cu1   Cu    Cu3+1 0.499990 0.499990 0.640660 0.962707
Cu2   Cu    Cu3+1 0.500010 0.500010 0.359340 0.961852
O5    O     O_R   0.500000 0.680340 0.618760 -0.596398
O6    O     O_R   0.500010 0.680360 0.381190 -0.618224
O7    O     O_R   0.662800 0.499970 0.618790 -0.593038
O8    O     O_R   0.662810 0.500000 0.381210 -0.587748
C3    C     C_R   0.496680 0.737149 0.499073 0.735579
C4    C     C_R   0.715917 0.500992 0.500113 0.795942
C5    C     C_1   0.162882 0.507578 0.500053 -0.081412
C6    C     C_1   0.060373 0.507609 0.500176 0.035682
C7    C     C_1   0.940430 0.505812 0.500298 0.010761
C8    C     C_1   0.837801 0.503559 0.500316 -0.169684
H1    H     H_    0.617164 0.119959 0.653189 0.155064
C9    C     C_R   0.304018 0.110257 0.351502 0.333963
C10   C     C_R   0.238724 0.040522 0.254082 -0.178261
H2    H     H_    0.169003 0.080230 0.198708 0.180162
C11   C     C_R   0.253549 0.915773 0.238086 -0.214322
H3    H     H_    0.198438 0.861505 0.167893 0.163220
C12   C     C_R   0.332293 0.858337 0.320410 -0.181027
H4    H     H_    0.331148 0.759191 0.312309 0.173241
C13   C     C_R   0.407029 0.927567 0.410929 0.064877
C14   C     C_R   0.397576 0.057355 0.420676 -0.010127
C15   C     C_R   0.479370 0.127239 0.503502 -0.083084
C16   C     C_R   0.556308 0.067451 0.587968 -0.196364
H5    H     H_    0.619837 0.896622 0.652857 0.141067
C17   C     C_R   0.558707 0.940327 0.586743 -0.192192
C18   C     C_R   0.487382 0.870252 0.496922 -0.059998
H6    H     H_    0.371263 0.356576 0.129980 0.176636
C19   C     C_R   0.651925 0.667356 0.142881 -0.130120
H7    H     H_    0.659174 0.674344 0.252756 0.194675
C20   C     C_R   0.726250 0.749393 0.070055 -0.193633
H8    H     H_    0.784279 0.813420 0.125726 0.153101
C21   C     C_R   0.726793 0.748975 0.926497 -0.208581
H9    H     H_    0.785229 0.812689 0.869934 0.150586
C22   C     C_R   0.652921 0.666625 0.854805 -0.137478
H10   H     H_    0.661063 0.673080 0.744884 0.189352
C23   C     C_R   0.574873 0.582171 0.924622 0.212863
C24   C     C_R   0.574607 0.582349 0.074172 0.202686
N1    N     N_R   0.501070 0.501210 0.147910 -0.206330
C25   C     C_R   0.429126 0.421328 0.074474 -0.048313
H11   H     H_    0.370854 0.357053 0.871989 0.161213
C26   C     C_R   0.429015 0.421488 0.926644 -0.053753
N2    N     N_R   0.501110 0.501290 0.852040 -0.203399
N3    N     N_R   0.259327 0.222556 0.398260 0.088859
O9    O     O_R   0.200689 0.287413 0.312209 -0.405330
O10   O     O_R   0.245479 0.237146 0.531430 -0.402760

loop_
_geom_bond_atom_site_label_1
_geom_bond_atom_site_label_2
_geom_bond_distance
_ccdc_geom_bond_type
O4    Cu2   1.917626 S    
N3    O10   1.302065 A    
C23   C24   1.436480 A    
C3    C18   1.452474 S    
C20   H8    1.083022 S    
H6    C25   1.080807 S    
C12   C13   1.417020 A    
C22   H10   1.061549 S    
C4    C8    1.425083 S    
Cu1   O7    1.917625 S    
H5    C17   1.084059 S    
Cu2   O8    1.916607 S    
C17   C18   1.394628 A    
C10   C11   1.383132 A    
C7    C8    1.199902 T    
C2    C5    1.426101 S    
Cu1   Cu2   2.702124 S    
C21   C22   1.388182 A    
O1    Cu1   1.966344 S    
C10   H2    1.082911 S    
C24   N1    1.381421 A    
C16   C17   1.378967 A    
C19   C24   1.415568 A    
C22   C23   1.415789 A    
C15   C16   1.396551 A    
O3    Cu1   1.916610 S    
Cu2   O6    1.966344 S    
C26   N2    1.367367 A    
C19   C20   1.388169 A    
O8    C4    1.298920 A    
O2    C1    1.300252 A    
C11   C12   1.386703 A    
O4    C2    1.300638 A    
C20   C21   1.378969 A    
O7    C4    1.299214 A    
C25   C26   1.419917 A    
C13   C18   1.419200 A    
C11   H3    1.083015 S    
C23   N2    1.382165 A    
C5    C6    1.199845 T    
H11   C26   1.081780 S    
Cu1   O5    1.962463 S    
C21   H9    1.083042 S    
C9    C10   1.402156 A    
Cu1   N2    2.030530 S    
O3    C2    1.298431 A    
C13   C14   1.420964 A    
C1    C15   1.459608 S    
O5    C3    1.300467 A    
Cu2   N1    2.030799 S    
C14   C15   1.427300 A    
C9    N3    1.430887 S    
C9    C14   1.428012 A    
N3    O9    1.302366 A    
C12   H4    1.076497 S    
N1    C25   1.367599 A    
H1    C16   1.084388 S    
O2    Cu2   1.962463 S    
C19   H7    1.061613 S    
C6    C7    1.402768 S    
O1    C1    1.299670 A    
O6    C3    1.295450 A    
