data_mof_unit_10987.cif
_audit_creation_date              2012-12-10T17:33:47-0500
_audit_creation_method            fapswitch 2.2
_symmetry_space_group_name_H-M    P1
_symmetry_Int_Tables_number       1
_space_group_crystal_system       triclinic
_cell_length_a                    11.657792
_cell_length_b                    12.447311
_cell_length_c                    13.180492
_cell_angle_alpha                 117.12136
_cell_angle_beta                  75.220038
_cell_angle_gamma                 100.908647
_cell_volume                      1640.04550919

loop_
_atom_site_label
_atom_site_type_symbol
_atom_type_description
_atom_site_fract_x
_atom_site_fract_y
_atom_site_fract_z
_atom_type_partial_charge
C1    C     C_R   0.511114 0.855229 0.286212 0.896126
C2    C     C_R   0.478635 0.226712 0.839822 -0.090790
C3    C     C_R   0.608501 0.810194 0.083728 -0.235005
C4    C     C_R   0.661583 0.726007 0.976791 0.633545
C5    C     C_R   0.633979 0.601936 0.945358 -0.116370
C6    C     C_R   0.537685 0.561003 0.015292 -0.073070
C7    C     C_R   0.482746 0.648625 0.123733 -0.138039
C8    C     C_R   0.496332 0.436667 0.984766 0.046220
C9    C     C_R   0.424266 0.400565 0.070218 -0.081772
C10   C     C_R   0.366456 0.489348 0.173490 0.507478
C11   C     C_R   0.387048 0.610073 0.193507 0.555143
C12   C     C_R   0.715057 0.002390 0.503154 0.830056
C13   C     C_R   0.513912 0.349371 0.869627 -0.162058
C14   C     C_R   0.434204 0.188443 0.929774 -0.086914
C15   C     C_R   0.526942 0.772126 0.161523 -0.144231
C16   C     C_R   0.648212 0.306898 0.285942 -0.244420
C17   C     C_R   0.336236 0.761751 0.645180 0.016269
C18   C     C_R   0.280348 0.658689 0.658570 -0.201608
C19   C     C_R   0.329439 0.547682 0.589830 0.613638
C20   C     C_R   0.441558 0.540699 0.514767 -0.115181
C21   C     C_R   0.487365 0.644166 0.491291 0.129785
C22   C     C_R   0.505525 0.431978 0.455198 -0.079919
C23   C     C_R   0.486717 0.144695 0.714492 0.775340
C24   C     C_R   0.584369 0.412056 0.347951 -0.084538
C25   C     C_R   0.604689 0.502164 0.309373 0.502364
C26   C     C_R   0.578353 0.620341 0.387336 -0.151041
C27   C     C_R   0.499941 0.345011 0.499402 0.058807
C28   C     C_R   0.639635 0.227519 0.335090 0.734382
C29   C     C_R   0.284304 0.000490 0.500989 0.836608
C30   C     C_1   0.836879 0.003551 0.504212 -0.104933
C31   C     C_1   0.939525 0.003283 0.504144 0.056972
C32   C     C_1   0.059479 0.002151 0.503278 0.061617
C33   C     C_1   0.162250 0.001126 0.502230 -0.088233
C34   C     C_R   0.404536 0.276021 0.045389 -0.031296
Cu1   Cu    Cu3+1 0.526510 0.098270 0.475420 1.038350
Cu2   Cu    Cu3+1 0.473490 0.901730 0.524580 1.011623
H1    H     H_    0.295084 0.846463 0.694306 0.156977
H2    H     H_    0.546787 0.377942 0.800984 0.157799
H3    H     H_    0.640828 0.904693 0.110039 0.227448
N1    N     N_R   0.566700 0.246290 0.438210 -0.263087
N2    N     N_R   0.434010 0.754320 0.561170 -0.187338
O1    O     O_R   0.533340 0.972510 0.318140 -0.541957
O2    O     O_R   0.488570 0.806530 0.359650 -0.556682
O3    O     O_R   0.685190 0.083000 0.479260 -0.519124
O4    O     O_R   0.640410 0.917020 0.520770 -0.595131
O5    O     O_R   0.511430 0.193470 0.640350 -0.597543
O6    O     O_R   0.466660 0.027490 0.681860 -0.585442
O7    O     O_R   0.359590 0.082980 0.479230 -0.571270
O8    O     O_R   0.314810 0.917000 0.520740 -0.545001
C35   C     C_1   0.416693 0.061305 0.905852 0.281975
N3    N     N_1   0.403058 0.960186 0.888121 -0.271552
F1    F     F_    0.667655 0.481251 0.200395 -0.676125
C36   C     C_1   0.726319 0.278350 0.173781 0.493874
N4    N     N_1   0.788713 0.255008 0.084054 -0.192761
C37   C     C_1   0.431228 0.364013 0.612935 0.418670
N5    N     N_1   0.374740 0.380818 0.704150 -0.263098
F2    F     F_    0.258591 0.445480 0.583223 -0.635676
C38   C     C_1   0.167777 0.665656 0.737581 0.383389
N6    N     N_1   0.077379 0.671236 0.800998 -0.175175
C39   C     C_1   0.664067 0.702692 0.352599 0.452247
N7    N     N_1   0.737027 0.759766 0.315561 -0.271523
F3    F     F_    0.280427 0.459586 0.250026 -0.605770
C40   C     C_1   0.356837 0.237478 0.137823 0.371850
N8    N     N_1   0.319253 0.206659 0.211456 -0.198725
C41   C     C_1   0.717607 0.522684 0.851178 0.354047
N9    N     N_1   0.784980 0.459776 0.775994 -0.221329
F4    F     F_    0.749649 0.765802 0.908726 -0.633394
F5    F     F_    0.310261 0.688524 0.279797 -0.613464
F6    F     F_    0.702921 0.128605 0.278392 -0.652012

loop_
_geom_bond_atom_site_label_1
_geom_bond_atom_site_label_2
_ccdc_geom_bond_type
C16   C28   A    
C4    F4    S    
C37   N5    T    
C14   C34   A    
C6    C7    A    
C1    C15   S    
C17   H1    S    
C9    C10   A    
C12   O4    A    
C19   C20   A    
C27   N1    A    
C21   C26   A    
C12   C30   S    
C32   C33   T    
C7    C15   A    
C17   C18   A    
Cu2   N2    S    
C25   F1    S    
C3    H3    S    
Cu2   O4    S    
C16   C24   A    
C23   O5    A    
C10   F3    S    
C36   N4    T    
C20   C21   A    
C7    C11   A    
Cu1   O3    S    
C30   C31   T    
C13   H2    S    
C14   C35   S    
C39   N7    T    
C21   N2    A    
Cu1   O7    S    
C40   N8    T    
C34   C40   S    
Cu1   O1    S    
C18   C38   S    
C9    C34   A    
Cu1   N1    S    
C22   C24   A    
C22   C27   A    
C5    C6    A    
C2    C14   A    
C27   C37   S    
C38   N6    T    
C17   N2    A    
C23   O6    A    
C10   C11   A    
C28   N1    A    
C29   O7    A    
C3    C4    A    
C8    C13   A    
C29   C33   S    
C1    O1    A    
C3    C15   A    
C24   C25   A    
Cu2   O6    S    
C5    C41   S    
C41   N9    T    
C12   O3    A    
C2    C23   S    
C2    C13   A    
C18   C19   A    
C11   F5    S    
C4    C5    A    
Cu2   O2    S    
C6    C8    A    
C29   O8    A    
C35   N3    T    
C25   C26   A    
C16   C36   S    
Cu1   O5    S    
C26   C39   S    
C1    O2    A    
C31   C32   S    
C19   F2    S    
Cu2   O8    S    
C28   F6    S    
C20   C22   A    
C8    C9    A    
Cu1   Cu2   S    
