data_mof_unit_57104.cif
_audit_creation_date              2013-03-05T15:41:56-0500
_audit_creation_method            fapswitch 2.2
_symmetry_space_group_name_H-M    P1
_symmetry_Int_Tables_number       1
_space_group_crystal_system       triclinic
_cell_length_a                    25.070049
_cell_length_b                    16.78604
_cell_length_c                    15.577163
_cell_angle_alpha                 89.9625
_cell_angle_beta                  49.952874
_cell_angle_gamma                 89.964545
_cell_volume                      5018.17353403

loop_
_atom_site_label
_atom_site_type_symbol
_atom_site_description
_atom_site_fract_x
_atom_site_fract_y
_atom_site_fract_z
_atom_type_partial_charge
C1    C     C_R   0.348725 0.142289 0.768099 -0.112628
C2    C     C_R   0.666583 0.889927 0.197009 -0.117889
C3    C     C_R   0.665870 0.113150 0.199513 -0.108324
C4    C     C_R   0.333522 0.889551 0.802558 -0.120958
C5    C     C_R   0.854480 0.648936 0.749289 -0.109179
C6    C     C_R   0.165831 0.386715 0.199876 -0.112184
C7    C     C_R   0.145916 0.648389 0.248244 -0.112863
C8    C     C_R   0.849415 0.356524 0.765269 -0.105058
H1    H     H_    0.297389 0.153220 0.796269 0.094981
H2    H     H_    0.718400 0.892464 0.170186 0.087132
H3    H     H_    0.717267 0.113402 0.174600 0.091479
H4    H     H_    0.281846 0.891519 0.828774 0.092105
H5    H     H_    0.808490 0.663943 0.760539 0.103285
H6    H     H_    0.217044 0.385930 0.175621 0.095101
H7    H     H_    0.191840 0.663985 0.236909 0.102064
H8    H     H_    0.797625 0.346465 0.795037 0.097774
N1    N     N_R   0.389620 0.081040 0.705440 -0.051831
N2    N     N_R   0.610380 0.918960 0.294560 -0.050400
N3    N     N_R   0.610380 0.081040 0.294560 -0.052411
N4    N     N_R   0.389620 0.918960 0.705440 -0.054006
N5    N     N_R   0.889620 0.581040 0.705440 -0.055150
N6    N     N_R   0.110380 0.418960 0.294560 -0.056469
N7    N     N_R   0.110380 0.581040 0.294560 -0.053607
N8    N     N_R   0.889620 0.418960 0.705440 -0.055195
C9    C     C_R   0.614786 0.105482 0.592985 0.286771
C10   C     C_R   0.412212 0.851997 0.406433 0.338267
C11   C     C_R   0.410066 0.145408 0.405022 0.338855
C12   C     C_R   0.587184 0.850120 0.591730 0.339019
C13   C     C_R   0.114982 0.606479 0.592886 0.265411
C14   C     C_R   0.911192 0.351830 0.407526 0.339133
C15   C     C_R   0.885503 0.605662 0.406310 0.282701
C16   C     C_R   0.117493 0.396534 0.590246 0.256661
N9    N     N_R   0.582320 0.079840 0.556630 -0.089242
N10   N     N_R   0.417680 0.920160 0.443370 -0.083018
N11   N     N_R   0.417680 0.079840 0.443370 -0.082734
N12   N     N_R   0.582320 0.920160 0.556630 -0.083845
N13   N     N_R   0.082320 0.579840 0.556630 -0.094289
N14   N     N_R   0.917680 0.420160 0.443370 -0.085262
N15   N     N_R   0.917680 0.579840 0.443370 -0.090135
N16   N     N_R   0.082320 0.420160 0.556630 -0.094901
C17   C     C_R   0.688757 0.107778 0.406451 -0.188263
C18   C     C_R   0.337619 0.852051 0.593067 -0.189660
C19   C     C_R   0.332704 0.144121 0.591520 -0.196962
C20   C     C_R   0.662446 0.852102 0.405720 -0.195546
C21   C     C_R   0.189131 0.606906 0.406787 -0.212632
C22   C     C_R   0.832292 0.356338 0.593044 -0.205712
C23   C     C_R   0.810983 0.607020 0.592403 -0.211365
C24   C     C_R   0.189594 0.393999 0.404328 -0.188359
H9    H     H_    0.736054 0.108149 0.319746 0.118842
H10   H     H_    0.295144 0.837422 0.679635 0.125170
H11   H     H_    0.284898 0.154622 0.675356 0.119188
H12   H     H_    0.705168 0.838302 0.318969 0.126652
H13   H     H_    0.236823 0.605763 0.320458 0.123301
H14   H     H_    0.783590 0.347862 0.676521 0.120370
H15   H     H_    0.763082 0.606028 0.678541 0.125483
H16   H     H_    0.236262 0.393897 0.317100 0.119016
N17   N     N_R   0.627920 0.078930 0.443400 -0.058708
N18   N     N_R   0.372080 0.921070 0.556600 -0.059765
N19   N     N_R   0.372080 0.078930 0.556600 -0.057443
N20   N     N_R   0.627920 0.921070 0.443400 -0.061497
N21   N     N_R   0.127920 0.578930 0.443400 -0.059854
N22   N     N_R   0.872080 0.421070 0.556600 -0.058660
N23   N     N_R   0.872080 0.578930 0.556600 -0.060696
N24   N     N_R   0.127920 0.421070 0.443400 -0.059249
C25   C     C_R   0.579602 0.106691 0.194334 -0.084724
C26   C     C_R   0.419900 0.895383 0.806926 -0.029275
C27   C     C_R   0.440805 0.143085 0.759618 -0.080353
C28   C     C_R   0.579967 0.895141 0.193279 -0.075377
C29   C     C_R   0.057158 0.646603 0.247567 -0.077068
C30   C     C_R   0.943673 0.352106 0.749511 -0.032355
C31   C     C_R   0.944281 0.649370 0.746378 -0.042299
C32   C     C_R   0.079944 0.394110 0.193825 -0.029340
H17   H     H_    0.554870 0.098408 0.158512 0.184478
H18   H     H_    0.445079 0.904231 0.842011 0.190152
H19   H     H_    0.478018 0.161075 0.769065 0.142122
H20   H     H_    0.554910 0.903980 0.158069 0.182006
H21   H     H_    0.020359 0.665098 0.237381 0.137894
H22   H     H_    0.984509 0.327276 0.745899 0.132391
H23   H     H_    0.982967 0.672079 0.749730 0.129532
H24   H     H_    0.055277 0.402973 0.157881 0.192819
N25   N     N_R   0.555090 0.077730 0.294590 -0.066671
N26   N     N_R   0.444910 0.922270 0.705410 -0.065574
N27   N     N_R   0.444910 0.077730 0.705410 -0.043346
N28   N     N_R   0.555090 0.922270 0.294590 -0.066453
N29   N     N_R   0.055090 0.577730 0.294590 -0.040901
N30   N     N_R   0.944910 0.422270 0.705410 -0.038358
N31   N     N_R   0.944910 0.577730 0.705410 -0.034293
N32   N     N_R   0.055090 0.422270 0.294590 -0.067409
C33   C     C_R   0.382122 0.185448 0.796573 0.104773
C34   C     C_R   0.649328 0.875013 0.130768 0.108297
C35   C     C_R   0.648521 0.128440 0.133318 0.106188
C36   C     C_R   0.350613 0.874880 0.869076 0.092510
C37   C     C_R   0.888379 0.694244 0.774754 0.082802
C38   C     C_R   0.148774 0.372000 0.133239 0.088081
C39   C     C_R   0.112812 0.692059 0.219397 0.099728
C40   C     C_R   0.884571 0.310468 0.787516 0.085126
C41   C     C_R   0.681684 0.124291 0.499569 -0.084867
C42   C     C_R   0.362030 0.807298 0.499513 -0.095564
C43   C     C_R   0.358098 0.188666 0.497556 -0.101892
C44   C     C_R   0.637710 0.805995 0.498061 -0.090010
C45   C     C_R   0.182143 0.624621 0.499575 -0.067108
C46   C     C_R   0.858282 0.309895 0.500860 -0.093652
C47   C     C_R   0.818341 0.624485 0.498978 -0.076485
C48   C     C_R   0.184377 0.379653 0.495496 -0.068538
Ni1   Ni    Ni4+2 0.382970 1.000000 0.629840 0.201491
Ni2   Ni    Ni4+2 0.617030 0.000000 0.370160 0.190403
Ni3   Ni    Ni4+2 0.882970 0.500000 0.629840 0.205869
Ni4   Ni    Ni4+2 0.117030 0.500000 0.370160 0.192028
Ni5   Ni    Ni4+2 0.514540 1.000000 0.629840 0.306792
Ni6   Ni    Ni4+2 0.485460 0.000000 0.370160 0.289745
Ni7   Ni    Ni4+2 0.014540 0.500000 0.629840 0.329101
Ni8   Ni    Ni4+2 0.985460 0.500000 0.370160 0.306142
C49   C     C_3   0.342361 0.322701 0.422582 -0.140263
C50   C     C_3   0.660226 0.668847 0.562371 -0.129801
C51   C     C_3   0.712740 0.241529 0.561908 -0.137487
C52   C     C_3   0.340540 0.671005 0.433450 -0.139605
C53   C     C_3   0.785461 0.740180 0.434770 -0.143304
C54   C     C_3   0.212172 0.265092 0.566499 -0.160634
C55   C     C_3   0.214502 0.740590 0.563643 -0.149344
C56   C     C_3   0.838698 0.171960 0.436142 -0.136873
C57   C     C_3   0.717930 0.776511 0.539178 -0.145302
C58   C     C_3   0.274691 0.220545 0.464059 -0.129392
C59   C     C_3   0.281300 0.778010 0.459224 -0.138717
C60   C     C_3   0.770346 0.134225 0.541248 -0.128034
C61   C     C_3   0.278929 0.368273 0.525145 -0.112991
C62   C     C_3   0.728944 0.631409 0.457409 -0.123430
C63   C     C_3   0.779945 0.278137 0.457201 -0.137683
C64   C     C_3   0.272639 0.632514 0.538327 -0.116116
H25   H     H_    0.713523 0.836983 0.572130 0.156038
H26   H     H_    0.273642 0.158861 0.439403 0.149773
H27   H     H_    0.284960 0.838662 0.427252 0.156342
H28   H     H_    0.764967 0.073854 0.575172 0.148764
H29   H     H_    0.280562 0.430048 0.548429 0.142093
H30   H     H_    0.734794 0.570617 0.424291 0.151460
H31   H     H_    0.784168 0.338188 0.423300 0.157813
H32   H     H_    0.267690 0.571808 0.570824 0.150988
H33   H     H_    0.396460 0.345994 0.365422 0.161998
H34   H     H_    0.608205 0.640126 0.613427 0.160332
H35   H     H_    0.660307 0.269417 0.613168 0.133522
H36   H     H_    0.392992 0.643224 0.381279 0.158103
H37   H     H_    0.837498 0.769052 0.382865 0.132651
H38   H     H_    0.157967 0.242056 0.625409 0.128596
H39   H     H_    0.162097 0.768653 0.616691 0.131265
H40   H     H_    0.891144 0.144373 0.385945 0.159389
C65   C     C_3   0.680384 0.746944 0.497059 0.151805
C66   C     C_3   0.317735 0.248511 0.496432 0.158573
C67   C     C_3   0.319733 0.748593 0.499849 0.152153
C68   C     C_3   0.733428 0.162876 0.498035 0.168741
C69   C     C_3   0.236008 0.339406 0.492866 0.167970
C70   C     C_3   0.766013 0.662081 0.499638 0.168084
C71   C     C_3   0.817165 0.250587 0.500424 0.152812
C72   C     C_3   0.234512 0.662924 0.497804 0.168245
C73   C     C_3   0.298468 0.295163 0.390245 -0.092830
C74   C     C_3   0.698421 0.698142 0.604420 -0.095388
C75   C     C_3   0.750232 0.214024 0.605309 -0.071022
C76   C     C_3   0.301340 0.700049 0.392982 -0.093585
C77   C     C_3   0.747788 0.710710 0.392391 -0.067095
C78   C     C_3   0.255602 0.292916 0.598989 -0.083407
C79   C     C_3   0.253164 0.711314 0.604405 -0.063466
C80   C     C_3   0.800674 0.199141 0.392944 -0.092709
H41   H     H_    0.315622 0.296579 0.304451 0.139888
H42   H     H_    0.678484 0.692998 0.691717 0.140707
H43   H     H_    0.730604 0.220434 0.692314 0.130530
H44   H     H_    0.320677 0.695301 0.306009 0.140959
H45   H     H_    0.767166 0.716173 0.305443 0.139538
H46   H     H_    0.239196 0.291254 0.684304 0.126758
H47   H     H_    0.234307 0.716222 0.691084 0.138535
H48   H     H_    0.821008 0.192719 0.305557 0.139001
H49   H     H_    0.211314 0.886780 0.013415 0.130202
H50   H     H_    0.787154 0.112621 0.987613 0.126507
H51   H     H_    0.788881 0.886146 0.984777 0.126259
H52   H     H_    0.298150 0.289875 0.809253 0.131330
H53   H     H_    0.794674 0.210394 0.809432 0.130075
H54   H     H_    0.204595 0.792955 0.193173 0.133611
H55   H     H_    0.287178 0.387554 0.989840 0.131426
H56   H     H_    0.792845 0.792394 0.807327 0.132602
C81   C     C_2   0.696830 0.149810 0.014444 -0.174621
C82   C     C_2   0.301988 0.854035 0.988377 -0.169168
C83   C     C_2   0.358250 0.261190 0.856464 -0.198421
C84   C     C_2   0.697603 0.854363 0.011335 -0.175122
C85   C     C_2   0.136318 0.768679 0.160684 -0.200290
C86   C     C_2   0.861600 0.233473 0.844734 -0.197466
C87   C     C_2   0.865272 0.771558 0.831925 -0.198926
C88   C     C_2   0.197504 0.350493 0.014556 -0.163277
C89   C     C_2   0.765707 0.142326 0.953823 -0.114430
C90   C     C_2   0.232966 0.859089 0.048008 -0.112932
C91   C     C_2   0.312248 0.305123 0.860213 -0.111543
C92   C     C_2   0.766743 0.859091 0.950649 -0.116195
C93   C     C_2   0.187226 0.809290 0.147203 -0.105701
C94   C     C_2   0.811618 0.192837 0.855750 -0.107350
C95   C     C_2   0.812045 0.810172 0.850118 -0.101498
C96   C     C_2   0.266241 0.357491 0.955519 -0.111560
H57   H     H_    0.322994 0.826050 0.024028 0.154080
H58   H     H_    0.675901 0.179755 0.979815 0.153040
H59   H     H_    0.676101 0.827098 0.976119 0.154817
H60   H     H_    0.372070 0.276135 0.907891 0.144990
H61   H     H_    0.878436 0.216110 0.891281 0.144933
H62   H     H_    0.119523 0.785186 0.113815 0.142235
H63   H     H_    0.177119 0.320023 0.979435 0.151550
H64   H     H_    0.883974 0.789565 0.875511 0.141378
N33   N     N_R   0.590501 0.089158 0.703646 0.231029
O1    O     O_R   0.537146 0.042686 0.770469 -0.378926
O2    O     O_R   0.620097 0.120785 0.739741 -0.411692
N34   N     N_R   0.434325 0.842021 0.296580 0.209910
O3    O     O_R   0.429336 0.901150 0.248066 -0.377480
O4    O     O_R   0.456949 0.773395 0.246332 -0.429535
N35   N     N_R   0.431059 0.151563 0.295459 0.210910
O5    O     O_R   0.428485 0.089103 0.248802 -0.374066
O6    O     O_R   0.453722 0.218721 0.241096 -0.436652
N36   N     N_R   0.561683 0.834851 0.702725 0.210697
O7    O     O_R   0.573406 0.885783 0.751702 -0.360152
O8    O     O_R   0.535041 0.765785 0.749062 -0.434792
N37   N     N_R   0.088982 0.597191 0.706137 0.240194
O9    O     O_R   0.027596 0.567335 0.783389 -0.341313
O10   O     O_R   0.127056 0.614698 0.732926 -0.381961
N38   N     N_R   0.937146 0.337922 0.296038 0.210203
O11   O     O_R   0.926083 0.390102 0.247346 -0.349923
O12   O     O_R   0.963259 0.268900 0.249014 -0.439969
N39   N     N_R   0.910704 0.590103 0.294933 0.233263
O13   O     O_R   0.965589 0.545867 0.227094 -0.370486
O14   O     O_R   0.879907 0.619466 0.259652 -0.401346
N40   N     N_R   0.097227 0.412675 0.698730 0.244303
O15   O     O_R   0.032283 0.415044 0.788913 -0.351084
O16   O     O_R   0.144037 0.429144 0.707843 -0.377986

loop_
_geom_bond_atom_site_label_1
_geom_bond_atom_site_label_2
_geom_bond_distance
_ccdc_geom_bond_type
C48   C69   1.436749 S    
N5    N31   1.386899 A    
C27   N27   1.347738 A    
C1    C33   1.378991 A    
N4    N26   1.386968 A    
C2    N2    1.332964 A    
C55   H39   1.110627 S    
N33   O1    1.299911 A    
C31   C37   1.388836 A    
C29   H21   1.077299 S    
C8    C40   1.373484 A    
C24   H16   1.081375 S    
N29   Ni8   1.868658 S    
C67   C79   1.526964 S    
N25   Ni6   1.868658 S    
C18   N18   1.334232 A    
C31   H23   1.074392 S    
N34   O4    1.300181 A    
C51   C63   1.529796 S    
C89   C94   1.454074 S    
C28   C34   1.380898 A    
N37   O9    1.297939 A    
C80   H48   1.109782 S    
C60   C68   1.530295 S    
C14   N14   1.331067 A    
N19   Ni1   1.878812 S    
H51   C92   1.084988 S    
C22   N22   1.330332 A    
C92   C95   1.458876 S    
N11   N19   1.350324 A    
C30   H22   1.072548 S    
C63   H31   1.110716 S    
H49   C90   1.084814 S    
C9    N33   1.437447 S    
N15   N23   1.350324 A    
C18   C42   1.384133 A    
C68   C80   1.530067 S    
C50   C62   1.552875 S    
N23   Ni3   1.878812 S    
C7    N7    1.328663 A    
C24   N24   1.325179 A    
C83   C91   1.337764 D    
C42   C67   1.445566 S    
H52   C91   1.087198 S    
C12   N36   1.428650 S    
C6    N6    1.327596 A    
H53   C94   1.087121 S    
C27   C33   1.382346 A    
C81   C89   1.338184 D    
N35   O6    1.300438 A    
C60   H28   1.110032 S    
C3    C35   1.376556 A    
C54   C58   1.530936 S    
C2    C34   1.374552 A    
N21   Ni4   1.880101 S    
C53   C57   1.529723 S    
C69   C73   1.529006 S    
C84   C92   1.340129 D    
C47   C70   1.449486 S    
C63   C71   1.531466 S    
C85   C93   1.339257 D    
C10   N10   1.327239 A    
C2    H2    1.079596 S    
C72   C76   1.530061 S    
C15   N15   1.330545 A    
C6    C38   1.375873 A    
C56   H40   1.109668 S    
N2    N28   1.386902 A    
C16   C48   1.373161 A    
C3    N3    1.329388 A    
C53   C70   1.530509 S    
N6    N32   1.386902 A    
C71   C75   1.527683 S    
C4    H4    1.079516 S    
N27   Ni5   1.868225 S    
C5    H5    1.078538 S    
C19   N19   1.332778 A    
C46   C71   1.436661 S    
C83   H60   1.087315 S    
C8    N8    1.331964 A    
C32   C38   1.382044 A    
C5    C37   1.375851 A    
C20   H12   1.079120 S    
C33   C83   1.458467 S    
N17   Ni2   1.880101 S    
C21   H13   1.081331 S    
C8    H8    1.074591 S    
C49   C61   1.548305 S    
N33   O2    1.298542 A    
C24   C48   1.361054 A    
C22   H14   1.076465 S    
C86   H61   1.087301 S    
C38   C88   1.461026 S    
C85   H62   1.087320 S    
C62   H30   1.110014 S    
C17   H9    1.081360 S    
C32   N32   1.348137 A    
C64   C72   1.532358 S    
N24   Ni4   1.878810 S    
N16   Ni7   1.868050 S    
C15   N39   1.437801 S    
C59   C76   1.537405 S    
N37   O10   1.297969 A    
C10   N34   1.429364 S    
C82   H57   1.087257 S    
C34   C84   1.465935 S    
C23   C47   1.375480 A    
C57   C74   1.536897 S    
C53   C77   1.541377 S    
N35   O5    1.301176 A    
C28   N28   1.349407 A    
N26   Ni5   1.868658 S    
C37   C87   1.466175 S    
C1    H1    1.075022 S    
N38   O11   1.299595 A    
C7    H7    1.078852 S    
C54   H38   1.110727 S    
C25   H17   1.077298 S    
C77   H45   1.109958 S    
H55   C96   1.085252 S    
C61   C78   1.548750 S    
C39   C85   1.464158 S    
C58   C66   1.529802 S    
C49   C73   1.546771 S    
N22   Ni3   1.880103 S    
C51   H35   1.110715 S    
C75   H43   1.110176 S    
C20   C44   1.379810 A    
C58   H26   1.110804 S    
C51   C68   1.529329 S    
N28   Ni6   1.868225 S    
C73   H41   1.109925 S    
N1    N27   1.386899 A    
C5    N5    1.329292 A    
C82   C90   1.340076 D    
C49   C66   1.529891 S    
C15   C47   1.375073 A    
C54   C69   1.531605 S    
C30   C40   1.380688 A    
N2    Ni2   1.876210 S    
C29   N29   1.351264 A    
N1    Ni1   1.876210 S    
C61   C69   1.530579 S    
C26   N26   1.349426 A    
C22   C46   1.375188 A    
C13   N37   1.442684 S    
C44   C65   1.450700 S    
C88   H63   1.087451 S    
C11   C43   1.373305 A    
C16   N40   1.443199 S    
C14   C46   1.373645 A    
C88   C96   1.337864 D    
C13   C45   1.375179 A    
N8    Ni3   1.874942 S    
C20   N20   1.334121 A    
N40   O16   1.299440 A    
N11   Ni6   1.868050 S    
C76   H44   1.109855 S    
C91   C96   1.450543 S    
N5    Ni3   1.876210 S    
C84   H59   1.087246 S    
C36   C82   1.465082 S    
C10   C42   1.378551 A    
C31   N31   1.357078 A    
N32   Ni8   1.868225 S    
C52   C76   1.548233 S    
C9    C41   1.374591 A    
N15   Ni8   1.868050 S    
C43   C66   1.433494 S    
C59   C67   1.535011 S    
N36   O8    1.300248 A    
C21   C45   1.372178 A    
N7    N29   1.386971 A    
N10   Ni6   1.868488 S    
C41   C68   1.436640 S    
C17   C41   1.371781 A    
C54   C78   1.539429 S    
C27   H19   1.077167 S    
C52   C64   1.550947 S    
N14   Ni8   1.868488 S    
C30   N30   1.353377 A    
N39   O13   1.300009 A    
C16   N16   1.342575 A    
N20   Ni2   1.878810 S    
C53   H37   1.110607 S    
C78   H46   1.110248 S    
C23   H15   1.081325 S    
N4    Ni1   1.874942 S    
C62   C77   1.550554 S    
C61   H29   1.108214 S    
C55   C72   1.530368 S    
C25   C35   1.381674 A    
C57   H25   1.110698 S    
C56   C71   1.530127 S    
N9    N17   1.350335 A    
N13   N21   1.350335 A    
C18   H10   1.079209 S    
C59   H27   1.110690 S    
C74   H42   1.109834 S    
C50   C65   1.531823 S    
N38   O12   1.300222 A    
C29   C39   1.390864 A    
C87   C95   1.339260 D    
C52   C67   1.531259 S    
C26   C36   1.381749 A    
C66   C78   1.527080 S    
C55   C59   1.529508 S    
C52   H36   1.109780 S    
C28   H20   1.077305 S    
C7    C39   1.380858 A    
C65   C77   1.529165 S    
C45   C72   1.446453 S    
C1    N1    1.331597 A    
C87   H64   1.087313 S    
N16   N24   1.350325 A    
C40   C86   1.461277 S    
C49   H33   1.109660 S    
C11   N11   1.322967 A    
N18   Ni1   1.880103 S    
C90   C93   1.456253 S    
C64   H32   1.108469 S    
N30   Ni7   1.868658 S    
C51   C75   1.539623 S    
C17   N17   1.327734 A    
C6    H6    1.080316 S    
C32   H24   1.078603 S    
C56   C80   1.547305 S    
C19   C43   1.380897 A    
N31   Ni7   1.868225 S    
C23   N23   1.334028 A    
C62   C70   1.532691 S    
C12   C44   1.379851 A    
C19   H11   1.076502 S    
N6    Ni4   1.876210 S    
N7    Ni4   1.874942 S    
C35   C81   1.462224 S    
H50   C89   1.085490 S    
C21   N21   1.332291 A    
C58   C73   1.537314 S    
C79   H47   1.109976 S    
C57   C65   1.535746 S    
N39   O14   1.298562 A    
C50   H34   1.109669 S    
N40   O15   1.297158 A    
H56   C95   1.085540 S    
C81   H58   1.087415 S    
N13   Ni7   1.868488 S    
C3    H3    1.080503 S    
H54   C93   1.085574 S    
C14   N38   1.428317 S    
C4    N4    1.331264 A    
N3    Ni2   1.874942 S    
N9    Ni5   1.868488 S    
N34   O3    1.300920 A    
C12   N12   1.334482 A    
C11   N35   1.429828 S    
C55   C79   1.541122 S    
N36   O7    1.299647 A    
C70   C74   1.530618 S    
C60   C75   1.548445 S    
C13   N13   1.336163 A    
N12   Ni5   1.868050 S    
N10   N18   1.350334 A    
N12   N20   1.350325 A    
C25   N25   1.348068 A    
C86   C94   1.337572 D    
N14   N22   1.350334 A    
N3    N25   1.386971 A    
N8    N30   1.386968 A    
C63   C80   1.536812 S    
C50   C74   1.547859 S    
C56   C60   1.551730 S    
C64   C79   1.549765 S    
C9    N9    1.327545 A    
C4    C36   1.374319 A    
C26   H18   1.078614 S    
