data_mof_unit_22675.cif
_audit_creation_date              2013-03-05T15:55:22-0500
_audit_creation_method            fapswitch 2.2
_symmetry_space_group_name_H-M    P1
_symmetry_Int_Tables_number       1
_space_group_crystal_system       triclinic
_cell_length_a                    27.739378
_cell_length_b                    10.719524
_cell_length_c                    9.86927
_cell_angle_alpha                 89.200376
_cell_angle_beta                  90.006395
_cell_angle_gamma                 91.750658
_cell_volume                      2933.0007521

loop_
_atom_site_label
_atom_site_type_symbol
_atom_site_description
_atom_site_fract_x
_atom_site_fract_y
_atom_site_fract_z
_atom_type_partial_charge
O1    O     O_R   0.500000 0.316780 0.614690 -0.654557
O2    O     O_R   0.500000 0.316750 0.385360 -0.637895
C1    C     C_R   0.502879 0.259756 0.502042 0.875441
O3    O     O_R   0.428760 0.500030 0.614650 -0.648241
O4    O     O_R   0.428750 0.500010 0.385320 -0.639856
C2    C     C_R   0.406046 0.499199 0.500004 0.851236
Zn1   Zn    Zn3+2 0.500000 0.500020 0.653130 0.930503
Zn2   Zn    Zn3+2 0.500000 0.499980 0.346870 0.941187
O5    O     O_R   0.500000 0.683250 0.614640 -0.622767
O6    O     O_R   0.500000 0.683220 0.385310 -0.618933
O7    O     O_R   0.571250 0.499990 0.614680 -0.618518
O8    O     O_R   0.571240 0.499970 0.385350 -0.616530
C3    C     C_R   0.494913 0.738816 0.499624 0.894504
C4    C     C_R   0.593958 0.500124 0.500030 0.901712
C5    C     C_R   0.176328 0.382928 0.484735 0.504126
O9    O     O_2   0.199946 0.275479 0.471633 -0.553193
N1    N     N_R   0.201693 0.492964 0.499632 -0.358927
C6    C     C_R   0.179318 0.603683 0.513563 0.505220
C7    C     C_R   0.277887 0.484386 0.377578 -0.103225
C8    C     C_R   0.327974 0.486599 0.377378 -0.219590
C9    C     C_R   0.328051 0.503863 0.622776 -0.223071
C10   C     C_R   0.277961 0.502043 0.622507 -0.101865
C11   C     C_R   0.252980 0.492527 0.499985 0.324832
C12   C     C_R   0.101815 0.494415 0.497733 -0.051541
C13   C     C_R   0.125888 0.381517 0.483484 -0.020879
C14   C     C_R   0.099305 0.269945 0.469433 -0.136646
C15   C     C_R   0.128955 0.606555 0.512902 -0.022345
C16   C     C_R   0.353387 0.496721 0.500044 -0.036425
H1    H     H_    0.346840 0.511382 0.718678 0.165380
H2    H     H_    0.258482 0.508249 0.717147 0.138079
H3    H     H_    0.117031 0.181727 0.460524 0.189667
C17   C     C_R   0.646618 0.499559 0.500166 -0.083894
C18   C     C_R   0.972962 0.383553 0.470845 0.045919
C19   C     C_R   0.976033 0.609001 0.521205 0.046369
C20   C     C_R   0.949279 0.496579 0.496049 0.074230
C21   C     C_R   0.944577 0.276017 0.438784 -0.211010
C22   C     C_R   0.894647 0.278064 0.437861 -0.123184
C23   C     C_R   0.871092 0.387374 0.467817 -0.024501
C24   C     C_R   0.898202 0.497148 0.496287 -0.048748
C25   C     C_R   0.874099 0.607476 0.525077 -0.023739
C26   C     C_R   0.823675 0.605819 0.525328 0.542690
N2    N     N_R   0.798336 0.497814 0.498719 -0.352426
C27   C     C_R   0.820719 0.389826 0.469514 0.539084
C28   C     C_R   0.721856 0.485010 0.623296 0.216992
C29   C     C_R   0.671741 0.486161 0.622772 -0.236179
C30   C     C_R   0.672173 0.511917 0.377774 -0.198442
C31   C     C_R   0.722206 0.511296 0.378172 -0.124584
C32   C     C_R   0.747037 0.498029 0.500438 0.267573
O10   O     O_2   0.794199 0.285313 0.442907 -0.534730
C33   C     C_R   0.023966 0.381713 0.477590 0.047646
C34   C     C_R   0.050739 0.495179 0.496855 0.071213
C35   C     C_R   0.027077 0.609401 0.515336 0.047028
C36   C     C_R   0.049345 0.269687 0.466986 -0.212738
H4    H     H_    0.652597 0.475816 0.718088 0.180034
H5    H     H_    0.874542 0.193076 0.413360 0.194523
H6    H     H_    0.959714 0.188637 0.411251 0.142277
H7    H     H_    0.031771 0.179134 0.459368 0.139232
O11   O     O_2   0.205838 0.710472 0.527431 -0.551060
C37   C     C_R   0.105454 0.718904 0.525816 -0.134469
H8    H     H_    0.346691 0.480382 0.281504 0.166225
H9    H     H_    0.258357 0.477153 0.282851 0.138234
H10   H     H_    0.125598 0.806579 0.535257 0.192156
C38   C     C_R   0.950588 0.717332 0.552721 -0.212070
C39   C     C_R   0.900625 0.716404 0.554058 -0.126098
O12   O     O_2   0.800017 0.710918 0.552075 -0.534127
C40   C     C_R   0.055527 0.720659 0.526523 -0.212962
H11   H     H_    0.968083 0.804465 0.579791 0.141851
H12   H     H_    0.653599 0.522501 0.281953 0.172486
H13   H     H_    0.882849 0.801859 0.578560 0.193466
H14   H     H_    0.741824 0.521217 0.283568 0.161626
H15   H     H_    0.040475 0.811714 0.533458 0.139559
H16   H     H_    0.510145 0.114165 0.288339 0.172856
C41   C     C_R   0.507263 0.106768 0.762667 -0.156184
H17   H     H_    0.528418 0.191430 0.778459 0.174796
C42   C     C_R   0.490939 0.043218 0.878969 -0.141831
H18   H     H_    0.497113 0.083134 0.977898 0.146769
C43   C     C_R   0.465672 0.930051 0.867357 -0.153523
H19   H     H_    0.451068 0.882983 0.956739 0.141828
C44   C     C_R   0.461126 0.874835 0.740903 -0.145617
H20   H     H_    0.441357 0.786450 0.735519 0.160385
C45   C     C_R   0.481776 0.933440 0.624042 0.099352
C46   C     C_R   0.498133 0.057643 0.631825 0.096496
C47   C     C_R   0.504467 0.125684 0.507782 -0.118167
C48   C     C_R   0.504575 0.064385 0.383680 -0.209551
H21   H     H_    0.502363 0.891312 0.284353 0.169862
C49   C     C_R   0.498409 0.937465 0.380561 -0.207932
C50   C     C_R   0.488564 0.871174 0.500421 -0.127817
H22   H     H_    0.554411 0.639795 0.123679 0.150176
C51   C     C_R   0.436160 0.337226 0.142692 -0.176626
H23   H     H_    0.433988 0.330996 0.250119 0.209748
C52   C     C_R   0.404592 0.257693 0.073235 -0.210949
H24   H     H_    0.380106 0.195181 0.128729 0.164365
C53   C     C_R   0.404546 0.258059 0.933035 -0.179332
H25   H     H_    0.380166 0.195491 0.879118 0.165288
C54   C     C_R   0.436184 0.337655 0.861584 -0.167780
H26   H     H_    0.434574 0.330879 0.754274 0.211681
C55   C     C_R   0.468530 0.419863 0.928661 0.149196
C56   C     C_R   0.468537 0.419794 0.073527 0.170513
N3    N     N_R   0.499540 0.498800 0.142780 -0.122909
C57   C     C_R   0.529971 0.576996 0.070477 -0.122086
H27   H     H_    0.554366 0.639786 0.871909 0.160316
C58   C     C_R   0.529955 0.576964 0.927062 -0.112674
N4    N     N_R   0.499520 0.498720 0.857170 -0.129038
I1    I     I_    0.758001 0.461592 0.810701 -0.313942

loop_
_geom_bond_atom_site_label_1
_geom_bond_atom_site_label_2
_geom_bond_distance
_ccdc_geom_bond_type
C53   H25   1.082826 S    
C26   N2    1.364610 A    
C20   C24   1.417052 A    
C54   H26   1.063413 S    
C12   C15   1.408521 A    
C55   C56   1.429711 A    
C28   I1    2.119236 S    
C43   H19   1.082589 S    
Zn1   O7    2.012582 S    
N1    C11   1.422819 S    
C47   C48   1.398029 A    
C21   C22   1.385912 A    
Zn2   N3    2.014472 S    
C48   C49   1.366807 A    
C37   C40   1.385671 A    
C23   C24   1.408639 A    
O7    C4    1.295054 A    
C5    C13   1.398852 A    
C52   C53   1.383623 A    
C5    O9    1.350134 S    
C18   C21   1.415460 A    
C5    N1    1.364577 A    
C19   C20   1.420698 A    
C17   C29   1.404121 A    
O5    C3    1.284304 A    
C6    O11   1.350259 S    
C2    C16   1.460138 S    
C40   H15   1.076339 S    
C8    H8    1.083190 S    
C12   C34   1.417110 A    
C14   H3    1.083749 S    
C53   C54   1.390349 A    
Zn1   N4    2.013621 S    
C9    C10   1.389029 A    
C41   C42   1.395001 A    
O3    Zn1   2.012278 S    
C45   C46   1.396553 A    
C43   C44   1.392762 A    
C41   H17   1.078735 S    
C38   H11   1.076358 S    
H16   C48   1.083969 S    
C33   C36   1.415565 A    
C34   C35   1.420782 A    
H27   C58   1.081802 S    
C12   C13   1.408710 A    
O3    C2    1.295026 A    
C24   C25   1.408614 A    
C44   C45   1.418058 A    
C36   H7    1.076399 S    
C49   C50   1.394131 A    
C27   O10   1.350211 S    
C26   O12   1.350236 S    
C8    C16   1.404688 A    
C33   C34   1.420676 A    
C18   C33   1.417114 A    
H21   C49   1.083888 S    
C9    H1    1.083245 S    
C44   H20   1.082055 S    
O1    C1    1.279841 A    
C7    C11   1.396867 A    
C42   H18   1.082966 S    
C31   H14   1.083050 S    
C30   H12   1.083115 S    
C22   C23   1.394207 A    
C21   H6    1.076413 S    
C55   N4    1.374924 A    
C31   C32   1.397046 A    
Zn2   O8    2.012275 S    
C3    C50   1.435162 S    
C57   C58   1.415406 A    
N1    C6    1.364678 A    
N2    C32   1.423173 S    
C39   H13   1.083763 S    
C42   C43   1.388501 A    
H22   C57   1.081840 S    
C25   C26   1.398283 A    
C9    C16   1.404652 A    
O8    C4    1.295357 A    
C29   H4    1.082983 S    
C56   N3    1.376783 A    
C1    C47   1.439531 S    
C51   C52   1.390715 A    
N2    C27   1.364488 A    
C14   C36   1.386000 A    
C41   C46   1.421164 A    
C52   H24   1.082773 S    
C35   C40   1.415448 A    
C28   C29   1.390599 A    
Zn1   O5    1.995324 S    
C30   C31   1.388106 A    
C37   H10   1.083772 S    
C10   H2    1.082979 S    
O1    Zn1   2.005738 S    
C17   C30   1.403261 A    
O2    Zn2   1.995322 S    
C6    C15   1.398333 A    
C4    C17   1.460945 S    
O6    C3    1.293000 A    
O4    Zn2   2.012585 S    
C54   C55   1.409881 A    
C19   C35   1.416984 A    
C25   C39   1.394079 A    
N3    C57   1.365503 A    
C51   C56   1.410907 A    
C7    C8    1.388856 A    
O2    C1    1.299645 A    
C13   C14   1.394318 A    
C23   C27   1.398483 A    
C15   C37   1.394237 A    
C45   C50   1.414198 A    
O4    C2    1.295124 A    
C7    H9    1.082990 S    
C19   C38   1.415517 A    
C18   C20   1.420727 A    
C58   N4    1.365579 A    
C38   C39   1.385723 A    
C22   H5    1.083775 S    
Zn2   O6    2.005738 S    
C46   C47   1.424368 A    
C10   C11   1.397028 A    
C51   H23   1.062992 S    
C28   C32   1.402524 A    
