data_mof_unit_45922.cif
_audit_creation_date              2012-12-10T17:10:23-0500
_audit_creation_method            fapswitch 2.2
_symmetry_space_group_name_H-M    P1
_symmetry_Int_Tables_number       1
_space_group_crystal_system       triclinic
_cell_length_a                    10.824405
_cell_length_b                    12.967201
_cell_length_c                    11.666763
_cell_angle_alpha                 100.495118
_cell_angle_beta                  91.567547
_cell_angle_gamma                 88.893645
_cell_volume                      1609.40350566

loop_
_atom_site_label
_atom_site_type_symbol
_atom_type_description
_atom_site_fract_x
_atom_site_fract_y
_atom_site_fract_z
_atom_type_partial_charge
C1    C     C_R   0.491684 0.299370 0.478544 0.881759
C2    C     C_R   0.508317 0.700629 0.521456 0.881762
C3    C     C_R   0.517492 0.814123 0.533603 -0.102070
C4    C     C_R   0.482510 0.185876 0.466397 -0.102069
C5    C     C_R   0.402155 0.017739 0.371725 -0.204617
C6    C     C_R   0.597847 0.982260 0.628274 -0.204611
C7    C     C_R   0.410606 0.125455 0.376690 0.365389
C8    C     C_R   0.589395 0.874544 0.623309 0.365394
C9    C     C_R   0.544558 0.137563 0.549694 -0.256267
C10   C     C_R   0.455444 0.862437 0.450305 -0.256267
C11   C     C_R   0.535824 0.030152 0.544819 0.089494
C12   C     C_R   0.464178 0.969848 0.455181 0.089496
C13   C     C_R   0.373636 0.414078 0.026327 -0.300365
C14   C     C_R   0.626363 0.585922 0.973673 -0.300365
C15   C     C_R   0.386693 0.421043 0.147643 0.153209
C16   C     C_R   0.613307 0.578956 0.852357 0.153207
C17   C     C_R   0.556159 0.535083 0.154397 0.057126
C18   C     C_R   0.443841 0.464917 0.845603 0.057125
C19   C     C_R   0.546305 0.530683 0.032381 0.051822
C20   C     C_R   0.453695 0.469317 0.967619 0.051822
C21   C     C_R   0.262629 0.507957 0.504182 0.861384
C22   C     C_R   0.737371 0.492042 0.495818 0.861384
C23   C     C_R   0.142695 0.317345 0.514639 -0.122130
C24   C     C_R   0.857305 0.682653 0.485351 -0.122127
C25   C     C_R   0.088900 0.219302 0.497849 -0.159097
C26   C     C_R   0.911103 0.780693 0.502124 -0.159108
C27   C     C_R   0.965886 0.208650 0.462781 -0.125649
C28   C     C_R   0.034119 0.791346 0.537191 -0.125652
C29   C     C_R   0.893933 0.296625 0.450074 0.337895
C30   C     C_R   0.106068 0.703374 0.549913 0.337898
C31   C     C_R   0.943356 0.399531 0.480884 -0.006952
C32   C     C_R   0.056644 0.600468 0.519112 -0.006948
C33   C     C_R   0.072032 0.408316 0.503518 0.026693
C34   C     C_R   0.927967 0.591683 0.496478 0.026698
C35   C     C_R   0.871392 0.493059 0.486273 -0.132796
C36   C     C_R   0.128608 0.506940 0.513726 -0.132797
Cu1   Cu    Cu3+1 0.509250 0.507730 0.615930 1.012087
Cu2   Cu    Cu3+1 0.490750 0.492270 0.384070 1.012088
H1    H     H_    0.072379 0.869226 0.559506 0.170047
H2    H     H_    0.927628 0.130770 0.440454 0.170050
H3    H     H_    0.301222 0.366263 0.979061 0.159500
H4    H     H_    0.698778 0.633737 0.020939 0.159499
H5    H     H_    0.399700 0.816252 0.381614 0.173730
H6    H     H_    0.600301 0.183748 0.618386 0.173729
H7    H     H_    0.346172 0.971641 0.303292 0.179508
H8    H     H_    0.653830 0.028358 0.696708 0.179509
H9    H     H_    0.676353 0.620841 0.807889 0.184437
H10   H     H_    0.323647 0.379160 0.192111 0.184437
N1    N     N_R   0.523180 0.519350 0.790130 -0.191169
N2    N     N_R   0.476820 0.480650 0.209870 -0.191168
O1    O     O_R   0.506570 0.354460 0.582000 -0.619211
O2    O     O_R   0.493430 0.645540 0.418000 -0.619210
O3    O     O_R   0.490940 0.341410 0.386200 -0.495650
O4    O     O_R   0.509060 0.658590 0.613800 -0.495651
O5    O     O_R   0.327470 0.506520 0.597900 -0.564274
O6    O     O_R   0.672530 0.493480 0.402100 -0.564273
O7    O     O_R   0.311840 0.493460 0.402100 -0.591352
O8    O     O_R   0.688160 0.506540 0.597900 -0.591352
H11   H     H_    0.240001 0.320956 0.537638 0.126399
H12   H     H_    0.759999 0.679041 0.462353 0.126399
H13   H     H_    0.144430 0.150675 0.506597 0.160901
H14   H     H_    0.855576 0.849318 0.493364 0.160897
Cl1   Cl    Cl    0.756067 0.268450 0.369307 -0.618711
Cl2   Cl    Cl    0.243931 0.731553 0.630683 -0.618712
Cl3   Cl    Cl    0.676142 0.819152 0.727363 -0.623537
Cl4   Cl    Cl    0.323860 0.180847 0.272636 -0.623541
H15   H     H_    0.373388 0.417510 0.794720 0.122461
H16   H     H_    0.626612 0.582490 0.205280 0.122460

loop_
_geom_bond_atom_site_label_1
_geom_bond_atom_site_label_2
_ccdc_geom_bond_type
C17   N2    A    
C22   O8    A    
C23   H11   S    
C11   C12   A    
C29   Cl1   S    
C21   O7    A    
Cu1   Cu2   S    
Cu2   N2    S    
C14   C16   A    
C30   Cl2   S    
C27   C29   A    
Cu2   O7    S    
Cu1   N1    S    
C10   H5    S    
C26   C28   A    
C19   C20   A    
C1    O1    A    
C13   C15   A    
C24   H12   S    
C27   H2    S    
C14   H4    S    
C1    C4    S    
C21   O5    A    
C28   C30   A    
C2    C3    S    
C26   H14   S    
Cu2   O6    S    
C8    Cl3   S    
C29   C31   A    
C3    C10   A    
C25   H13   S    
C7    Cl4   S    
C30   C32   A    
C22   C35   S    
C9    C11   A    
Cu2   O3    S    
C2    O2    A    
C15   H10   S    
C4    C7    A    
Cu1   O4    S    
C10   C12   A    
C16   H9    S    
C13   H3    S    
C17   C19   A    
C24   C26   A    
C3    C8    A    
C18   C20   A    
C23   C25   A    
Cu1   O1    S    
C31   C35   A    
C25   C27   A    
C31   C33   A    
C22   O6    A    
Cu1   O5    S    
C32   C36   A    
C33   C36   A    
Cu2   O2    S    
C16   N1    A    
C18   H15   S    
C5    C12   A    
C5    C7    A    
C34   C35   A    
C2    O4    A    
C15   N2    A    
C6    C11   A    
C21   C36   S    
C1    O3    A    
C17   H16   S    
C6    C8    A    
C6    H8    S    
C28   H1    S    
C23   C33   A    
C4    C9    A    
C5    H7    S    
C14   C19   A    
C13   C20   A    
C24   C34   A    
Cu1   O8    S    
C18   N1    A    
C9    H6    S    
C32   C34   A    
