data_mof_unit_67375.cif
_audit_creation_date              2012-12-11T19:51:29-0500
_audit_creation_method            fapswitch 2.2
_symmetry_space_group_name_H-M    P1
_symmetry_Int_Tables_number       1
_space_group_crystal_system       triclinic
_cell_length_a                    16.718538
_cell_length_b                    28.559161
_cell_length_c                    8.346463
_cell_angle_alpha                 90.245321
_cell_angle_beta                  104.47398
_cell_angle_gamma                 90.110494
_cell_volume                      3858.62612611

loop_
_atom_site_label
_atom_site_type_symbol
_atom_type_description
_atom_site_fract_x
_atom_site_fract_y
_atom_site_fract_z
_atom_type_partial_charge
Ba1   Ba    Ba6+2 0.000400 0.534870 0.845190 1.661913
Ba2   Ba    Ba6+2 0.000400 0.465130 0.345190 1.654296
Ba3   Ba    Ba6+2 0.500400 0.034870 0.845190 1.661897
Ba4   Ba    Ba6+2 0.500400 0.965130 0.345190 1.654289
C1    C     C_3   0.973784 0.771426 0.585625 0.262968
C2    C     C_3   0.967049 0.234086 0.065222 0.243720
C3    C     C_3   0.473663 0.271408 0.585861 0.263004
C4    C     C_3   0.467070 0.734073 0.065323 0.243721
C5    C     C_R   0.137559 0.617184 0.400744 -0.288976
C6    C     C_R   0.140726 0.383889 0.904294 -0.289873
C7    C     C_R   0.637551 0.117187 0.400736 -0.288923
C8    C     C_R   0.640718 0.883887 0.904288 -0.289855
C9    C     C_2   0.749218 0.361770 0.902244 0.344444
C10   C     C_2   0.746932 0.637266 0.393095 0.310360
C11   C     C_2   0.249228 0.861764 0.902219 0.344397
C12   C     C_2   0.246897 0.137247 0.393034 0.310343
C13   C     C_2   0.820549 0.388958 0.917412 0.099466
C14   C     C_2   0.820743 0.611382 0.416990 0.104713
C15   C     C_2   0.320563 0.888952 0.917425 0.099632
C16   C     C_2   0.320731 0.111380 0.416994 0.104736
C17   C     C_2   0.851855 0.342387 0.690816 -0.013160
C18   C     C_2   0.862062 0.661419 0.210774 -0.022353
C19   C     C_2   0.351898 0.842370 0.690873 -0.013247
C20   C     C_2   0.362045 0.161418 0.210775 -0.022368
C21   C     C_3   0.777779 0.314666 0.679567 -0.063971
C22   C     C_3   0.800369 0.695046 0.230530 -0.023993
C23   C     C_3   0.277821 0.814649 0.679610 -0.063885
C24   C     C_3   0.300334 0.195036 0.230500 -0.024069
C25   C     C_3   0.747616 0.315664 0.830180 -0.097901
C26   C     C_3   0.727827 0.673060 0.267253 -0.074907
C27   C     C_3   0.247643 0.815654 0.830202 -0.097945
C28   C     C_3   0.227792 0.173039 0.267188 -0.074870
C29   C     C_2   0.785101 0.264657 0.620946 -0.010722
C30   C     C_2   0.776517 0.732245 0.096618 -0.045192
C31   C     C_2   0.285143 0.764640 0.620997 -0.010758
C32   C     C_2   0.276483 0.232235 0.096584 -0.045251
C33   C     C_2   0.217800 0.737577 0.566964 -0.104156
C34   C     C_2   0.248518 0.274348 0.130230 -0.056136
C35   C     C_2   0.717760 0.237592 0.566912 -0.104156
C36   C     C_2   0.748515 0.774350 0.130249 -0.056199
C37   C     C_R   0.274528 0.676369 0.395172 -0.025932
C38   C     C_R   0.264856 0.319032 0.869914 0.000401
C39   C     C_R   0.774505 0.176381 0.395150 -0.025876
C40   C     C_R   0.764878 0.819043 0.869968 0.000411
C41   C     C_R   0.220049 0.689020 0.502805 -0.009978
C42   C     C_R   0.223307 0.312198 0.004782 -0.059053
C43   C     C_R   0.720016 0.189034 0.502762 -0.009990
C44   C     C_R   0.723313 0.812202 0.004807 -0.059086
C45   C     C_3   0.051466 0.700203 0.106492 0.400727
C46   C     C_3   0.034907 0.296921 0.588635 0.371474
C47   C     C_3   0.551445 0.200198 0.106445 0.400769
C48   C     C_3   0.534960 0.796936 0.588677 0.371539
C49   C     C_R   0.256446 0.633834 0.289753 -0.157678
C50   C     C_R   0.245965 0.360950 0.762967 -0.136359
C51   C     C_R   0.756438 0.133841 0.289751 -0.157653
C52   C     C_R   0.745983 0.860960 0.763015 -0.136366
C53   C     C_R   0.189982 0.607051 0.286408 0.058345
C54   C     C_R   0.187911 0.391841 0.779524 0.055076
C55   C     C_R   0.689979 0.107053 0.286409 0.058329
C56   C     C_R   0.687915 0.891844 0.779541 0.055050
C57   C     C_R   0.154681 0.654915 0.511867 0.002234
C58   C     C_R   0.160653 0.347576 0.019065 0.010497
C59   C     C_R   0.654658 0.154923 0.511837 0.002164
C60   C     C_R   0.660646 0.847574 0.019063 0.010497
C61   C     C_3   0.105875 0.742892 0.116400 -0.385007
C62   C     C_3   0.080304 0.251613 0.589355 -0.408075
C63   C     C_3   0.605852 0.242889 0.116371 -0.384989
C64   C     C_3   0.580382 0.751637 0.589429 -0.408093
C65   C     C_3   0.713944 0.499782 0.097405 0.728571
C66   C     C_3   0.697941 0.505635 0.580776 0.760560
C67   C     C_3   0.213915 0.999780 0.097331 0.728586
C68   C     C_3   0.198035 0.005591 0.580879 0.760776
C69   C     C_3   0.629479 0.523389 0.034558 0.261622
C70   C     C_3   0.603239 0.504896 0.507201 0.282994
C71   C     C_3   0.129458 0.023391 0.034424 0.261607
C72   C     C_3   0.103328 0.004767 0.507459 0.282713
C73   C     C_3   0.236369 0.471952 0.131341 0.319910
C74   C     C_3   0.233528 0.529111 0.637605 0.312218
C75   C     C_3   0.736359 0.971950 0.131347 0.319929
C76   C     C_3   0.733494 0.029127 0.637692 0.312178
C77   C     C_3   0.314362 0.442519 0.158524 -0.416666
C78   C     C_3   0.308600 0.561171 0.679097 -0.403648
C79   C     C_3   0.814357 0.942525 0.158399 -0.416797
C80   C     C_3   0.808521 0.061217 0.679440 -0.403546
C81   C     C_3   0.994610 0.719685 0.578554 0.335492
C82   C     C_3   0.989617 0.285890 0.082662 0.327477
C83   C     C_3   0.494643 0.219698 0.578493 0.335390
C84   C     C_3   0.489638 0.785878 0.082677 0.327532
C85   C     C_2   0.875441 0.376232 0.808939 -0.320395
C86   C     C_2   0.881171 0.625863 0.321707 -0.312813
C87   C     C_2   0.375476 0.876217 0.808993 -0.320302
C88   C     C_2   0.381164 0.125868 0.321731 -0.312858
H1    H     H_    0.939221 0.698296 0.580497 0.038191
H2    H     H_    0.940618 0.305585 0.122673 0.057813
H3    H     H_    0.439284 0.198239 0.580073 0.037944
H4    H     H_    0.440626 0.805582 0.122610 0.057772
H5    H     H_    0.618029 0.546353 0.134352 0.082007
H6    H     H_    0.573768 0.502568 0.612905 -0.015518
H7    H     H_    0.117936 0.046305 0.134285 0.081846
H8    H     H_    0.073913 0.002417 0.613235 -0.014847
H9    H     H_    0.630831 0.545318 0.925581 -0.047750
H10   H     H_    0.583283 0.473623 0.427858 -0.001468
H11   H     H_    0.130875 0.045369 0.925602 -0.047753
H12   H     H_    0.083441 0.973475 0.428183 -0.001847
H13   H     H_    0.207494 0.474194 0.997061 0.009945
H14   H     H_    0.208191 0.528030 0.501855 0.007462
H15   H     H_    0.707428 0.974188 0.997087 0.009935
H16   H     H_    0.708228 0.028071 0.501921 0.007345
H17   H     H_    0.193278 0.454877 0.195186 0.065142
H18   H     H_    0.186865 0.543744 0.697867 0.077752
H19   H     H_    0.693310 0.954873 0.195284 0.065190
H20   H     H_    0.686769 0.043725 0.697864 0.077882
H21   H     H_    0.357566 0.458184 0.091910 0.116398
H22   H     H_    0.355407 0.548566 0.615612 0.099885
H23   H     H_    0.857481 0.958168 0.091550 0.116353
H24   H     H_    0.855381 0.048666 0.616011 0.099791
H25   H     H_    0.299124 0.406449 0.111918 0.055643
H26   H     H_    0.291003 0.597364 0.638678 0.081695
H27   H     H_    0.799102 0.906440 0.111970 0.055680
H28   H     H_    0.790891 0.097415 0.639131 0.081772
H29   H     H_    0.345238 0.440851 0.292677 0.110994
H30   H     H_    0.335513 0.561729 0.814907 0.113929
H31   H     H_    0.845330 0.940896 0.292514 0.110989
H32   H     H_    0.835377 0.061740 0.815272 0.114011
H33   H     H_    0.012527 0.713426 0.460896 -0.045242
H34   H     H_    0.994030 0.298755 0.959686 -0.053036
H35   H     H_    0.512702 0.213547 0.460917 -0.045100
H36   H     H_    0.494074 0.798721 0.959691 -0.053030
H37   H     H_    0.032291 0.791763 0.602342 0.007590
H38   H     H_    0.014663 0.215596 0.017045 0.056728
H39   H     H_    0.532138 0.291803 0.603096 0.007515
H40   H     H_    0.514704 0.715569 0.017245 0.056729
H41   H     H_    0.088735 0.769360 0.199143 0.102654
H42   H     H_    0.141003 0.253533 0.681193 0.069829
H43   H     H_    0.588737 0.269345 0.199183 0.102616
H44   H     H_    0.641077 0.753568 0.681276 0.069839
H45   H     H_    0.298061 0.624116 0.214867 0.069957
H46   H     H_    0.281245 0.367038 0.672859 0.086567
H47   H     H_    0.798054 0.124126 0.214865 0.069994
H48   H     H_    0.781270 0.867054 0.672929 0.086481
H49   H     H_    0.928259 0.398473 0.810169 0.079724
H50   H     H_    0.931398 0.602180 0.318692 0.074767
H51   H     H_    0.428292 0.898460 0.810223 0.079715
H52   H     H_    0.431406 0.102193 0.318744 0.074718
H53   H     H_    0.089270 0.592547 0.407148 0.065334
H54   H     H_    0.093584 0.408898 0.913737 0.064401
H55   H     H_    0.589269 0.092546 0.407153 0.065324
H56   H     H_    0.593569 0.908893 0.913716 0.064407
H57   H     H_    0.845582 0.250164 0.625009 0.131346
H58   H     H_    0.777217 0.724373 0.969995 0.095379
H59   H     H_    0.345623 0.750147 0.625050 0.131328
H60   H     H_    0.277151 0.224355 0.969951 0.095375
H61   H     H_    0.158255 0.751821 0.570327 0.077711
H62   H     H_    0.242198 0.280659 0.254727 0.129153
H63   H     H_    0.658213 0.251837 0.570273 0.077718
H64   H     H_    0.742168 0.780653 0.254733 0.129141
H65   H     H_    0.947411 0.777369 0.693884 0.043777
H66   H     H_    0.969907 0.218734 0.189457 0.032463
H67   H     H_    0.447095 0.277232 0.693926 0.044061
H68   H     H_    0.469895 0.718743 0.189577 0.032459
H69   H     H_    0.078148 0.672200 0.043436 0.102037
H70   H     H_    0.068677 0.324043 0.536451 0.105823
H71   H     H_    0.578121 0.172202 0.043350 0.102100
H72   H     H_    0.568716 0.824063 0.536482 0.105834
H73   H     H_    0.052808 0.689489 0.234265 -0.070716
H74   H     H_    0.035856 0.305872 0.718810 -0.054099
H75   H     H_    0.552800 0.189474 0.234214 -0.070768
H76   H     H_    0.535901 0.805890 0.718846 -0.054127
H77   H     H_    0.171483 0.733354 0.167294 0.062253
H78   H     H_    0.090409 0.244521 0.465360 0.145580
H79   H     H_    0.671463 0.233346 0.167193 0.062230
H80   H     H_    0.590496 0.744545 0.465443 0.145587
H81   H     H_    0.098996 0.757056 0.990674 0.137461
H82   H     H_    0.042126 0.223293 0.621492 0.118766
H83   H     H_    0.598944 0.257067 0.990658 0.137448
H84   H     H_    0.542215 0.723314 0.621575 0.118752
H85   H     H_    0.707523 0.474330 0.192406 0.034623
H86   H     H_    0.707912 0.531410 0.681225 -0.038391
H87   H     H_    0.207462 0.974326 0.192291 0.034442
H88   H     H_    0.207964 0.031368 0.681320 -0.038451
O1    O     O_2   0.163830 0.569270 0.980510 -0.461537
O2    O     O_2   0.163830 0.430730 0.480510 -0.458502
O3    O     O_2   0.663830 0.069270 0.980510 -0.461559
O4    O     O_2   0.663830 0.930730 0.480510 -0.458490
O5    O     O_3   0.740132 0.518594 0.461207 -0.624119
O6    O     O_3   0.735120 0.475954 0.967378 -0.602677
O7    O     O_3   0.240116 0.018610 0.461205 -0.623975
O8    O     O_3   0.235119 0.975952 0.967333 -0.602724
O9    O     O_3   0.970332 0.710452 0.017421 -0.581909
O10   O     O_3   0.953601 0.291556 0.491378 -0.605175
O11   O     O_3   0.470304 0.210450 0.017412 -0.581939
O12   O     O_3   0.453658 0.791555 0.491416 -0.605139
O13   O     O_3   0.904940 0.476110 0.001150 -0.494477
O14   O     O_3   0.904940 0.523890 0.501150 -0.460553
O15   O     O_3   0.404940 0.976110 0.001150 -0.494441
O16   O     O_3   0.404940 0.023890 0.501150 -0.460604
O17   O     O_3   0.095420 0.524330 0.188510 -0.506032
O18   O     O_3   0.095420 0.475670 0.688510 -0.506836
O19   O     O_3   0.595420 0.024330 0.188510 -0.506032
O20   O     O_3   0.595420 0.975670 0.688510 -0.506861
O21   O     O_3   0.028940 0.612400 0.656050 -0.486186
O22   O     O_3   0.028940 0.387600 0.156050 -0.493810
O23   O     O_3   0.528940 0.112400 0.656050 -0.486171
O24   O     O_3   0.528940 0.887600 0.156050 -0.493809
O25   O     O_2   0.168404 0.646266 0.847189 -0.492970
O26   O     O_2   0.168139 0.353599 0.354032 -0.494719
O27   O     O_2   0.668402 0.146267 0.847168 -0.492976
O28   O     O_2   0.668147 0.853606 0.354021 -0.494737
O29   O     O_3   0.258632 0.516619 0.196543 -0.642851
O30   O     O_3   0.258064 0.484126 0.695801 -0.643416
O31   O     O_3   0.758631 0.016619 0.196523 -0.642863
O32   O     O_3   0.758053 0.984136 0.695793 -0.643428
O33   O     O_3   0.059182 0.709146 0.717202 -0.635803
O34   O     O_3   0.064603 0.290567 0.202856 -0.641355
O35   O     O_3   0.559157 0.209140 0.717221 -0.635753
O36   O     O_3   0.564609 0.790569 0.202903 -0.641346
O37   O     O_2   0.837400 0.570350 0.710350 -0.521316
O38   O     O_2   0.837400 0.429650 0.210350 -0.477736
O39   O     O_2   0.337400 0.070350 0.710350 -0.521296
O40   O     O_2   0.337400 0.929650 0.210350 -0.477835
O41   O     O_3   0.972820 0.612580 0.035550 -0.504432
O42   O     O_3   0.972820 0.387420 0.535550 -0.491451
O43   O     O_3   0.472820 0.112580 0.035550 -0.504433
O44   O     O_3   0.472820 0.887420 0.535550 -0.491470
O45   O     O_2   0.845503 0.658077 0.860806 -0.509043
O46   O     O_2   0.837206 0.349301 0.345798 -0.497137
O47   O     O_2   0.345484 0.158066 0.860806 -0.508992
O48   O     O_2   0.337226 0.849282 0.345831 -0.497191
P1    P     P_3+3 0.171820 0.553000 0.158080 0.967363
P2    P     P_3+3 0.171820 0.447000 0.658080 0.967218
P3    P     P_3+3 0.671820 0.053000 0.158080 0.967363
P4    P     P_3+3 0.671820 0.947000 0.658080 0.967208
P5    P     P_3+3 0.829210 0.554130 0.532500 1.091789
P6    P     P_3+3 0.829210 0.445870 0.032500 1.099509
P7    P     P_3+3 0.329210 0.054130 0.532500 1.091832
P8    P     P_3+3 0.329210 0.945870 0.032500 1.099533
P9    P     P_3+3 0.909919 0.661205 0.030081 0.935955
P10   P     P_3+3 0.900742 0.342670 0.514224 0.936709
P11   P     P_3+3 0.409901 0.161199 0.030078 0.935963
P12   P     P_3+3 0.400770 0.842659 0.514254 0.936647
P13   P     P_3+3 0.106723 0.345559 0.184263 0.927165
P14   P     P_3+3 0.103943 0.656010 0.682849 0.933912
P15   P     P_3+3 0.606722 0.845559 0.184268 0.927144
P16   P     P_3+3 0.603935 0.156013 0.682839 0.933875
O49   O     O_3   0.567427 0.488848 0.990798 -0.662080
C89   C     C_3   0.490842 0.510427 0.922672 0.145409
H89   H     H_    0.491749 0.529715 0.807695 0.034421
H90   H     H_    0.473267 0.534357 0.013463 0.032148
H91   H     H_    0.442639 0.482863 0.889270 0.082499
O50   O     O_3   0.577773 0.545427 0.412352 -0.632104
C90   C     C_3   0.490915 0.548819 0.373227 0.171269
H92   H     H_    0.469098 0.555731 0.486335 0.014033
H93   H     H_    0.460729 0.516826 0.308539 0.043034
H94   H     H_    0.471840 0.578917 0.288834 0.066401
O51   O     O_3   0.067420 0.988853 0.990316 -0.662060
C91   C     C_3   0.990838 0.010445 0.922276 0.145115
H95   H     H_    0.991803 0.029864 0.807596 0.034408
H96   H     H_    0.973189 0.034265 0.013287 0.032095
H97   H     H_    0.942661 0.982881 0.888416 0.082627
O52   O     O_3   0.077715 0.045283 0.412619 -0.632255
C92   C     C_3   0.990824 0.048461 0.372925 0.171401
H98   H     H_    0.968699 0.055093 0.485848 0.013991
H99   H     H_    0.960994 0.016484 0.307508 0.043108
H100  H     H_    0.971665 0.078645 0.288983 0.066446
O53   O     O_3   0.916222 0.784383 0.438144 -0.661349
C93   C     C_3   0.906825 0.833480 0.435746 0.164575
H101  H     H_    0.858348 0.843262 0.324209 0.077877
H102  H     H_    0.887069 0.846237 0.545796 0.023783
H103  H     H_    0.964941 0.851348 0.428210 0.023142
O54   O     O_3   0.890040 0.227846 0.949700 -0.674088
C94   C     C_3   0.826794 0.222997 0.032722 0.150740
H104  H     H_    0.766566 0.220767 0.939944 0.109673
H105  H     H_    0.824574 0.253506 0.114882 0.037804
H106  H     H_    0.835140 0.190162 0.104478 0.051753
O55   O     O_3   0.416221 0.284411 0.438273 -0.661377
C95   C     C_3   0.406919 0.333514 0.435921 0.164589
H107  H     H_    0.358302 0.343311 0.324628 0.077902
H108  H     H_    0.465008 0.351328 0.427930 0.023386
H109  H     H_    0.387418 0.346313 0.546218 0.023467
O56   O     O_3   0.390083 0.727822 0.949742 -0.674098
C96   C     C_3   0.326810 0.722975 0.032695 0.150715
H110  H     H_    0.266594 0.720757 0.939874 0.109683
H111  H     H_    0.324585 0.753477 0.114881 0.037795
H112  H     H_    0.335130 0.690133 0.104409 0.051772
O57   O     O_3   0.680206 0.383820 0.933350 -0.630043
C97   C     C_3   0.622507 0.352278 0.969218 0.260194
H113  H     H_    0.651933 0.332703 0.083416 0.050035
H114  H     H_    0.598589 0.328301 0.862760 0.029331
C98   C     C_3   0.549683 0.380279 0.999210 -0.160520
H115  H     H_    0.572481 0.405095 0.103640 0.155562
H116  H     H_    0.521340 0.400557 0.885916 0.154094
C99   C     C_3   0.483490 0.349128 0.040676 -0.524675
H117  H     H_    0.464693 0.320837 0.947293 0.157468
H118  H     H_    0.428363 0.370550 0.042143 0.141961
H119  H     H_    0.506607 0.333657 0.165104 0.152948
O58   O     O_3   0.683556 0.617894 0.450816 -0.629055
C100  C     C_3   0.653817 0.649543 0.552724 0.308620
H120  H     H_    0.591542 0.661073 0.483218 0.057676
H121  H     H_    0.694741 0.680644 0.591836 0.027792
C101  C     C_3   0.646211 0.623535 0.708336 -0.173831
H122  H     H_    0.606499 0.592259 0.673558 0.130972
H123  H     H_    0.708532 0.612098 0.774183 0.132411
C102  C     C_3   0.610321 0.652687 0.826769 -0.530531
H124  H     H_    0.643667 0.686406 0.856079 0.142325
H125  H     H_    0.616695 0.633295 0.944250 0.137816
H126  H     H_    0.543452 0.658689 0.773172 0.145826
O59   O     O_3   0.180195 0.883818 0.933219 -0.630072
C103  C     C_3   0.122496 0.852278 0.969108 0.260201
H127  H     H_    0.151919 0.832714 0.083333 0.050032
H128  H     H_    0.098585 0.828290 0.862672 0.029310
C104  C     C_3   0.049666 0.880282 0.999055 -0.160508
H129  H     H_    0.072466 0.905132 0.103376 0.155623
H130  H     H_    0.021284 0.900522 0.885692 0.153966
C105  C     C_3   0.983518 0.849138 0.040726 -0.524717
H131  H     H_    0.964727 0.820811 0.947480 0.157582
H132  H     H_    0.928378 0.870554 0.042147 0.141957
H133  H     H_    0.006675 0.833714 0.165222 0.152898
O60   O     O_3   0.183514 0.117863 0.450718 -0.629070
C106  C     C_3   0.153763 0.149507 0.552627 0.308599
H134  H     H_    0.091493 0.161043 0.483107 0.057704
H135  H     H_    0.194685 0.180608 0.591773 0.027770
C107  C     C_3   0.146139 0.123494 0.708219 -0.173803
H136  H     H_    0.106415 0.092224 0.673404 0.131256
H137  H     H_    0.208455 0.112051 0.774089 0.132320
C108  C     C_3   0.110243 0.152649 0.826639 -0.530547
H138  H     H_    0.143592 0.186367 0.855955 0.142319
H139  H     H_    0.116609 0.133259 0.944121 0.137835
H140  H     H_    0.043376 0.158653 0.773026 0.145833
O61   O     O_3   0.775136 0.532819 0.169109 -0.719166
C109  C     C_3   0.792637 0.562929 0.049425 0.152080
H141  H     H_    0.773019 0.550311 0.922196 0.055224
H142  H     H_    0.860054 0.566049 0.073924 0.115982
H143  H     H_    0.761940 0.596898 0.054951 -0.022094
O62   O     O_3   0.724533 0.461332 0.648306 -0.698758
C110  C     C_3   0.729912 0.428192 0.524975 0.175642
H144  H     H_    0.794262 0.427163 0.512178 0.084173
H145  H     H_    0.687889 0.434212 0.401819 -0.009805
H146  H     H_    0.711644 0.393699 0.562897 0.038932
O63   O     O_3   0.275104 0.032811 0.169108 -0.719150
C111  C     C_3   0.292659 0.062919 0.049474 0.152200
H147  H     H_    0.273088 0.050301 0.922243 0.055295
H148  H     H_    0.360081 0.066037 0.074073 0.115859
H149  H     H_    0.261954 0.096889 0.054942 -0.022076
O64   O     O_3   0.224791 0.961308 0.648369 -0.698924
C112  C     C_3   0.230162 0.928185 0.524985 0.175645
H150  H     H_    0.294516 0.927154 0.512223 0.084371
H151  H     H_    0.188160 0.934220 0.401823 -0.009728
H152  H     H_    0.211858 0.893691 0.562821 0.038810

loop_
_geom_bond_atom_site_label_1
_geom_bond_atom_site_label_2
_ccdc_geom_bond_type
C107  H137  S    
C1    O53   S    
C51   C55   D    
C2    O54   S    
C100  H121  S    
O5    P5    S    
Ba1   O18   S    
Ba2   O22   S    
O9    P9    S    
C64   H84   S    
C102  H125  S    
C96   H112  S    
C16   C88   S    
C42   C58   S    
C49   H45   S    
Ba4   P4    S    
O32   P4    S    
C107  C108  S    
C69   O49   S    
C94   H104  S    
C91   H97   S    
C77   H25   S    
C51   H47   S    
Ba1   O41   S    
C79   H27   S    
O19   P3    S    
C66   O5    S    
Ba3   P7    S    
Ba4   O19   S    
Ba1   P5    S    
C66   C70   S    
C103  C104  S    
O36   P15   S    
C69   H9    S    
O49   C89   S    
C71   H11   S    
C21   C25   A    
C109  H141  S    
C23   C27   A    
C24   C28   A    
C13   C85   S    
C111  H147  S    
O37   P5    D    
C110  H145  S    
Ba1   O1    S    
C23   C31   S    
C105  H131  S    
Ba3   O15   S    
Ba4   O16   S    
C77   H29   S    
C75   O31   S    
O39   P7    D    
C66   O62   S    
C72   O52   S    
C74   C78   S    
C102  H124  S    
C12   C16   A    
C76   H20   S    
C112  H152  S    
O38   P6    D    
O31   P3    S    
C9    O57   S    
O58   C100  S    
O15   P8    S    
C78   H26   S    
C33   C41   S    
O13   P6    S    
O24   P15   S    
C101  H122  S    
C35   C43   S    
C36   C44   S    
C97   C98   S    
O16   P7    S    
C72   H8    S    
C74   H14   S    
Ba2   O13   S    
C99   H118  S    
O43   P11   S    
C97   H114  S    
C19   P12   S    
C12   O60   S    
C52   H48   S    
C73   H13   S    
C110  H144  S    
C3    H67   S    
Ba2   O38   S    
C37   C41   S    
C62   H82   S    
C29   H57   S    
O20   P4    S    
C39   C43   S    
C78   H30   S    
C40   C44   S    
C106  H135  S    
C82   H34   S    
C47   H75   S    
C111  H149  S    
C2    H38   S    
C55   P3    S    
C15   P8    S    
C78   H22   S    
C70   H6    S    
C60   P15   S    
C13   P6    S    
O35   P16   S    
C5    C57   A    
O33   P14   S    
C6    C54   S    
O48   P12   D    
C71   O51   S    
C92   H98   S    
C8    C60   A    
O12   P12   S    
C41   C57   S    
C108  H139  S    
C62   H42   S    
C81   H1    S    
O2    P2    D    
C91   H96   S    
C74   O30   S    
C45   H69   S    
C101  C102  S    
C76   O32   S    
C18   P9    S    
C1    C81   S    
C80   H24   S    
Ba4   P8    S    
C20   C88   D    
C2    H66   S    
C103  H128  S    
C98   H115  S    
C87   H51   S    
C79   H23   S    
C15   C87   S    
O56   C96   S    
Ba3   P3    S    
O62   C110  S    
C32   H60   S    
C90   H94   S    
O23   P16   S    
Ba4   O4    S    
O21   P14   S    
C35   H63   S    
C4    C84   S    
C73   H17   S    
C82   O34   S    
C68   O7    S    
C54   P2    S    
C71   H7    S    
Ba3   O20   S    
C47   C63   S    
C47   H71   S    
O44   P12   S    
C37   C49   S    
C93   H102  S    
C6    H54   S    
C39   C51   S    
C22   C26   A    
C104  H130  S    
O26   P13   D    
C68   H88   S    
C77   H21   S    
Ba3   Ba4   S    
O3    P3    D    
C47   O11   S    
C58   P13   S    
C17   C21   A    
C89   H89   S    
Ba3   O43   S    
C20   C24   A    
O52   C92   S    
C93   H103  S    
C92   H100  S    
C11   C27   A    
O45   P9    D    
O17   P1    S    
C12   C28   A    
C76   H16   S    
C2    C82   S    
C9    C13   A    
O27   P16   D    
C59   P16   S    
C68   O64   S    
C34   C42   S    
Ba2   P2    S    
C95   H107  S    
Ba3   O3    S    
O25   P14   D    
C21   C29   S    
O6    P6    S    
C89   H91   S    
C72   H12   S    
C94   H106  S    
C84   H4    S    
Ba2   O17   S    
Ba3   O23   S    
O55   C95   S    
O10   P10   S    
C76   C80   S    
Ba1   O21   S    
C30   H58   S    
C90   H92   S    
C17   C85   D    
C11   C15   A    
C109  H142  S    
C9    C25   A    
C111  H148  S    
C43   C59   S    
C44   C60   S    
C46   H70   S    
C105  H132  S    
Ba2   O42   S    
C98   C99   S    
C38   C42   S    
C65   H85   S    
C81   H33   S    
Ba2   P6    S    
C3    C83   S    
C63   H83   S    
Ba4   O40   S    
C109  H143  S    
C46   H74   S    
O28   P15   D    
C65   C69   S    
C112  H151  S    
C3    H39   S    
C70   H10   S    
C105  H133  S    
C1    H37   S    
C107  H136  S    
C62   H78   S    
C6    C58   A    
C31   H59   S    
C7    C55   S    
C101  H123  S    
C102  H126  S    
C10   O58   S    
O59   C103  S    
C14   C86   S    
C33   H61   S    
C49   C53   D    
O50   C90   S    
C52   C56   D    
C61   H77   S    
Ba2   O14   S    
C63   H43   S    
O61   C109  S    
C45   H73   S    
O57   C97   S    
C53   P1    S    
C40   C52   S    
O63   C111  S    
C95   H109  S    
C73   C77   S    
C80   H28   S    
C16   P7    S    
O47   P11   D    
C18   C86   D    
C75   H15   S    
C86   H50   S    
C20   P11   S    
C48   H72   S    
C1    H65   S    
C96   H111  S    
O14   P5    S    
C4    H68   S    
C57   P14   S    
C56   P4    S    
C110  H146  S    
C11   O59   S    
C7    C59   A    
Ba3   O16   S    
C32   C34   D    
Ba1   O14   S    
C38   C50   S    
C75   C79   S    
C64   H80   S    
C7    H55   S    
C5    H53   S    
C108  H138  S    
C46   O10   S    
C90   H93   S    
C106  H134  S    
C24   C32   S    
Ba3   O39   S    
C18   C22   A    
O41   P9    S    
C83   O35   S    
O54   C94   S    
Ba1   O37   S    
C79   H31   S    
C65   O6    S    
Ba4   O15   S    
C104  H129  S    
O46   P10   D    
C100  H120  S    
C10   C14   A    
Ba1   O13   S    
C67   O8    S    
C68   C72   S    
C83   H35   S    
C14   P5    S    
C69   H5    S    
C29   C35   D    
C45   C61   S    
O34   P13   S    
C30   C36   D    
C99   H117  S    
C31   C33   D    
C3    O55   S    
C48   O12   S    
C97   H113  S    
Ba4   O24   S    
C45   O9    S    
Ba1   Ba2   S    
Ba2   O2    S    
C67   H87   S    
C82   H2    S    
C22   C30   S    
O1    P1    D    
C4    H40   S    
C19   C23   A    
O53   C93   S    
C5    C53   S    
C48   C64   S    
C73   O29   S    
C17   P10   S    
C106  C107  S    
C10   C26   A    
C4    O56   S    
O11   P11   S    
C89   H90   S    
C64   H44   S    
O4    P4    D    
C92   H99   S    
C66   H86   S    
C63   H79   S    
C96   H110  S    
Ba4   O44   S    
O22   P13   S    
O42   P10   S    
C83   H3    S    
C108  H140  S    
O60   C106  S    
C81   O33   S    
C91   H95   S    
C74   H18   S    
O29   P1    S    
O64   C112  S    
C46   C62   S    
C95   H108  S    
C100  C101  S    
C19   C87   D    
C34   H62   S    
O51   C91   S    
C103  H127  S    
C50   C54   D    
C94   H105  S    
C84   O36   S    
C61   H81   S    
O40   P8    D    
C99   H119  S    
O8    P8    S    
O18   P2    S    
C65   O61   S    
C80   H32   S    
C75   H19   S    
C8    H56   S    
C70   O50   S    
C84   H36   S    
C48   H76   S    
C67   C71   S    
C50   H46   S    
C85   H49   S    
C98   H116  S    
C67   O63   S    
C88   H52   S    
O7    P7    S    
O30   P2    S    
C93   H101  S    
C8    C56   S    
Ba1   P1    S    
C104  C105  S    
C36   H64   S    
C112  H150  S    
C61   H41   S    
