data_mof_unit_36377.cif
_audit_creation_date              2012-12-10T17:39:03-0500
_audit_creation_method            fapswitch 2.2
_symmetry_space_group_name_H-M    P1
_symmetry_Int_Tables_number       1
_space_group_crystal_system       triclinic
_cell_length_a                    12.032519
_cell_length_b                    12.872183
_cell_length_c                    23.384477
_cell_angle_alpha                 89.877108
_cell_angle_beta                  86.470343
_cell_angle_gamma                 92.677461
_cell_volume                      3611.03700763

loop_
_atom_site_label
_atom_site_type_symbol
_atom_type_description
_atom_site_fract_x
_atom_site_fract_y
_atom_site_fract_z
_atom_type_partial_charge
C1    C     C_R   0.521559 0.699599 0.499536 0.966867
C2    C     C_R   0.478893 0.299936 0.500301 0.958064
C3    C     C_R   0.560333 0.447044 0.762804 0.456067
C4    C     C_R   0.596986 0.553908 0.235027 0.442848
C5    C     C_R   0.548690 0.431624 0.704330 0.338895
C6    C     C_R   0.597804 0.552093 0.294718 0.342614
C7    C     C_R   0.503704 0.509412 0.671953 -0.193207
C8    C     C_R   0.500061 0.517683 0.327462 -0.219425
C9    C     C_R   0.464823 0.599025 0.698369 -0.278114
C10   C     C_R   0.399765 0.500878 0.300766 -0.209548
C11   C     C_R   0.465630 0.609498 0.757345 -0.154310
C12   C     C_R   0.397022 0.513294 0.242105 -0.149942
C13   C     C_R   0.511671 0.533054 0.789959 0.120806
C14   C     C_R   0.495394 0.537242 0.208760 0.116378
C15   C     C_R   0.468656 0.189017 0.496248 -0.256636
C16   C     C_R   0.534669 0.809668 0.502616 -0.238019
C17   C     C_R   0.603599 0.960447 0.551350 -0.140287
C18   C     C_R   0.399595 0.037418 0.447471 -0.128816
C19   C     C_R   0.600306 0.854336 0.544356 0.301533
C20   C     C_R   0.397951 0.143110 0.456893 0.304418
C21   C     C_R   0.471774 0.869716 0.467902 0.307393
C22   C     C_R   0.541185 0.129518 0.526261 0.310523
C23   C     C_R   0.500570 0.500182 0.610397 0.951040
C24   C     C_R   0.500014 0.503447 0.389408 0.920145
C25   C     C_R   0.469524 0.976259 0.477648 -0.045466
C26   C     C_R   0.538447 0.022388 0.518696 -0.050017
C27   C     C_R   0.951230 0.375848 0.467620 0.250329
C28   C     C_R   0.048858 0.625852 0.529353 0.241353
C29   C     C_R   0.836317 0.392793 0.465874 0.557166
C30   C     C_R   0.163411 0.608201 0.532788 0.544623
C31   C     C_R   0.860301 0.557386 0.509843 -0.069285
C32   C     C_R   0.139859 0.442994 0.489372 -0.063189
C33   C     C_R   0.977113 0.546774 0.509359 -0.127450
C34   C     C_R   0.023040 0.453968 0.488906 -0.131399
C35   C     C_R   0.453453 0.453385 0.120091 0.485397
C36   C     C_R   0.547613 0.623251 0.878204 0.490189
C37   C     C_R   0.528517 0.628861 0.118299 0.576144
C38   C     C_R   0.447917 0.457938 0.881266 0.572938
C39   C     C_R   0.532457 0.630357 0.058423 -0.047419
C40   C     C_R   0.446094 0.456076 0.940911 -0.037762
C41   C     C_R   0.490833 0.542341 0.029587 -0.022184
C42   C     C_R   0.492434 0.542281 0.969471 -0.021874
C43   C     C_R   0.448350 0.453960 0.060679 -0.018107
C44   C     C_R   0.540950 0.628051 0.938066 -0.021166
C45   C     C_R   0.577356 0.717017 0.026849 -0.155629
C46   C     C_R   0.400370 0.369754 0.972409 -0.160851
C47   C     C_R   0.583012 0.715290 0.967144 -0.153681
C48   C     C_R   0.403062 0.368042 0.031768 -0.154583
H1    H     H_    0.610111 0.785509 0.048102 0.193122
H2    H     H_    0.364582 0.302461 0.951270 0.192706
H3    H     H_    0.177728 0.374570 0.472009 0.247356
H4    H     H_    0.822450 0.625679 0.527473 0.245092
H5    H     H_    0.620010 0.782472 0.943923 0.192678
H6    H     H_    0.369090 0.299556 0.054873 0.195028
H7    H     H_    0.433745 0.660537 0.673250 0.186193
H8    H     H_    0.323173 0.477700 0.325207 0.214732
H9    H     H_    0.429574 0.676487 0.777810 0.186148
H10   H     H_    0.318613 0.501125 0.222151 0.188045
H11   H     H_    0.654302 0.992523 0.584210 0.236088
H12   H     H_    0.345807 0.004368 0.416173 0.244579
N1    N     N_R   0.492278 0.540249 0.147718 -0.337887
N2    N     N_R   0.502092 0.538648 0.851142 -0.337527
N3    N     N_R   0.207800 0.519350 0.510590 -0.172803
N4    N     N_R   0.792200 0.480650 0.489410 -0.174428
O1    O     O_R   0.421690 0.658830 0.502820 -0.527505
O2    O     O_R   0.578310 0.341170 0.497180 -0.523764
O3    O     O_R   0.609320 0.646410 0.496030 -0.626629
O4    O     O_R   0.390680 0.353590 0.503970 -0.606982
O5    O     O_R   0.406170 0.506240 0.587240 -0.655458
O6    O     O_R   0.593830 0.493760 0.412760 -0.623340
O7    O     O_R   0.593790 0.493820 0.580450 -0.553149
O8    O     O_R   0.406210 0.506180 0.419550 -0.589429
O9    O     O_2   0.421167 0.366237 0.150071 -0.556862
O10   O     O_2   0.600469 0.701501 0.847317 -0.554633
O11   O     O_2   0.560366 0.715064 0.146937 -0.533559
O12   O     O_2   0.396134 0.379590 0.853408 -0.554090
Zn1   Zn    Zn3+2 0.374720 0.508290 0.504530 1.025421
Zn2   Zn    Zn3+2 0.625280 0.491710 0.495470 1.039527
O13   O     O_3   0.233014 0.686253 0.552882 -0.571572
C49   C     C_3   0.218275 0.691975 0.613231 0.091161
H13   H     H_    0.261446 0.627981 0.633021 0.139934
H14   H     H_    0.129068 0.685166 0.629187 0.163018
C50   C     C_3   0.267692 0.796881 0.632444 -0.289654
H15   H     H_    0.359141 0.801403 0.621885 0.215904
H16   H     H_    0.230503 0.860430 0.608861 0.268601
C51   C     C_3   0.244434 0.813262 0.696614 -0.940676
H17   H     H_    0.153326 0.816529 0.706965 0.286408
H18   H     H_    0.285485 0.887801 0.709517 0.276201
H19   H     H_    0.277039 0.749124 0.721488 0.255829
O14   O     O_3   0.766294 0.315466 0.445375 -0.560720
C52   C     C_3   0.768362 0.321708 0.384975 0.086192
H20   H     H_    0.848060 0.293512 0.365649 0.177264
H21   H     H_    0.759362 0.402768 0.369840 0.166004
C53   C     C_3   0.672169 0.252475 0.364338 -0.277093
H22   H     H_    0.680815 0.171256 0.379129 0.242983
H23   H     H_    0.591724 0.279897 0.383037 0.232813
C54   C     C_3   0.669884 0.253742 0.299227 -0.930355
H24   H     H_    0.655814 0.333333 0.283811 0.260149
H25   H     H_    0.600757 0.200796 0.285938 0.290777
H26   H     H_    0.749633 0.227034 0.279281 0.267547
Cl1   Cl    Cl    0.001384 0.254311 0.445715 -0.516237
Cl2   Cl    Cl    0.999276 0.750198 0.546355 -0.534030
O15   O     O_3   0.608642 0.371789 0.794140 -0.620958
C55   C     C_3   0.717386 0.407029 0.807041 0.049022
H27   H     H_    0.738137 0.365838 0.846512 0.176255
H28   H     H_    0.724221 0.491832 0.816844 0.145949
C56   C     C_3   0.802344 0.380355 0.758327 -0.306278
H29   H     H_    0.794454 0.295713 0.749159 0.252151
H30   H     H_    0.785416 0.423791 0.718932 0.245627
C57   C     C_3   0.921269 0.408625 0.773854 -0.923245
H31   H     H_    0.931288 0.493313 0.782372 0.270606
H32   H     H_    0.980576 0.388864 0.737678 0.274512
H33   H     H_    0.941589 0.364467 0.812415 0.268069
O16   O     O_3   0.694924 0.578596 0.202754 -0.606560
C58   C     C_3   0.740185 0.487190 0.179394 0.081960
H34   H     H_    0.763042 0.502285 0.133263 0.167991
H35   H     H_    0.681320 0.417240 0.181393 0.129142
C59   C     C_3   0.845570 0.463415 0.209461 -0.326931
H36   H     H_    0.905002 0.532234 0.206214 0.244348
H37   H     H_    0.823829 0.447112 0.255547 0.240174
C60   C     C_3   0.901937 0.369798 0.182830 -0.935924
H38   H     H_    0.844096 0.299922 0.185657 0.269604
H39   H     H_    0.976921 0.353671 0.206180 0.280103
H40   H     H_    0.928129 0.385806 0.137160 0.270345
O17   O     O_3   0.579150 0.339193 0.679411 -0.603252
C61   C     C_3   0.488939 0.264308 0.686677 0.159364
H41   H     H_    0.456424 0.248476 0.643952 0.161065
H42   H     H_    0.416742 0.289121 0.715059 0.118591
C62   C     C_3   0.530400 0.164128 0.711637 -0.254158
H43   H     H_    0.610169 0.143907 0.688913 0.268690
H44   H     H_    0.546210 0.176412 0.757500 0.247054
C63   C     C_3   0.445446 0.073300 0.706691 -0.954772
H45   H     H_    0.365015 0.091107 0.729613 0.270672
H46   H     H_    0.477197 0.002537 0.726069 0.282192
H47   H     H_    0.431535 0.057199 0.660943 0.273141
O18   O     O_3   0.696527 0.578588 0.319825 -0.647420
C64   C     C_3   0.690366 0.678071 0.345450 0.123329
H48   H     H_    0.747126 0.680501 0.381205 0.179288
H49   H     H_    0.605876 0.693832 0.364864 0.145791
C65   C     C_3   0.728942 0.764121 0.302400 -0.328028
H50   H     H_    0.814161 0.749200 0.284145 0.247916
H51   H     H_    0.671728 0.764404 0.266890 0.264524
C66   C     C_3   0.729973 0.870741 0.330925 -0.879928
H52   H     H_    0.645016 0.887759 0.348705 0.281586
H53   H     H_    0.757900 0.931624 0.298810 0.275313
H54   H     H_    0.788149 0.873410 0.366040 0.280361
Cl3   Cl    Cl    0.640915 0.189319 0.570530 -0.568122
Cl4   Cl    Cl    0.398325 0.810567 0.411739 -0.610909
Cl5   Cl    Cl    0.315014 0.216125 0.413536 -0.569778
Cl6   Cl    Cl    0.673272 0.779795 0.591857 -0.574953

loop_
_geom_bond_atom_site_label_1
_geom_bond_atom_site_label_2
_ccdc_geom_bond_type
C66   H54   S    
C16   C21   A    
O6    Zn2   S    
C56   H30   S    
C41   C42   A    
C23   O5    A    
O5    Zn1   S    
C65   C66   S    
C31   H4    S    
C55   H28   S    
O16   C58   S    
C24   O6    A    
C39   C41   A    
C38   O12   S    
C40   C46   A    
C18   C25   A    
C61   H41   S    
C17   C26   A    
C4    O16   S    
C65   H51   S    
C2    O4    A    
C63   H47   S    
C51   H18   S    
C27   C29   A    
C58   H34   S    
C19   Cl6   S    
C20   Cl5   S    
C66   H53   S    
C59   H36   S    
C55   H27   S    
C60   H40   S    
C6    O18   S    
C17   C19   A    
C57   H31   S    
C15   C22   A    
C35   O9    S    
C13   N2    S    
C63   H45   S    
C58   H35   S    
C1    O1    A    
C56   H29   S    
C31   C33   A    
C9    H7    S    
C10   H8    S    
C43   C48   A    
C3    C13   A    
C44   C47   A    
C39   C45   A    
C62   C63   S    
C12   H10   S    
C40   C42   A    
C37   O11   S    
C29   N4    A    
C30   N3    A    
C41   C43   A    
O3    Zn2   S    
C42   C44   A    
C49   C50   S    
C36   N2    A    
C29   O14   S    
C54   H25   S    
C54   H24   S    
C59   H37   S    
C45   C47   A    
C27   C34   A    
C15   C20   A    
O2    Zn2   S    
C64   C65   S    
C46   C48   A    
O1    Zn1   S    
C21   Cl4   S    
C23   O7    A    
C65   H50   S    
C49   H14   S    
C52   H20   S    
C5    C7    A    
C51   H17   S    
C49   H13   S    
C6    C8    A    
C53   C54   S    
C2    O2    A    
C25   C26   A    
C14   N1    S    
C27   Cl1   S    
C59   C60   S    
C32   C34   A    
C48   H6    S    
C32   H3    S    
O8    Zn1   S    
C52   H21   S    
C64   H49   S    
C50   H15   S    
C45   H1    S    
C58   C59   S    
C33   C34   A    
C35   N1    A    
C1    C16   S    
C53   H23   S    
C2    C15   S    
C9    C11   A    
C57   H33   S    
C60   H38   S    
C10   C12   A    
C17   H11   S    
C63   H46   S    
C30   O13   S    
C18   H12   S    
C50   H16   S    
C12   C14   A    
C28   C33   A    
O17   C61   S    
C56   C57   S    
C36   C44   A    
C4    C6    A    
C54   H26   S    
C35   C43   A    
C24   O8    A    
C62   H43   S    
N3    Zn1   S    
C3    O15   S    
O4    Zn1   S    
C7    C9    A    
C21   C25   A    
C36   O10   S    
C61   H42   S    
N4    Zn2   S    
C31   N4    A    
C32   N3    A    
O18   C64   S    
C3    C5    A    
C51   H19   S    
C37   N1    A    
C1    O3    A    
C64   H48   S    
C46   H2    S    
C61   C62   S    
C47   H5    S    
C28   C30   A    
C37   C39   A    
C52   C53   S    
C38   C40   A    
C11   C13   A    
O14   C52   S    
C16   C19   A    
C7    C23   S    
C8    C24   S    
C18   C20   A    
C55   C56   S    
C4    C14   A    
C53   H22   S    
C57   H32   S    
C60   H39   S    
O13   C49   S    
C28   Cl2   S    
C50   C51   S    
C22   Cl3   S    
C8    C10   A    
C22   C26   A    
C5    O17   S    
O15   C55   S    
C62   H44   S    
C11   H9    S    
O7    Zn2   S    
C66   H52   S    
C38   N2    A    
