data_mof_unit_65054.cif
_audit_creation_date              2012-10-26T21:17:08-0400
_audit_creation_method            fapswitch 2.2
_symmetry_space_group_name_H-M    P1
_symmetry_Int_Tables_number       1
_space_group_crystal_system       triclinic
_cell_length_a                    14.350429
_cell_length_b                    10.957725
_cell_length_c                    9.680297
_cell_angle_alpha                 90.73565
_cell_angle_beta                  90.008218
_cell_angle_gamma                 90.078622
_cell_volume                      1522.08094993

loop_
_atom_site_label
_atom_site_type_symbol
_atom_type_description
_atom_site_fract_x
_atom_site_fract_y
_atom_site_fract_z
_atom_type_partial_charge
C1    C     C_R   0.501413 0.265247 0.498815 0.569283
C2    C     C_R   0.496392 0.734506 0.500993 0.584536
C3    C     C_R   0.668967 0.500061 0.499971 0.535897
C4    C     C_1   0.228729 0.499911 0.500012 -0.020980
C5    C     C_1   0.143339 0.499907 0.499993 -0.027877
C6    C     C_1   0.042709 0.499921 0.499971 0.009137
C7    C     C_1   0.957317 0.499944 0.499960 0.007585
C8    C     C_1   0.856684 0.499983 0.499955 -0.033544
C9    C     C_3   0.408403 0.035440 0.177748 0.001312
C10   C     C_3   0.360861 0.105726 0.063168 -0.355718
C11   C     C_1   0.771289 0.500019 0.499959 -0.031426
C12   C     C_2   0.506501 0.931710 0.395703 -0.157490
C13   C     C_2   0.479347 0.864673 0.503568 0.174909
C14   C     C_2   0.488102 0.063669 0.386368 0.267589
C15   C     C_2   0.510944 0.133606 0.496526 -0.034159
C16   C     C_2   0.446094 0.429894 0.921115 -0.009705
C17   C     C_2   0.443485 0.433524 0.076905 0.001210
C18   C     C_R   0.331038 0.499930 0.500023 0.553849
Cl1   Cl    Cl    0.409633 0.922627 0.640532 -0.638052
Cu1   Cu    Cu3+1 0.500020 0.500020 0.638630 0.978213
Cu2   Cu    Cu3+1 0.499980 0.499980 0.361370 0.966156
H1    H     H_    0.542990 0.888679 0.309660 0.104261
H2    H     H_    0.322774 0.041396 0.993794 0.147040
H3    H     H_    0.310474 0.172043 0.108065 0.143694
H4    H     H_    0.539604 0.092960 0.589072 0.112730
H5    H     H_    0.399620 0.366328 0.868759 0.140716
H6    H     H_    0.540548 0.562583 0.894928 0.209998
H7    H     H_    0.392133 0.376977 0.127624 0.152529
H8    H     H_    0.550059 0.549328 0.106684 0.205744
H9    H     H_    0.353661 0.985484 0.236100 0.153355
H10   H     H_    0.457429 0.969520 0.128499 0.146447
H11   H     H_    0.413673 0.155389 0.001602 0.164563
N1    N     N_2   0.499070 0.498660 0.846910 -0.333787
N2    N     N_2   0.499040 0.498630 0.153040 -0.336523
O1    O     O_R   0.500010 0.321960 0.617040 -0.502211
O2    O     O_R   0.499990 0.321920 0.382900 -0.431434
O3    O     O_R   0.376070 0.500020 0.617100 -0.469396
O4    O     O_R   0.376040 0.499980 0.382950 -0.480588
O5    O     O_R   0.500010 0.678080 0.617100 -0.447454
O6    O     O_R   0.499990 0.678040 0.382960 -0.519642
O7    O     O_R   0.623960 0.500020 0.617050 -0.481514
O8    O     O_R   0.623930 0.499980 0.382900 -0.482792
O9    O     O_3   0.457285 0.118068 0.264697 -0.536463

loop_
_geom_bond_atom_site_label_1
_geom_bond_atom_site_label_2
_ccdc_geom_bond_type
C3    O8    A    
C6    C7    T    
C1    C15   S    
C12   H1    S    
C10   H2    S    
C9    C10   S    
C14   O9    S    
C4    C18   S    
Cu1   Cu2   S    
Cu1   O7    S    
C18   O4    A    
C7    C8    S    
Cu2   O2    S    
H6    N1    S    
C10   H11   S    
Cu1   O3    S    
Cu1   O1    S    
Cu2   O6    S    
C9    H9    S    
C8    C11   T    
Cu1   N1    S    
C2    O5    A    
C18   O3    A    
C12   C14   S    
C16   H5    S    
C5    C6    S    
C16   N1    D    
C9    O9    S    
C15   H4    S    
C17   N2    D    
C13   Cl1   S    
Cu2   O8    S    
C2    O6    A    
C3    C11   S    
C12   C13   D    
C1    O1    A    
Cu1   O5    S    
C2    C13   S    
C9    H10   S    
C14   C15   D    
C4    C5    T    
Cu2   N2    S    
C10   H3    S    
C17   H7    S    
H8    N2    S    
C3    O7    A    
Cu2   O4    S    
C1    O2    A    
C16   C17   S    
