data_mof_unit_58557.cif
_audit_creation_date              2012-12-10T17:21:41-0500
_audit_creation_method            fapswitch 2.2
_symmetry_space_group_name_H-M    P1
_symmetry_Int_Tables_number       1
_space_group_crystal_system       triclinic
_cell_length_a                    10.774666
_cell_length_b                    10.850632
_cell_length_c                    9.63537
_cell_angle_alpha                 90.727967
_cell_angle_beta                  90.322415
_cell_angle_gamma                 95.138514
_cell_volume                      1121.84605149

loop_
_atom_site_label
_atom_site_type_symbol
_atom_type_description
_atom_site_fract_x
_atom_site_fract_y
_atom_site_fract_z
_atom_type_partial_charge
C1    C     C_R   0.508291 0.263922 0.499073 0.779407
C2    C     C_3   0.877974 0.494307 0.501390 0.112096
C3    C     C_3   0.940029 0.604630 0.419198 -0.398508
C4    C     C_3   0.913375 0.372606 0.432583 -0.338718
C5    C     C_R   0.647472 0.142916 0.713752 -0.164599
C6    C     C_R   0.676726 0.089514 0.838772 -0.142887
C7    C     C_R   0.630304 0.968956 0.865802 -0.152390
C8    C     C_R   0.564610 0.898246 0.763036 -0.197354
C9    C     C_R   0.546127 0.946054 0.628666 0.100418
C10   C     C_R   0.572968 0.074704 0.612666 0.099755
C11   C     C_R   0.522409 0.131883 0.497331 -0.114156
C12   C     C_R   0.259836 0.494328 0.499848 0.749653
C13   C     C_R   0.472141 0.060631 0.385424 -0.212160
C14   C     C_R   0.466295 0.933134 0.389675 -0.231770
C15   C     C_R   0.501172 0.873631 0.510015 -0.121651
C16   C     C_R   0.699963 0.646068 0.137007 0.196015
C17   C     C_R   0.803157 0.688734 0.057575 -0.257725
C18   C     C_R   0.792893 0.693561 0.916520 -0.263333
C19   C     C_R   0.685438 0.643069 0.852681 -0.162946
C20   C     C_R   0.593196 0.569823 0.924781 0.156790
C21   C     C_R   0.595872 0.570702 0.074254 0.187391
C22   C     C_R   0.411520 0.432603 0.072290 -0.081313
C23   C     C_R   0.499246 0.738101 0.502547 0.806459
C24   C     C_R   0.411707 0.432479 0.924818 -0.052983
C25   C     C_R   0.739971 0.498501 0.500487 0.749517
C26   C     C_3   0.073008 0.500869 0.651401 -0.414999
C27   C     C_3   0.930696 0.501762 0.651732 -0.376256
C28   C     C_3   0.082417 0.605153 0.421403 -0.378360
C29   C     C_3   0.056882 0.367267 0.436043 0.009043
C30   C     C_3   0.121555 0.491125 0.499993 0.121109
Cu1   Cu    Cu3+1 0.499990 0.499990 0.640660 0.918055
Cu2   Cu    Cu3+1 0.500010 0.500010 0.359340 0.942815
H1    H     H_    0.115509 0.587047 0.703110 0.184207
H2    H     H_    0.877778 0.366278 0.323755 0.189003
H3    H     H_    0.118250 0.607870 0.313471 0.166932
H4    H     H_    0.908519 0.597091 0.309355 0.182304
H5    H     H_    0.684301 0.237522 0.696780 0.147442
H6    H     H_    0.731265 0.143270 0.916709 0.135594
H7    H     H_    0.645291 0.929766 0.966695 0.142898
H8    H     H_    0.523069 0.810303 0.796337 0.174508
H9    H     H_    0.429995 0.880714 0.299546 0.161168
H10   H     H_    0.339075 0.376888 0.125650 0.127332
H11   H     H_    0.882877 0.740875 0.105727 0.145735
H12   H     H_    0.864322 0.745970 0.857598 0.155569
H13   H     H_    0.676739 0.667548 0.746928 0.207062
H14   H     H_    0.339141 0.376755 0.868833 0.131974
H15   H     H_    0.888857 0.422915 0.713811 0.174347
H16   H     H_    0.906770 0.588710 0.701987 0.180184
H17   H     H_    0.123645 0.691511 0.473759 0.155544
H18   H     H_    0.913771 0.693178 0.465050 0.147215
H19   H     H_    0.867519 0.291720 0.488310 0.119375
N1    N     N_R   0.501200 0.501210 0.147910 -0.187158
N2    N     N_R   0.501250 0.501290 0.852040 -0.196561
O1    O     O_R   0.499990 0.319640 0.618810 -0.577650
O2    O     O_R   0.500000 0.319660 0.381240 -0.584492
O3    O     O_R   0.317680 0.499970 0.618790 -0.587351
O4    O     O_R   0.317700 0.499990 0.381210 -0.589636
O5    O     O_R   0.500000 0.680340 0.618760 -0.617775
O6    O     O_R   0.500010 0.680360 0.381190 -0.544770
O7    O     O_R   0.682300 0.500010 0.618790 -0.610711
O8    O     O_R   0.682320 0.500030 0.381210 -0.556706
H20   H     H_    0.435315 0.103504 0.294889 0.161708
H21   H     H_    0.099699 0.421457 0.713627 0.162096
N3    N     N_3   0.688079 0.716913 0.260174 -0.512490
H22   H     H_    0.652949 0.799513 0.230168 0.203197
H23   H     H_    0.774082 0.743923 0.306083 0.174583
N4    N     N_3   0.101177 0.336186 0.297263 -0.610270
H24   H     H_    0.105519 0.413087 0.232936 0.233626
H25   H     H_    0.189974 0.305207 0.305440 0.217740
H26   H     H_    0.077033 0.290306 0.505947 0.127811

loop_
_geom_bond_atom_site_label_1
_geom_bond_atom_site_label_2
_ccdc_geom_bond_type
Cu1   O7    S    
C22   H10   S    
C23   O5    A    
C2    C4    S    
C26   H21   S    
C6    H6    S    
C16   C21   A    
C25   O7    A    
C5    H5    S    
Cu1   O3    S    
C2    C25   S    
C4    H2    S    
C8    H8    S    
C28   H17   S    
C26   H1    S    
C20   N2    A    
C4    C29   S    
C1    C11   S    
C1    O1    A    
C2    C27   S    
C24   H14   S    
N3    H22   S    
C19   C20   A    
C15   C23   S    
C17   C18   A    
C1    O2    A    
C5    C10   A    
C12   O3    A    
C13   C14   A    
Cu1   N2    S    
C23   O6    A    
C11   C13   A    
C26   C27   S    
C29   C30   S    
C3    H4    S    
Cu2   O2    S    
C12   O4    A    
Cu2   O4    S    
Cu1   O5    S    
C28   C30   S    
C3    C28   S    
C3    H18   S    
Cu2   O8    S    
C26   C30   S    
C6    C7    A    
C2    C3    S    
C14   H9    S    
Cu1   O1    S    
C9    C15   A    
C5    C6    A    
C22   C24   A    
C16   C17   A    
C10   C11   A    
C13   H20   S    
C4    H19   S    
N4    H24   S    
C18   H12   S    
C7    C8    A    
C20   C21   A    
C27   H16   S    
C22   N1    A    
C29   H26   S    
C9    C10   A    
C27   H15   S    
C17   H11   S    
C7    H7    S    
C14   C15   A    
C18   C19   A    
C25   O8    A    
C16   N3    S    
Cu2   O6    S    
C12   C30   S    
C24   N2    A    
C29   N4    S    
C21   N1    A    
Cu2   N1    S    
C19   H13   S    
Cu1   Cu2   S    
C28   H3    S    
C8    C9    A    
N4    H25   S    
N3    H23   S    
