data_mof_unit_32219.cif
_audit_creation_date              2012-10-26T19:42:39-0400
_audit_creation_method            fapswitch 2.2
_symmetry_space_group_name_H-M    P1
_symmetry_Int_Tables_number       1
_space_group_crystal_system       triclinic
_cell_length_a                    19.362724
_cell_length_b                    10.899953
_cell_length_c                    9.563427
_cell_angle_alpha                 89.754893
_cell_angle_beta                  90.645727
_cell_angle_gamma                 96.09753
_cell_volume                      2006.83179966

loop_
_atom_site_label
_atom_site_type_symbol
_atom_type_description
_atom_site_fract_x
_atom_site_fract_y
_atom_site_fract_z
_atom_type_partial_charge
C1    C     C_R   0.496048 0.261524 0.499894 0.538160
C2    C     C_R   0.855194 0.505050 0.504703 0.029343
C3    C     C_R   0.412446 0.111490 0.709116 -0.089236
C4    C     C_R   0.367712 0.503607 0.499085 0.531003
C5    C     C_R   0.380012 0.042505 0.817238 -0.114847
C6    C     C_R   0.381324 0.915668 0.821103 -0.097996
C7    C     C_R   0.414029 0.856975 0.715515 -0.084313
C8    C     C_R   0.450049 0.925353 0.607202 0.015217
C9    C     C_R   0.450707 0.055815 0.605797 0.019271
C10   C     C_R   0.486521 0.125535 0.497192 -0.032228
C11   C     C_R   0.508015 0.063594 0.378006 -0.061039
C12   C     C_R   0.292277 0.513989 0.496803 -0.013389
C13   C     C_R   0.496360 0.935880 0.370810 -0.062066
C14   C     C_R   0.479653 0.866716 0.493584 -0.032103
C15   C     C_R   0.610349 0.666885 0.135351 0.059670
C16   C     C_R   0.492075 0.735421 0.498874 0.517102
C17   C     C_R   0.660249 0.727244 0.044572 -0.136749
C18   C     C_R   0.652104 0.725957 0.904112 -0.167386
C19   C     C_R   0.596298 0.658282 0.846168 -0.053031
C20   C     C_R   0.548870 0.579053 0.923761 0.164790
C21   C     C_R   0.551799 0.580542 0.075588 0.193700
C22   C     C_R   0.452890 0.426518 0.073284 0.028210
C23   C     C_R   0.931205 0.515276 0.511821 0.336239
C24   C     C_R   0.453051 0.426417 0.925631 0.017628
C25   C     C_R   0.632154 0.489693 0.500826 0.520757
C26   C     C_R   0.252798 0.466344 0.610020 -0.153942
C27   C     C_R   0.181676 0.472842 0.612491 -0.132141
C28   C     C_R   0.147646 0.526473 0.501528 0.039050
C29   C     C_R   0.186329 0.575005 0.384632 -0.012749
C30   C     C_R   0.259329 0.571605 0.384761 -0.006475
C31   C     C_1   0.494655 0.880011 0.232736 0.251661
C32   C     C_3   0.633413 0.721497 0.278802 -0.298062
C33   C     C_3   0.149552 0.625442 0.259235 -0.376302
C34   C     C_R   0.071428 0.525137 0.509012 0.337201
C35   C     C_1   0.300529 0.632605 0.273757 0.208292
C36   C     C_1   0.714150 0.455698 0.764399 0.222677
C37   C     C_3   0.709754 0.414666 0.244815 -0.347035
C38   C     C_3   0.859553 0.508796 0.240299 -0.384347
C39   C     C_1   0.542272 0.128198 0.259849 0.224429
C40   C     C_R   0.818955 0.491154 0.629646 -0.140946
C41   C     C_R   0.746685 0.478995 0.630316 -0.038594
C42   C     C_R   0.708657 0.478288 0.502359 -0.009578
C43   C     C_R   0.745763 0.469406 0.375200 -0.019035
C44   C     C_R   0.819103 0.495524 0.375535 0.011255
Cu1   Cu    Cu3+1 0.500000 0.499990 0.640660 0.925550
Cu2   Cu    Cu3+1 0.500000 0.500010 0.359340 0.966210
H1    H     H_    0.277017 0.422682 0.697051 0.126201
H2    H     H_    0.152874 0.435082 0.702124 0.136272
H3    H     H_    0.414146 0.366531 0.870038 0.094624
H4    H     H_    0.847577 0.490911 0.727923 0.126529
H5    H     H_    0.687854 0.702027 0.300398 0.094118
H6    H     H_    0.633794 0.823673 0.273952 0.102752
H7    H     H_    0.610130 0.700506 0.378431 0.180425
H8    H     H_    0.182826 0.639759 0.165858 0.133637
H9    H     H_    0.104663 0.559250 0.227067 0.148580
H10   H     H_    0.131411 0.715562 0.285990 0.163661
H11   H     H_    0.661803 0.354546 0.269977 0.187527
H12   H     H_    0.403452 0.207136 0.704573 0.127911
H13   H     H_    0.698398 0.488602 0.171041 0.162375
H14   H     H_    0.742639 0.351704 0.192187 0.139260
H15   H     H_    0.893535 0.433322 0.231951 0.147497
H16   H     H_    0.826156 0.508095 0.145467 0.130009
H17   H     H_    0.891958 0.598989 0.238389 0.158409
H18   H     H_    0.351656 0.087288 0.895715 0.108232
H19   H     H_    0.354096 0.861774 0.902765 0.143643
H20   H     H_    0.406498 0.757608 0.716843 0.160386
H21   H     H_    0.414231 0.366131 0.128158 0.113022
H22   H     H_    0.705803 0.785469 0.082111 0.124164
H23   H     H_    0.689343 0.780105 0.838732 0.120227
H24   H     H_    0.595133 0.669743 0.737047 0.189114
N1    N     N_R   0.038744 0.620219 0.457828 -0.237497
N2    N     N_1   0.569195 0.178379 0.164976 -0.289233
N3    N     N_R   0.969819 0.615254 0.458672 -0.234451
N4    N     N_R   0.963716 0.422042 0.567590 -0.221389
N5    N     N_R   0.032635 0.426898 0.566183 -0.229835
N6    N     N_R   0.500660 0.501210 0.147910 -0.228278
N7    N     N_R   0.500680 0.501290 0.852040 -0.243554
N8    N     N_1   0.492327 0.837631 0.121820 -0.274953
N9    N     N_1   0.333374 0.681374 0.185236 -0.292859
N10   N     N_1   0.688728 0.435477 0.872153 -0.302537
O1    O     O_R   0.499990 0.319640 0.618810 -0.495340
O2    O     O_R   0.500000 0.319660 0.381240 -0.492342
O3    O     O_R   0.400140 0.499970 0.618820 -0.521559
O4    O     O_R   0.400150 0.500000 0.381250 -0.487660
O5    O     O_R   0.500000 0.680340 0.618760 -0.543142
O6    O     O_R   0.500010 0.680360 0.381190 -0.494462
O7    O     O_R   0.599850 0.500000 0.618750 -0.505668
O8    O     O_R   0.599860 0.500030 0.381180 -0.517643

loop_
_geom_bond_atom_site_label_1
_geom_bond_atom_site_label_2
_ccdc_geom_bond_type
C27   H2    S    
C33   H9    S    
C41   C42   A    
C19   C20   A    
C22   N6    A    
Cu2   N6    S    
C7    C8    A    
Cu1   Cu2   S    
C21   N6    A    
C26   C27   A    
C30   C35   S    
C28   C29   A    
Cu1   O7    S    
C5    C6    A    
C1    O1    A    
C29   C33   S    
C33   H8    S    
C18   C19   A    
C32   H6    S    
Cu2   O2    S    
C6    H19   S    
C2    C44   A    
C8    C9    A    
C39   N2    T    
C4    C12   S    
C9    C10   A    
C34   N5    A    
C38   H15   S    
C18   H23   S    
C28   C34   S    
C13   C14   A    
C16   O6    A    
C36   C41   S    
Cu1   O3    S    
C23   N3    A    
Cu2   O8    S    
N4    N5    A    
C15   C32   S    
C36   N10   T    
N1    N3    A    
C1    O2    A    
C25   O8    A    
C5    H18   S    
C12   C26   A    
C37   C43   S    
Cu1   O5    S    
C43   C44   A    
C3    H12   S    
C32   H5    S    
C38   C44   S    
C29   C30   A    
C3    C9    A    
C4    O4    A    
C17   C18   A    
C11   C39   S    
C37   H13   S    
C26   H1    S    
Cu2   O4    S    
C20   N7    A    
C40   C41   A    
C16   O5    A    
C22   C24   A    
C42   C43   A    
C23   N4    A    
C32   H7    S    
C2    C23   S    
C31   N8    T    
C38   H17   S    
C24   H3    S    
C15   C17   A    
C17   H22   S    
C8    C14   A    
C12   C30   A    
C13   C31   S    
Cu1   O1    S    
C1    C10   S    
C3    C5    A    
C25   C42   S    
C6    C7    A    
C7    H20   S    
C11   C13   A    
C4    O3    A    
C33   H10   S    
C40   H4    S    
C35   N9    T    
C14   C16   S    
C22   H21   S    
C37   H14   S    
C10   C11   A    
C25   O7    A    
C2    C40   A    
C24   N7    A    
C15   C21   A    
C20   C21   A    
C27   C28   A    
C19   H24   S    
Cu1   N7    S    
Cu2   O6    S    
C34   N1    A    
C37   H11   S    
C38   H16   S    
