data_mof_unit_63480.cif
_audit_creation_date              2012-12-11T14:22:44-0500
_audit_creation_method            fapswitch 2.2
_symmetry_space_group_name_H-M    P1
_symmetry_Int_Tables_number       1
_space_group_crystal_system       triclinic
_cell_length_a                    16.910812
_cell_length_b                    6.951303
_cell_length_c                    15.321252
_cell_angle_alpha                 90.0
_cell_angle_beta                  93.637711
_cell_angle_gamma                 90.000013
_cell_volume                      1797.41776907

loop_
_atom_site_label
_atom_site_type_symbol
_atom_type_description
_atom_site_fract_x
_atom_site_fract_y
_atom_site_fract_z
_atom_type_partial_charge
O1    O     O_R   0.414560 0.494300 0.417030 -0.546705
O2    O     O_R   0.585440 0.994300 0.582970 -0.546705
O3    O     O_R   0.577160 0.822630 0.413790 -0.539900
O4    O     O_R   0.422840 0.322630 0.586210 -0.539900
C1    C     C_R   0.604264 0.655209 0.393284 0.725222
C2    C     C_R   0.395736 0.155209 0.606716 0.725222
O5    O     O_R   0.414660 0.823920 0.406630 -0.514095
O6    O     O_R   0.585340 0.323920 0.593370 -0.514095
O7    O     O_R   0.421790 0.995650 0.575760 -0.534593
O8    O     O_R   0.578210 0.495650 0.424240 -0.534593
C3    C     C_R   0.387369 0.655355 0.384151 0.748672
C4    C     C_R   0.612631 0.155355 0.615848 0.748671
O9    O     O_3   0.502530 0.661260 0.555500 -0.369673
O10   O     O_3   0.497470 0.161260 0.444500 -0.369673
V1    V     V_3+5 0.499530 0.935570 0.489700 1.462289
V2    V     V_3+5 0.500470 0.435570 0.510300 1.462289
C5    C     C_2   0.781706 0.269594 0.792536 -0.183408
C6    C     C_2   0.218295 0.769594 0.207463 -0.183408
C7    C     C_2   0.827485 0.112573 0.808727 0.025577
C8    C     C_2   0.172515 0.612573 0.191273 0.025577
H1    H     H_    0.791460 0.395543 0.833827 0.102734
H2    H     H_    0.208541 0.895541 0.166171 0.102733
C9    C     C_2   0.721318 0.290987 0.717491 0.236964
C10   C     C_2   0.278682 0.790987 0.282509 0.236965
C11   C     C_2   0.675108 0.142205 0.687918 -0.254968
C12   C     C_2   0.324892 0.642205 0.312082 -0.254968
H3    H     H_    0.681046 0.002999 0.719514 0.132460
H4    H     H_    0.318954 0.503000 0.280485 0.132458
C13   C     C_1   0.166405 0.119208 0.831316 -0.197418
C14   C     C_1   0.833595 0.619208 0.168684 -0.197418
C15   C     C_1   0.218887 0.127496 0.780056 0.005290
C16   C     C_1   0.781113 0.627496 0.219944 0.005290
C17   C     C_1   0.280847 0.137441 0.719900 0.005699
C18   C     C_1   0.719153 0.637440 0.280100 0.005699
C19   C     C_1   0.333333 0.145755 0.668657 -0.194225
C20   C     C_1   0.666667 0.645755 0.331342 -0.194224
O11   O     O_R   0.921850 0.770730 0.075840 -0.532468
O12   O     O_R   0.078150 0.270730 0.924160 -0.532468
O13   O     O_R   0.085350 0.439650 0.093390 -0.542916
O14   O     O_R   0.914650 0.939650 0.906610 -0.542916
C21   C     C_R   0.111909 0.608179 0.116716 0.695916
C22   C     C_R   0.888091 0.108179 0.883284 0.695916
O15   O     O_R   0.922860 0.441090 0.086230 -0.536498
O16   O     O_R   0.077140 0.941090 0.913770 -0.536498
O17   O     O_R   0.914540 0.269530 0.917020 -0.544388
O18   O     O_R   0.085460 0.769530 0.082980 -0.544388
C23   C     C_R   0.895960 0.609819 0.106707 0.719986
C24   C     C_R   0.104040 0.109819 0.893293 0.719987
O19   O     O_3   0.997510 0.602520 0.944550 -0.367779
O20   O     O_3   0.002490 0.102520 0.055450 -0.367779
V3    V     V_3+5 0.000460 0.328160 0.010290 1.412834
V4    V     V_3+5 0.999540 0.828160 0.989710 1.412834
N1    N     N_3   0.822028 0.950375 0.750543 -0.672925
H5    H     H_    0.877791 0.927918 0.726529 0.231791
H6    H     H_    0.807809 0.828900 0.786616 0.223064
N2    N     N_3   0.177970 0.450377 0.249459 -0.672924
H7    H     H_    0.122207 0.427924 0.273473 0.231791
H8    H     H_    0.192189 0.328900 0.213387 0.223064
N3    N     N_3   0.710749 0.478616 0.679447 -0.640370
H9    H     H_    0.765289 0.523217 0.658029 0.230072
H10   H     H_    0.695348 0.573367 0.728571 0.213758
N4    N     N_3   0.289250 0.978615 0.320554 -0.640370
H11   H     H_    0.234710 0.023212 0.341972 0.230072
H12   H     H_    0.304650 0.073368 0.271431 0.213759

loop_
_geom_bond_atom_site_label_1
_geom_bond_atom_site_label_2
_ccdc_geom_bond_type
O4    V2    S    
O13   V3    S    
C21   O18   A    
C15   C17   S    
O19   V3    S    
O14   V4    S    
N4    H11   S    
O11   C23   A    
O20   V4    S    
O1    C3    A    
C7    C22   S    
C8    N2    S    
C4    C11   S    
O6    C4    A    
O19   V4    S    
O2    C4    A    
O16   V4    S    
C2    O7    A    
O5    V1    S    
O20   V3    S    
O7    V1    S    
C1    O8    A    
C13   C15   T    
O1    V2    S    
O8    V2    S    
N1    H5    S    
C2    C19   S    
C9    N3    S    
O2    V1    S    
C7    N1    S    
C5    C9    S    
O15   C23   A    
O15   V3    S    
C6    C10   S    
O14   C22   A    
C12   H4    S    
C17   C19   T    
C10   C12   D    
C8    C21   S    
C18   C20   T    
N1    H6    S    
O9    V1    S    
O10   V2    S    
N3    H10   S    
C11   H3    S    
O17   V3    S    
C13   C24   S    
N4    H12   S    
C14   C16   T    
C1    C20   S    
O18   V4    S    
C14   C23   S    
N3    H9    S    
C9    C11   D    
O3    V1    S    
N2    H7    S    
O13   C21   A    
C6    C8    D    
O4    C2    A    
O6    V2    S    
O9    V2    S    
O11   V4    S    
O10   V1    S    
O5    C3    A    
C10   N4    S    
O12   V3    S    
C3    C12   S    
C5    C7    D    
C6    H2    S    
O12   C24   A    
C5    H1    S    
O16   C24   A    
N2    H8    S    
O3    C1    A    
C22   O17   A    
C16   C18   S    
