data_mof_unit_37064.cif
_audit_creation_date              2012-12-10T19:04:44-0500
_audit_creation_method            fapswitch 2.2
_symmetry_space_group_name_H-M    P1
_symmetry_Int_Tables_number       1
_space_group_crystal_system       triclinic
_cell_length_a                    15.862862
_cell_length_b                    10.812664
_cell_length_c                    9.578903
_cell_angle_alpha                 90.222035
_cell_angle_beta                  90.798271
_cell_angle_gamma                 90.702179
_cell_volume                      1642.67522007

loop_
_atom_site_label
_atom_site_type_symbol
_atom_type_description
_atom_site_fract_x
_atom_site_fract_y
_atom_site_fract_z
_atom_type_partial_charge
C1    C     C_R   0.498648 0.262377 0.499812 0.786296
C2    C     C_3   0.083170 0.501345 0.497834 0.049864
C3    C     C_3   0.973787 0.610671 0.551488 -0.217400
C4    C     C_3   0.916680 0.501987 0.502201 0.076084
C5    C     C_3   0.027888 0.595269 0.418229 -0.194775
C6    C     C_3   0.970361 0.486404 0.371384 0.261151
C7    C     C_1   0.174783 0.500847 0.496903 -0.045908
C8    C     C_1   0.825078 0.502124 0.502804 -0.044384
C9    C     C_R   0.493266 0.063919 0.625266 0.127043
C10   C     C_R   0.490629 0.129031 0.499722 -0.096308
C11   C     C_R   0.475708 0.063465 0.374613 -0.228038
C12   C     C_R   0.339945 0.499880 0.499126 0.819542
C13   C     C_R   0.475067 0.934545 0.374989 -0.217192
C14   C     C_R   0.490083 0.870493 0.500224 -0.095909
C15   C     C_R   0.493072 0.936696 0.625494 0.133770
C16   C     C_3   0.554932 0.931316 0.744271 -0.481268
C17   C     C_3   0.555219 0.071813 0.744042 -0.466026
C18   C     C_R   0.554017 0.575729 0.075298 0.209347
C19   C     C_R   0.440535 0.434200 0.070038 0.230909
C20   C     C_R   0.441929 0.434298 0.921848 -0.073650
C21   C     C_R   0.554174 0.575411 0.928005 0.188773
C22   C     C_3   0.648214 0.574827 0.922642 -0.523760
C23   C     C_R   0.498484 0.737536 0.500116 0.804258
C24   C     C_3   0.648393 0.574374 0.081529 0.042179
C25   C     C_R   0.660018 0.500530 0.500840 0.833887
C26   C     C_3   0.972618 0.409249 0.581441 0.153167
C27   C     C_3   0.025620 0.393850 0.449592 0.258386
C28   C     C_1   0.250297 0.500325 0.497308 -0.186083
C29   C     C_1   0.749601 0.501503 0.502480 -0.188371
C30   C     C_3   0.030719 0.517405 0.631265 -0.192591
Cu1   Cu    Cu3+1 0.500000 0.499980 0.640670 0.939393
Cu2   Cu    Cu3+1 0.500000 0.500020 0.359330 0.944969
H1    H     H_    0.616215 0.891049 0.713773 0.193363
H2    H     H_    0.527116 0.112354 0.839280 0.199126
H3    H     H_    0.616679 0.113371 0.713341 0.196224
H4    H     H_    0.396045 0.380565 0.861971 0.149129
H5    H     H_    0.672764 0.487434 0.878277 0.194210
H6    H     H_    0.674349 0.659889 0.874241 0.200263
H7    H     H_    0.673709 0.487384 0.126312 0.142240
H8    H     H_    0.051523 0.671232 0.351082 0.144374
H9    H     H_    0.951147 0.699721 0.594092 0.151321
H10   H     H_    0.056916 0.530226 0.738512 0.148696
H11   H     H_    0.468304 0.110995 0.276004 0.161466
H12   H     H_    0.466566 0.885798 0.276788 0.158770
H13   H     H_    0.526620 0.890865 0.839580 0.198621
N1    N     N_R   0.500530 0.500930 0.147930 -0.208016
N2    N     N_R   0.500530 0.500890 0.852020 -0.199963
O1    O     O_R   0.500000 0.319640 0.618810 -0.579386
O2    O     O_R   0.500010 0.319680 0.381230 -0.594607
O3    O     O_R   0.379070 0.499970 0.618770 -0.579835
O4    O     O_R   0.379080 0.500010 0.381190 -0.577839
O5    O     O_R   0.499990 0.680320 0.618770 -0.574332
O6    O     O_R   0.500000 0.680360 0.381190 -0.574591
O7    O     O_R   0.620920 0.499990 0.618810 -0.579008
O8    O     O_R   0.620930 0.500030 0.381230 -0.566493
N3    N     N_2   0.058528 0.279504 0.394184 -0.430954
H14   H     H_    0.109596 0.247163 0.450195 0.252743
C31   C     C_3   0.997283 0.183535 0.360450 -0.711431
H15   H     H_    0.027297 0.112389 0.294437 0.229411
H16   H     H_    0.942824 0.221278 0.301564 0.232735
H17   H     H_    0.974942 0.138292 0.457082 0.227296
C32   C     C_3   0.368961 0.362738 0.134548 -0.787885
H18   H     H_    0.318513 0.427115 0.164956 0.238834
H19   H     H_    0.339634 0.296622 0.058651 0.173222
H20   H     H_    0.389309 0.306035 0.223347 0.255242
N4    N     N_2   0.686964 0.684125 0.146107 -0.389246
H21   H     H_    0.751945 0.683291 0.144856 0.261383
C33   C     C_3   0.652038 0.805372 0.119295 -0.654567
H22   H     H_    0.683039 0.874196 0.190009 0.219760
H23   H     H_    0.583530 0.806360 0.140328 0.228697
H24   H     H_    0.663455 0.833954 0.010032 0.207622
C34   C     C_3   0.940101 0.308032 0.677235 -0.890053
H25   H     H_    0.993303 0.249703 0.712554 0.235252
H26   H     H_    0.910211 0.350559 0.769529 0.234875
H27   H     H_    0.892418 0.250026 0.620977 0.233035
N5    N     N_2   0.934621 0.472564 0.232164 -0.431971
H28   H     H_    0.886416 0.408019 0.225038 0.241533
C35   C     C_3   0.994953 0.464134 0.120956 -0.685095
H29   H     H_    0.961132 0.464448 0.018671 0.219702
H30   H     H_    0.031061 0.377131 0.129807 0.249663
H31   H     H_    0.039144 0.544582 0.124317 0.229113

loop_
_geom_bond_atom_site_label_1
_geom_bond_atom_site_label_2
_ccdc_geom_bond_type
N4    C33   S    
C18   C21   A    
C26   C34   S    
C2    C7    S    
Cu1   O5    S    
C4    C8    S    
C19   N1    A    
C26   C27   S    
C12   C28   S    
C18   C24   S    
C8    C29   T    
N5    C35   S    
C5    C6    S    
C35   H30   S    
C19   C32   S    
C31   H16   S    
C15   C16   S    
C22   H6    S    
C24   H7    S    
N3    H14   S    
C32   H19   S    
Cu1   Cu2   S    
C33   H22   S    
C11   H11   S    
C2    C27   S    
C9    C10   A    
Cu2   O8    S    
C24   N4    S    
C31   H17   S    
N4    H21   S    
Cu1   N2    S    
C13   C14   A    
C34   H27   S    
C18   N1    A    
C23   O6    A    
C25   C29   S    
N5    H28   S    
C4    C6    S    
C27   N3    S    
C16   C17   S    
C31   H15   S    
C22   H5    S    
C7    C28   T    
C14   C23   S    
C3    C30   S    
Cu2   O4    S    
C32   H18   S    
C16   H1    S    
C4    C26   S    
C6    C27   S    
C25   O7    A    
C34   H26   S    
C26   C30   S    
Cu1   O1    S    
C22   C24   S    
C2    C5    S    
C17   H2    S    
Cu1   O3    S    
C3    C4    S    
Cu2   O6    S    
C12   O4    A    
C9    C17   S    
C3    H9    S    
C32   H20   S    
C35   H29   S    
Cu2   N1    S    
C1    C10   S    
C25   O8    A    
C34   H25   S    
C3    C5    S    
C16   H13   S    
C12   O3    A    
C1    O1    A    
C6    N5    S    
C2    C30   S    
C19   C20   A    
C9    C15   A    
C11   C13   A    
C35   H31   S    
C23   O5    A    
C33   H24   S    
N3    C31   S    
Cu1   O7    S    
Cu2   O2    S    
C20   N2    A    
C10   C11   A    
C20   H4    S    
C33   H23   S    
C5    H8    S    
C14   C15   A    
C30   H10   S    
C17   H3    S    
C21   C22   S    
C1    O2    A    
C13   H12   S    
C21   N2    A    
