data_mof_unit_51078.cif
_audit_creation_date              2012-10-26T20:13:28-0400
_audit_creation_method            fapswitch 2.2
_symmetry_space_group_name_H-M    P1
_symmetry_Int_Tables_number       1
_space_group_crystal_system       triclinic
_cell_length_a                    19.448499
_cell_length_b                    18.137161
_cell_length_c                    11.683296
_cell_angle_alpha                 89.562321
_cell_angle_beta                  90.001821
_cell_angle_gamma                 90.000053
_cell_volume                      4121.05210161

loop_
_atom_site_label
_atom_site_type_symbol
_atom_type_description
_atom_site_fract_x
_atom_site_fract_y
_atom_site_fract_z
_atom_type_partial_charge
C1    C     C_R   0.367739 0.500000 0.499976 0.584516
C2    C     C_R   0.549565 0.201346 0.562985 -0.126651
C3    C     C_R   0.449439 0.798470 0.558332 -0.124616
C4    C     C_R   0.449443 0.201530 0.441653 -0.124618
C5    C     C_R   0.499416 0.838485 0.497079 0.055955
C6    C     C_R   0.499416 0.161515 0.502920 0.055944
C7    C     C_R   0.501270 0.959563 0.603103 0.211594
C8    C     C_R   0.501271 0.040436 0.396896 0.211595
C9    C     C_R   0.499751 0.962461 0.395040 0.214266
C10   C     C_R   0.499750 0.037538 0.604959 0.214262
C11   C     C_R   0.500077 0.078728 0.501803 -0.052332
C12   C     C_R   0.632248 0.500000 0.500024 0.584907
C13   C     C_R   0.500077 0.921272 0.498196 -0.052332
C14   C     C_R   0.499998 0.500218 0.283743 0.539206
C15   C     C_R   0.499974 0.499782 0.716257 0.539207
C16   C     C_1   0.499960 0.500538 0.162215 -0.040520
C17   C     C_1   0.499941 0.499461 0.837785 -0.040520
C18   C     C_1   0.499933 0.500272 0.059802 -0.068086
C19   C     C_1   0.499925 0.499728 0.940198 -0.068086
C20   C     C_R   0.743655 0.448777 0.568403 0.207561
C21   C     C_R   0.256294 0.551030 0.567492 0.207784
C22   C     C_R   0.256290 0.448969 0.432467 0.207781
C23   C     C_R   0.072224 0.499998 0.499991 0.035297
C24   C     C_R   0.743651 0.551222 0.431640 0.207565
C25   C     C_R   0.815513 0.448475 0.566635 -0.125105
C26   C     C_R   0.184433 0.551346 0.565693 -0.125093
C27   C     C_R   0.184429 0.448651 0.434274 -0.125088
C28   C     C_R   0.815510 0.551523 0.433403 -0.125108
C29   C     C_R   0.851858 0.499999 0.500017 -0.059117
C30   C     C_R   0.148086 0.499998 0.499985 -0.059071
C31   C     C_R   0.707489 0.500000 0.500024 0.027546
C32   C     C_R   0.292473 0.500000 0.499977 0.027502
C33   C     C_R   0.964180 0.566810 0.499720 -0.114989
C34   C     C_R   0.927718 0.499998 0.500011 0.035301
C35   C     C_R   0.035762 0.433184 0.500892 -0.114986
C36   C     C_R   0.035762 0.566811 0.499100 -0.114988
C37   C     C_R   0.964180 0.433185 0.500292 -0.114988
C38   C     C_3   0.707719 0.419748 0.748593 0.006716
C39   C     C_3   0.664483 0.365371 0.818723 -0.255802
C40   C     C_3   0.665299 0.384115 0.945771 -0.485535
C41   C     C_3   0.292039 0.579754 0.747234 0.006710
C42   C     C_3   0.334927 0.634224 0.816485 -0.255623
C43   C     C_3   0.333701 0.615520 0.943963 -0.484685
C44   C     C_3   0.292032 0.420247 0.252727 0.006709
C45   C     C_R   0.548969 0.721226 0.439721 0.035248
C46   C     C_3   0.334925 0.365782 0.183479 -0.255619
C47   C     C_3   0.333702 0.384491 0.056003 -0.484684
C48   C     C_3   0.707713 0.580254 0.251448 0.006716
C49   C     C_3   0.664480 0.634634 0.181314 -0.255808
C50   C     C_3   0.665300 0.615895 0.054265 -0.485537
C51   C     C_3   0.568076 0.906466 0.740469 0.026693
C52   C     C_3   0.566196 0.858314 0.848286 -0.256026
C53   C     C_3   0.638426 0.840024 0.890790 -0.489658
C54   C     C_3   0.568076 0.093539 0.259542 0.026693
C55   C     C_3   0.566195 0.141687 0.151720 -0.256022
C56   C     C_R   0.548964 0.278774 0.560294 0.035251
C57   C     C_3   0.638424 0.159984 0.109227 -0.489657
C58   C     C_3   0.435076 0.919969 0.247146 0.031139
C59   C     C_3   0.439718 0.897397 0.121679 -0.251539
C60   C     C_3   0.368652 0.887983 0.068517 -0.492386
C61   C     C_3   0.435073 0.080029 0.752845 0.031139
C62   C     C_3   0.439714 0.102600 0.878314 -0.251537
C63   C     C_3   0.368647 0.112014 0.931465 -0.492384
C64   C     C_R   0.450588 0.721065 0.558505 0.034574
C65   C     C_R   0.450592 0.278935 0.441479 0.034578
C66   C     C_R   0.549570 0.798654 0.437030 -0.126649
Cu1   Cu    Cu3+1 0.500000 0.573360 0.500000 0.957425
Cu2   Cu    Cu3+1 0.500000 0.426640 0.500000 0.957421
H1    H     H_    0.842730 0.408618 0.619182 0.121105
H2    H     H_    0.587958 0.308769 0.606360 0.156086
H3    H     H_    0.411641 0.690979 0.605205 0.155706
H4    H     H_    0.411649 0.309021 0.394767 0.155695
H5    H     H_    0.589502 0.827188 0.389697 0.125783
H6    H     H_    0.589495 0.172812 0.610329 0.125792
H7    H     H_    0.409527 0.826894 0.605209 0.123549
H8    H     H_    0.409534 0.173106 0.394764 0.123559
H9    H     H_    0.684360 0.475696 0.756168 0.126543
H10   H     H_    0.760856 0.420612 0.784220 0.126740
H11   H     H_    0.610492 0.366802 0.787782 0.174460
H12   H     H_    0.157215 0.591077 0.617523 0.120983
H13   H     H_    0.684823 0.308614 0.807353 0.164856
H14   H     H_    0.718579 0.381601 0.979811 0.141763
H15   H     H_    0.633054 0.343926 0.993792 0.149676
H16   H     H_    0.644134 0.440150 0.959101 0.150519
H17   H     H_    0.315577 0.523892 0.756073 0.126734
H18   H     H_    0.238835 0.578627 0.782583 0.126515
H19   H     H_    0.389038 0.632883 0.786174 0.173389
H20   H     H_    0.314523 0.690933 0.803523 0.164982
H21   H     H_    0.280243 0.617367 0.977271 0.141379
H22   H     H_    0.365284 0.656141 0.991384 0.151027
H23   H     H_    0.157208 0.408919 0.382447 0.120987
H24   H     H_    0.355435 0.559777 0.958908 0.150049
H25   H     H_    0.315568 0.476111 0.243895 0.126727
H26   H     H_    0.238828 0.421372 0.217371 0.126519
H27   H     H_    0.389035 0.367125 0.213801 0.173385
H28   H     H_    0.314523 0.309072 0.196433 0.164983
H29   H     H_    0.280245 0.382643 0.022684 0.141379
H30   H     H_    0.365288 0.343874 0.008584 0.151028
H31   H     H_    0.355434 0.440236 0.041068 0.150050
H32   H     H_    0.684352 0.524307 0.243867 0.126549
H33   H     H_    0.760850 0.579389 0.215828 0.126737
H34   H     H_    0.842723 0.591379 0.380852 0.121102
H35   H     H_    0.610488 0.633203 0.212245 0.174466
H36   H     H_    0.684821 0.691390 0.192694 0.164855
H37   H     H_    0.718581 0.618412 0.020236 0.141764
H38   H     H_    0.633056 0.656086 0.006242 0.149676
H39   H     H_    0.644136 0.559861 0.040925 0.150517
H40   H     H_    0.595102 0.959014 0.760346 0.160729
H41   H     H_    0.597069 0.876481 0.672875 0.125526
H42   H     H_    0.537923 0.887783 0.916675 0.166242
H43   H     H_    0.538456 0.806152 0.829674 0.171481
H44   H     H_    0.667173 0.808955 0.824643 0.148803
H45   H     H_    0.937396 0.619135 0.500980 0.102379
H46   H     H_    0.635000 0.805453 0.969449 0.146319
H47   H     H_    0.666796 0.891395 0.911401 0.145751
H48   H     H_    0.595110 0.040994 0.239677 0.160722
H49   H     H_    0.597064 0.123532 0.327138 0.125530
H50   H     H_    0.537927 0.112211 0.083328 0.166244
H51   H     H_    0.538448 0.193847 0.170321 0.171477
H52   H     H_    0.667169 0.191053 0.175380 0.148803
H53   H     H_    0.634996 0.194557 0.030569 0.146318
H54   H     H_    0.666798 0.108615 0.088617 0.145750
H55   H     H_    0.406068 0.972976 0.251511 0.155896
H56   H     H_    0.062547 0.380855 0.503071 0.102400
H57   H     H_    0.406662 0.876770 0.296145 0.128803
H58   H     H_    0.468209 0.940587 0.073112 0.172207
H59   H     H_    0.468470 0.844615 0.115017 0.166348
H60   H     H_    0.339564 0.844105 0.114375 0.145513
H61   H     H_    0.374182 0.872020 0.977394 0.153876
H62   H     H_    0.339467 0.940551 0.072453 0.144126
H63   H     H_    0.406066 0.027022 0.748475 0.155896
H64   H     H_    0.406659 0.123228 0.703843 0.128805
H65   H     H_    0.468203 0.059410 0.926884 0.172205
H66   H     H_    0.468466 0.155382 0.884981 0.166348
H67   H     H_    0.062546 0.619140 0.496915 0.102400
H68   H     H_    0.339561 0.155895 0.885607 0.145514
H69   H     H_    0.374175 0.127973 0.022591 0.153874
H70   H     H_    0.339461 0.059447 0.927519 0.144125
H71   H     H_    0.937395 0.380860 0.499040 0.102379
H72   H     H_    0.587966 0.691231 0.393667 0.156096
N1    N     N_R   0.500000 0.683620 0.500000 -0.226964
N2    N     N_R   0.500000 0.316380 0.500000 -0.226963
O1    O     O_R   0.400190 0.561980 0.499980 -0.476202
O2    O     O_3   0.291264 0.602821 0.631502 -0.571355
O3    O     O_3   0.291256 0.397177 0.368457 -0.571353
O4    O     O_3   0.708662 0.603163 0.366710 -0.571552
O5    O     O_3   0.499914 0.920846 0.705494 -0.569014
O6    O     O_3   0.499915 0.079153 0.294504 -0.569017
O7    O     O_3   0.502390 0.926791 0.290999 -0.567153
O8    O     O_3   0.502388 0.073208 0.709001 -0.567161
O9    O     O_R   0.599810 0.438020 0.500020 -0.476993
O10   O     O_R   0.599810 0.561980 0.500020 -0.476990
O11   O     O_R   0.400190 0.438020 0.499980 -0.476205
O12   O     O_R   0.500010 0.561950 0.337200 -0.504134
O13   O     O_R   0.499990 0.438050 0.662800 -0.504133
O14   O     O_R   0.499990 0.561950 0.662800 -0.504556
O15   O     O_R   0.500010 0.438050 0.337200 -0.504555
O16   O     O_3   0.708669 0.396836 0.633333 -0.571550

loop_
_geom_bond_atom_site_label_1
_geom_bond_atom_site_label_2
_ccdc_geom_bond_type
C7    C10   A    
C21   C26   A    
C34   C37   A    
C41   C42   S    
C40   H16   S    
C40   H15   S    
Cu2   O13   S    
Cu1   O1    S    
C49   H36   S    
C55   H51   S    
C3    C64   A    
C52   C53   S    
C59   H58   S    
C41   H18   S    
C9    O7    S    
C58   H55   S    
C43   H21   S    
C47   H30   S    
C22   C32   A    
Cu1   O12   S    
C62   H65   S    
C35   H56   S    
C35   C37   A    
C38   C39   S    
C20   C25   A    
C59   H59   S    
C23   C36   A    
C33   C36   A    
C47   H31   S    
C18   C19   S    
C64   H3    S    
C9    C13   A    
C44   H25   S    
C61   H64   S    
C57   H54   S    
C46   C47   S    
C46   H27   S    
C8    C9    A    
C48   O4    S    
C50   H37   S    
C27   H23   S    
C51   O5    S    
C3    H7    S    
C61   O8    S    
C5    C13   S    
C64   N1    A    
C2    H6    S    
C58   O7    S    
C56   N2    A    
C59   C60   S    
C51   H41   S    
C20   O16   S    
C14   O12   A    
C27   C30   A    
C45   N1    A    
C63   H69   S    
C12   O9    A    
C8    O6    S    
C44   C46   S    
C33   C34   A    
C7    O5    S    
C25   C29   A    
C48   H32   S    
C21   C32   A    
C43   H22   S    
C14   O15   A    
Cu1   Cu2   S    
C23   C30   S    
C40   H14   S    
C60   H60   S    
C39   H13   S    
C41   O2    S    
C4    C6    A    
Cu2   O11   S    
C60   H62   S    
C39   C40   S    
C51   H40   S    
C38   H10   S    
C52   H43   S    
C58   C59   S    
C66   H5    S    
C29   C34   S    
C45   H72   S    
C26   H12   S    
C2    C6    A    
C54   H48   S    
Cu1   O14   S    
C39   H11   S    
C1    O11   A    
C62   C63   S    
C1    O1    A    
C22   O3    S    
C52   H42   S    
C44   O3    S    
C46   H28   S    
Cu2   N2    S    
C38   O16   S    
C15   O14   A    
C57   H52   S    
C53   H44   S    
C48   C49   S    
C26   C30   A    
C23   C35   A    
C22   C27   A    
C55   C57   S    
C12   C31   S    
C50   H39   S    
C63   H70   S    
C14   C16   S    
C42   H20   S    
C42   C43   S    
Cu2   O15   S    
Cu1   N1    S    
C36   H67   S    
C6    C11   S    
C53   H46   S    
C54   O6    S    
C15   C17   S    
C54   C55   S    
C28   C29   A    
Cu1   O10   S    
C15   O13   A    
C24   C28   A    
C21   O2    S    
C5    C66   A    
C3    C5    A    
C60   H61   S    
C49   H35   S    
C38   H9    S    
C65   H4    S    
C41   H17   S    
C33   H45   S    
C43   H24   S    
C47   H29   S    
C63   H68   S    
C62   H66   S    
C24   C31   A    
C51   C52   S    
Cu2   O9    S    
C24   O4    S    
C10   O8    S    
C65   N2    A    
C4    C65   A    
C8    C11   A    
C48   H33   S    
C56   H2    S    
C17   C19   T    
C1    C32   S    
C61   C62   S    
C4    H8    S    
C44   H26   S    
C10   C11   A    
C61   H63   S    
C57   H53   S    
C12   O10   A    
C28   H34   S    
C7    C13   A    
C25   H1    S    
C58   H57   S    
C16   C18   T    
C49   C50   S    
C37   H71   S    
C54   H49   S    
C45   C66   A    
C50   H38   S    
C2    C56   A    
C42   H19   S    
C55   H50   S    
C53   H47   S    
C20   C31   A    
