data_mof_unit_25136.cif
_audit_creation_date              2012-12-10T19:46:55-0500
_audit_creation_method            fapswitch 2.2
_symmetry_space_group_name_H-M    P1
_symmetry_Int_Tables_number       1
_space_group_crystal_system       triclinic
_cell_length_a                    10.934371
_cell_length_b                    10.961043
_cell_length_c                    13.101454
_cell_angle_alpha                 91.765566
_cell_angle_beta                  91.725292
_cell_angle_gamma                 89.910614
_cell_volume                      1568.77964045

loop_
_atom_site_label
_atom_site_type_symbol
_atom_type_description
_atom_site_fract_x
_atom_site_fract_y
_atom_site_fract_z
_atom_type_partial_charge
C1    C     C_R   0.489150 0.259719 0.498248 0.816794
C2    C     C_R   0.568264 0.860304 0.757977 0.073894
C3    C     C_R   0.531781 0.116971 0.307636 0.019826
C4    C     C_R   0.465747 0.881060 0.691939 0.103433
C5    C     C_R   0.647866 0.150339 0.274927 -0.121436
C6    C     C_R   0.347691 0.852889 0.723276 -0.147944
C7    C     C_R   0.661562 0.195144 0.177438 -0.090769
C8    C     C_R   0.330511 0.807426 0.820010 -0.017653
C9    C     C_R   0.559619 0.207580 0.111953 -0.144706
C10   C     C_R   0.430896 0.789082 0.886069 -0.105436
C11   C     C_R   0.544078 0.933895 0.414121 -0.051239
C12   C     C_R   0.511342 0.740163 0.501840 0.867367
C13   C     C_R   0.460277 0.066453 0.587456 -0.036959
C14   C     C_R   0.515599 0.873460 0.504226 -0.173012
C15   C     C_R   0.486556 0.126335 0.496530 -0.186394
C16   C     C_R   0.259404 0.503741 0.498479 0.816525
C17   C     C_R   0.740621 0.496646 0.501618 0.853555
C18   C     C_R   0.479798 0.940465 0.592473 -0.090714
C19   C     C_R   0.521835 0.059125 0.408320 -0.086255
C20   C     C_1   0.499885 0.500294 0.173538 0.185815
C21   C     C_1   0.500175 0.499508 0.826457 0.197194
C22   C     C_1   0.499899 0.500133 0.050695 -0.004132
C23   C     C_R   0.873083 0.496022 0.503968 -0.109239
C24   C     C_1   0.500258 0.499502 0.949299 -0.004320
C25   C     C_R   0.185668 0.644649 0.171811 -0.034745
C26   C     C_R   0.810635 0.365649 0.831820 -0.032704
C27   C     C_R   0.156246 0.625326 0.273416 -0.238859
C28   C     C_R   0.841294 0.381167 0.729644 -0.136432
C29   C     C_R   0.107188 0.514243 0.301902 0.079103
C30   C     C_R   0.892976 0.490258 0.699154 0.025495
C31   C     C_R   0.090531 0.419613 0.228717 -0.147693
C32   C     C_R   0.912474 0.585987 0.771005 -0.144546
C33   C     C_R   0.121476 0.435043 0.126598 -0.039509
C34   C     C_R   0.126956 0.504515 0.496444 -0.107517
C35   C     C_R   0.881952 0.573596 0.873606 -0.016688
C36   C     C_R   0.168023 0.548871 0.097404 0.310135
C37   C     C_R   0.832174 0.462062 0.904542 0.206893
C38   C     C_R   0.930027 0.498108 0.409810 -0.198445
C39   C     C_R   0.070082 0.502443 0.590628 -0.228848
C40   C     C_2   0.602112 0.868899 0.326178 0.390103
C41   C     C_2   0.404248 0.134792 0.674871 0.434003
C42   C     C_2   0.231050 0.767648 0.147875 0.456016
C43   C     C_2   0.760213 0.246859 0.861917 0.457094
C44   C     C_2   0.101693 0.332646 0.050819 0.471669
C45   C     C_R   0.943852 0.497799 0.595974 0.024937
C46   C     C_2   0.905654 0.676417 0.948177 0.513776
C47   C     C_2   0.303713 0.095780 0.273721 0.309906
C48   C     C_2   0.694363 0.888456 0.726885 0.430028
C49   C     C_R   0.056193 0.503421 0.404597 0.025651
C50   C     C_R   0.443360 0.176862 0.144000 -0.103538
C51   C     C_R   0.549058 0.814021 0.855137 -0.153481
C52   C     C_R   0.427719 0.130806 0.241800 0.021827
Cl1   Cl    Cl    0.203057 0.570068 0.968288 -0.697545
Cl2   Cl    Cl    0.800824 0.442057 0.034663 -0.749664
Cu1   Cu    Cu3+1 0.499990 0.499990 0.592680 0.995372
Cu2   Cu    Cu3+1 0.500010 0.500010 0.407320 1.009694
H1    H     H_    0.727949 0.139414 0.324522 0.145944
H2    H     H_    0.124436 0.502361 0.661326 0.184726
H3    H     H_    0.570196 0.241833 0.036240 0.166832
H4    H     H_    0.417629 0.754492 0.961312 0.191818
H5    H     H_    0.365774 0.188361 0.091812 0.187447
H6    H     H_    0.625357 0.797587 0.907581 0.169974
H7    H     H_    0.572697 0.887278 0.248297 0.069393
H8    H     H_    0.331816 0.200326 0.660011 0.053316
H9    H     H_    0.271878 0.825401 0.208480 0.036432
H10   H     H_    0.752438 0.225726 0.941599 0.123293
H11   H     H_    0.131491 0.339152 0.973055 0.113965
H12   H     H_    0.268861 0.868709 0.673345 0.125551
H13   H     H_    0.874772 0.672759 0.025834 0.116853
H14   H     H_    0.289908 0.061422 0.349240 0.064526
H15   H     H_    0.711017 0.921326 0.651349 0.081554
H16   H     H_    0.751550 0.219110 0.152394 0.202431
H17   H     H_    0.239024 0.787701 0.844006 0.226647
H18   H     H_    0.166223 0.699113 0.330146 0.135058
H19   H     H_    0.829395 0.306618 0.673932 0.173765
H20   H     H_    0.050875 0.334462 0.251554 0.197758
H21   H     H_    0.954379 0.669436 0.746826 0.199223
H22   H     H_    0.875775 0.498411 0.339062 0.194154
N1    N     N_1   0.500030 0.500030 0.268070 -0.132003
N2    N     N_1   0.499970 0.499970 0.731930 -0.136884
O1    O     O_R   0.499980 0.319630 0.578260 -0.575589
O2    O     O_2   0.440938 0.122042 0.762853 -0.510120
O3    O     O_2   0.218832 0.808536 0.062649 -0.467392
O4    O     O_2   0.726946 0.170125 0.797494 -0.521566
O5    O     O_2   0.050512 0.239006 0.074131 -0.484214
O6    O     O_2   0.961378 0.767055 0.924014 -0.459301
O7    O     O_2   0.214864 0.104415 0.215717 -0.494804
O8    O     O_2   0.781827 0.875951 0.785695 -0.510128
O9    O     O_R   0.500020 0.680370 0.421740 -0.561526
O10   O     O_R   0.500000 0.319650 0.421740 -0.568806
O11   O     O_R   0.500000 0.680350 0.578260 -0.595832
O12   O     O_R   0.319630 0.500000 0.578260 -0.587237
O13   O     O_R   0.680370 0.500000 0.421740 -0.557517
O14   O     O_R   0.319650 0.500020 0.421740 -0.582759
O15   O     O_R   0.680350 0.499980 0.578260 -0.581821
O16   O     O_2   0.687087 0.798329 0.340280 -0.528846

loop_
_geom_bond_atom_site_label_1
_geom_bond_atom_site_label_2
_ccdc_geom_bond_type
Cu1   Cu2   S    
C1    O10   A    
C23   C45   A    
C27   C29   A    
C14   C18   A    
C30   C45   S    
C10   H4    S    
C13   C41   S    
C38   C49   A    
C29   C49   S    
Cu2   O14   S    
C11   C19   A    
C17   C23   S    
Cu2   N1    S    
C13   C18   A    
C35   C37   A    
C11   C14   A    
C1    O1    A    
C33   C36   A    
C46   H13   S    
Cu1   O11   S    
C36   Cl1   S    
C12   O11   A    
C16   C34   S    
C32   H21   S    
C15   C19   A    
C42   H9    S    
C50   C52   A    
C48   O8    D    
C3    C19   S    
C1    C15   S    
Cu1   O1    S    
C27   H18   S    
C39   C45   A    
C4    C18   S    
C6    H12   S    
C43   O4    D    
C51   H6    S    
C40   O16   D    
C10   C51   A    
C26   C43   S    
Cu2   O13   S    
C9    C50   A    
C34   C39   A    
C32   C35   A    
C12   O9    A    
Cu1   O15   S    
C7    H16   S    
C5    C7    A    
C6    C8    A    
C38   H22   S    
C2    C48   S    
C39   H2    S    
C9    H3    S    
C47   O7    D    
C2    C4    A    
C47   H14   S    
Cu1   O12   S    
C31   C33   A    
C40   H7    S    
C17   O15   A    
C37   Cl2   S    
C4    C6    A    
Cu2   O9    S    
C12   C14   S    
C16   O12   A    
C13   C15   A    
C22   C24   T    
C17   O13   A    
C48   H15   S    
C44   O5    D    
C7    C9    A    
C34   C49   A    
C20   N1    T    
C33   C44   S    
C26   C28   A    
C42   O3    D    
C20   C22   S    
C3    C5    A    
C25   C42   S    
C3    C52   A    
C26   C37   A    
C47   C52   S    
C25   C27   A    
C23   C38   A    
C16   O14   A    
C5    H1    S    
C28   C30   A    
C29   C31   A    
C30   C32   A    
Cu1   N2    S    
C28   H19   S    
C31   H20   S    
C43   H10   S    
C41   O2    D    
C21   N2    T    
Cu2   O10   S    
C8    H17   S    
C11   C40   S    
C2    C51   A    
C25   C36   A    
C8    C10   A    
C21   C24   S    
C50   H5    S    
C44   H11   S    
C41   H8    S    
C35   C46   S    
C46   O6    D    
