data_mof_unit_64008.cif
_audit_creation_date              2012-12-10T20:20:05-0500
_audit_creation_method            fapswitch 2.2
_symmetry_space_group_name_H-M    P1
_symmetry_Int_Tables_number       1
_space_group_crystal_system       triclinic
_cell_length_a                    47.58898
_cell_length_b                    35.528816
_cell_length_c                    31.860631
_cell_angle_alpha                 89.999297
_cell_angle_beta                  131.767181
_cell_angle_gamma                 90.000887
_cell_volume                      40178.8463094

loop_
_atom_site_label
_atom_site_type_symbol
_atom_type_description
_atom_site_fract_x
_atom_site_fract_y
_atom_site_fract_z
_atom_type_partial_charge
C1    C     C_R   0.073343 0.000058 0.572382 0.933271
C2    C     C_3   0.041824 0.019156 0.766879 0.318866
C3    C     C_R   0.573502 0.000031 0.073377 0.905688
C4    C     C_R   0.926498 0.500031 0.926623 0.905707
C5    C     C_R   0.073502 0.500031 0.073377 0.905710
C6    C     C_R   0.500000 0.073602 1.000000 0.873828
C7    C     C_R   0.999999 0.573602 0.999999 0.873826
C8    C     C_R   0.498677 0.826283 0.960638 -0.150399
C9    C     C_R   0.501325 0.826283 0.039367 -0.150408
C10   C     C_R   0.998683 0.326282 0.960650 -0.150371
C11   C     C_R   0.001327 0.326286 0.039374 -0.150421
C12   C     C_R   0.498704 0.865455 0.960612 -0.187332
C13   C     C_3   0.458100 0.518975 0.233044 0.318862
C14   C     C_R   0.501297 0.865455 0.039391 -0.187339
C15   C     C_R   0.998709 0.365453 0.960620 -0.187352
C16   C     C_R   0.001297 0.365457 0.039395 -0.187324
C17   C     C_R   0.500000 0.885331 0.000001 -0.045314
C18   C     C_R   0.000002 0.385332 0.000005 -0.045313
C19   C     C_R   0.500001 0.806832 0.000003 0.144334
C20   C     C_R   0.000006 0.306833 0.000015 0.144320
C21   C     C_1   0.500002 0.766817 0.000003 -0.045549
C22   C     C_1   0.000005 0.266818 0.000018 -0.045535
C23   C     C_3   0.011096 0.968464 0.283517 -0.503907
C24   C     C_3   0.541898 0.518979 0.766954 0.318863
C25   C     C_3   0.989039 0.968415 0.716615 -0.503951
C26   C     C_3   0.511106 0.468466 0.283527 -0.503897
C27   C     C_3   0.488897 0.468464 0.716476 -0.503902
C28   C     C_1   0.000004 0.233182 0.000019 0.098199
C29   C     C_1   0.500002 0.733181 0.000003 0.098061
C30   C     C_R   0.967467 0.173596 0.955280 0.445796
C31   C     C_R   0.032533 0.173592 0.044747 0.445625
C32   C     C_R   0.467479 0.673593 0.955247 0.445713
C33   C     C_R   0.532524 0.673592 0.044757 0.445698
C34   C     C_R   0.967323 0.134257 0.956301 -0.309729
C35   C     C_1   0.000033 0.005972 0.162684 -0.005928
C36   C     C_R   0.032677 0.134254 0.043717 -0.309428
C37   C     C_R   0.467332 0.634255 0.956269 -0.309509
C38   C     C_R   0.532669 0.634255 0.043733 -0.309485
C39   C     C_R   0.000000 0.114495 0.000005 -0.151004
C40   C     C_R   0.500001 0.614495 0.000001 -0.151103
C41   C     C_R   0.000001 0.193052 0.000017 -0.084596
C42   C     C_R   0.500001 0.693052 0.000002 -0.084728
C43   C     C_R   0.498423 0.173695 0.036482 -0.145041
C44   C     C_R   0.501574 0.173695 0.963512 -0.145029
C45   C     C_R   0.998410 0.673695 0.036467 -0.145043
C46   C     C_1   0.999955 0.005962 0.837303 -0.005887
C47   C     C_R   0.001566 0.673694 0.963503 -0.145034
C48   C     C_R   0.498456 0.134567 0.036571 -0.195489
C49   C     C_R   0.501543 0.134567 0.963426 -0.195451
C50   C     C_R   0.998447 0.634567 0.036561 -0.195469
C51   C     C_R   0.001539 0.634566 0.963421 -0.195475
C52   C     C_R   0.499999 0.114742 0.999999 -0.044367
C53   C     C_R   0.999996 0.614742 0.999995 -0.044365
C54   C     C_R   0.499998 0.193073 0.999997 0.142875
C55   C     C_R   0.999986 0.693072 0.999981 0.142881
C56   C     C_1   0.499997 0.232967 0.999996 0.013581
C57   C     C_1   0.500031 0.505972 0.162682 -0.005928
C58   C     C_1   0.999983 0.732967 0.999978 0.013581
C59   C     C_3   0.002799 0.967850 0.228161 0.307666
C60   C     C_3   0.997340 0.967831 0.771975 0.307680
C61   C     C_3   0.502810 0.467850 0.228172 0.307652
C62   C     C_3   0.497193 0.467849 0.771832 0.307659
C63   C     C_1   0.999984 0.766552 0.999977 0.077512
C64   C     C_1   0.499997 0.266553 0.999996 0.077511
C65   C     C_R   0.982738 0.826197 0.016318 -0.066458
C66   C     C_R   0.017241 0.826197 0.983654 -0.066441
C67   C     C_R   0.482755 0.326197 0.016343 -0.066458
C68   C     C_1   0.499969 0.505971 0.837317 -0.005930
C69   C     C_R   0.517241 0.326198 0.983651 -0.066460
C70   C     C_R   0.982445 0.865854 0.015821 -0.120077
C71   C     C_R   0.017548 0.865854 0.984171 -0.120035
C72   C     C_R   0.482458 0.365854 0.015840 -0.120060
C73   C     C_R   0.517540 0.365855 0.984156 -0.120059
C74   C     C_R   0.999999 0.885461 0.999999 -0.201619
C75   C     C_R   0.499999 0.385461 0.999999 -0.201600
C76   C     C_R   0.999986 0.806800 0.999981 -0.042911
C77   C     C_R   0.499998 0.306800 0.999996 -0.042897
C78   C     C_1   0.999809 0.002860 0.125134 -0.162979
C79   C     C_1   0.999653 0.003038 0.336798 0.085522
C80   C     C_1   0.000189 0.002854 0.874863 -0.162974
C81   C     C_1   0.499808 0.502860 0.125134 -0.162987
C82   C     C_1   0.500192 0.502860 0.874866 -0.162985
C83   C     C_3   0.999653 0.007328 0.291111 -0.072937
C84   C     C_3   0.000324 0.007327 0.708866 -0.072900
C85   C     C_3   0.499651 0.507327 0.291108 -0.072931
C86   C     C_3   0.500348 0.507326 0.708891 -0.072930
C87   C     C_3   0.034251 0.035866 0.259547 0.263611
C88   C     C_3   0.965613 0.035719 0.740320 0.263588
C89   C     C_3   0.534239 0.535877 0.259535 0.263612
C90   C     C_1   0.000340 0.003039 0.663194 0.085472
C91   C     C_3   0.465758 0.535872 0.740460 0.263614
C92   C     C_3   0.000440 0.009270 0.208944 -0.093212
C93   C     C_3   0.999532 0.009260 0.791028 -0.093219
C94   C     C_3   0.500437 0.509270 0.208941 -0.093215
C95   C     C_3   0.499562 0.509269 0.791058 -0.093211
C96   C     C_2   0.073181 0.020880 0.283705 0.960603
C97   C     C_2   0.926745 0.020573 0.716223 0.960639
C98   C     C_2   0.573173 0.520905 0.283697 0.960619
C99   C     C_2   0.426824 0.520896 0.716299 0.960609
C100  C     C_2   0.019849 0.076302 0.314704 1.059590
C101  C     C_1   0.499651 0.503037 0.336797 0.085517
C102  C     C_2   0.979853 0.076220 0.685007 1.059656
C103  C     C_2   0.519823 0.576307 0.314680 1.059586
C104  C     C_2   0.480170 0.576303 0.685311 1.059589
C105  C     C_3   0.026242 0.081722 0.194517 0.175588
C106  C     C_3   0.037934 0.122073 0.197040 -0.756639
C107  C     C_3   0.973439 0.081604 0.805169 0.175557
C108  C     C_3   0.961586 0.121907 0.802489 -0.756509
C109  C     C_3   0.526210 0.581731 0.194487 0.175595
C110  C     C_3   0.537885 0.622088 0.196993 -0.756677
C111  C     C_3   0.473780 0.581727 0.805501 0.175597
C112  C     C_R   0.926657 0.000057 0.427612 0.933366
C113  C     C_1   0.500348 0.503036 0.663203 0.085513
C114  C     C_3   0.462101 0.622082 0.802989 -0.756661
C115  C     C_2   0.927873 0.017167 0.127105 0.976794
C116  C     C_2   0.072067 0.017451 0.872832 0.976776
C117  C     C_2   0.427867 0.517141 0.127100 0.976794
C118  C     C_2   0.572131 0.517148 0.872899 0.976795
C119  C     C_3   0.304037 0.039114 0.715672 0.072106
C120  C     C_3   0.276748 0.041188 0.651799 -0.719863
C121  C     C_3   0.695325 0.038985 0.284186 0.072574
C122  C     C_3   0.722876 0.041233 0.348064 -0.722018
C123  C     C_3   0.804348 0.539068 0.715749 0.072333
C124  C     C_1   0.999919 0.000628 0.374466 -0.119691
C125  C     C_3   0.776930 0.541232 0.651874 -0.720933
C126  C     C_3   0.195671 0.539062 0.284261 0.072300
C127  C     C_3   0.223087 0.541218 0.348136 -0.720846
C128  C     C_2   0.115671 0.050689 0.557424 0.989354
C129  C     C_2   0.884317 0.050585 0.442656 0.989275
C130  C     C_2   0.615676 0.550657 0.557400 0.989319
C131  C     C_2   0.384323 0.550657 0.442597 0.989311
C132  C     C_2   0.070324 0.030533 0.366601 0.911016
C133  C     C_2   0.929562 0.030249 0.633288 0.911014
C134  C     C_2   0.570313 0.530555 0.366590 0.910967
C135  C     C_1   0.000081 0.000627 0.625534 -0.119782
C136  C     C_2   0.429684 0.530546 0.633405 0.910970
C137  C     C_3   0.204800 0.084537 0.682301 0.119718
C138  C     C_3   0.219045 0.115875 0.668080 -0.752436
C139  C     C_3   0.795165 0.084467 0.317854 0.120061
C140  C     C_3   0.780687 0.115647 0.331909 -0.752632
C141  C     C_3   0.704819 0.584509 0.682250 0.119888
C142  C     C_3   0.719178 0.615777 0.668121 -0.752526
C143  C     C_3   0.295186 0.584511 0.317741 0.119889
C144  C     C_3   0.280822 0.615781 0.331859 -0.752529
C145  C     C_3   0.929093 0.189937 0.862826 0.085033
C146  C     C_1   0.499919 0.500627 0.374466 -0.119716
C147  C     C_3   0.898129 0.217083 0.818944 -0.764509
C148  C     C_3   0.070799 0.190027 0.137139 0.084953
C149  C     C_3   0.101852 0.217079 0.181091 -0.764377
C150  C     C_3   0.429237 0.690020 0.862852 0.084963
C151  C     C_3   0.398208 0.717088 0.818896 -0.764385
C152  C     C_3   0.570758 0.690026 0.137147 0.084955
C153  C     C_3   0.601794 0.717088 0.181108 -0.764381
C154  C     C_2   0.966097 0.804881 0.035587 0.947342
C155  C     C_2   0.033873 0.804881 0.964371 0.947353
C156  C     C_2   0.466125 0.304880 0.035629 0.947336
C157  C     C_1   0.500081 0.500626 0.625534 -0.119715
C158  C     C_2   0.533870 0.304882 0.964364 0.947337
C159  C     C_2   0.963913 0.886865 0.032064 0.968204
C160  C     C_2   0.036097 0.886863 0.967953 0.968083
C161  C     C_2   0.463931 0.386863 0.032093 0.968189
C162  C     C_2   0.536068 0.386866 0.967906 0.968186
C163  C     C_3   0.020587 0.907766 0.223142 0.125631
C164  C     C_3   0.051068 0.886126 0.230211 -0.697651
C165  C     C_3   0.979785 0.907671 0.777202 0.125519
C166  C     C_3   0.949397 0.885907 0.770235 -0.697340
C167  C     C_3   0.520620 0.407773 0.223176 0.125631
C168  C     C_R   0.326554 0.997679 0.866194 -0.242899
C169  C     C_3   0.551109 0.386144 0.230252 -0.697651
C170  C     C_3   0.479388 0.407768 0.776833 0.125633
C171  C     C_3   0.448902 0.386136 0.769763 -0.697633
C172  C     C_3   0.934055 0.054669 0.268680 0.121019
C173  C     C_3   0.898473 0.078208 0.237311 -0.747079
C174  C     C_3   0.065727 0.054936 0.731101 0.121039
C175  C     C_3   0.101208 0.078628 0.762366 -0.747019
C176  C     C_3   0.434037 0.554645 0.268663 0.121016
C177  C     C_3   0.398447 0.578173 0.237286 -0.747088
C178  C     C_3   0.565959 0.554651 0.731332 0.121019
C179  C     C_R   0.673443 0.997659 0.133801 -0.243456
C180  C     C_3   0.601547 0.578182 0.762707 -0.747071
C181  C     C_2   0.927419 0.989019 0.211439 0.868777
C182  C     C_2   0.072633 0.989309 0.788607 0.868774
C183  C     C_2   0.427422 0.488993 0.211443 0.868780
C184  C     C_2   0.572579 0.489000 0.788559 0.868781
C185  C     C_R   0.826556 0.497665 0.866195 -0.243175
C186  C     C_R   0.173444 0.497666 0.133804 -0.243163
C187  C     C_R   0.365707 0.998143 0.904710 -0.182170
C188  C     C_R   0.573343 0.500058 0.572384 0.933280
C189  C     C_R   0.634291 0.998132 0.095288 -0.182081
C190  C     C_R   0.865708 0.498133 0.904710 -0.182127
C191  C     C_R   0.134292 0.498134 0.095289 -0.182129
C192  C     C_R   0.385247 0.999728 0.885856 -0.105830
C193  C     C_R   0.614754 0.999727 0.114143 -0.105204
C194  C     C_R   0.885247 0.499728 0.885856 -0.105523
C195  C     C_R   0.114753 0.499728 0.114144 -0.105540
C196  C     C_R   0.365076 0.000913 0.827911 -0.304621
C197  C     C_R   0.634927 0.000919 0.172089 -0.306080
C198  C     C_R   0.865075 0.500922 0.827911 -0.305334
C199  C     C_R   0.426657 0.500057 0.427616 0.933280
C200  C     C_R   0.134925 0.500919 0.172089 -0.305293
C201  C     C_R   0.325706 0.001160 0.789125 0.516285
C202  C     C_R   0.674305 0.001172 0.210882 0.516693
C203  C     C_R   0.825701 0.501172 0.789121 0.516486
C204  C     C_R   0.174299 0.501167 0.210878 0.516483
C205  C     C_R   0.000017 0.000057 0.418918 0.928700
C206  C     C_R   0.999987 0.000057 0.581085 0.928866
C207  C     C_R   0.500017 0.500057 0.418918 0.928741
C208  C     C_R   0.499983 0.500057 0.581082 0.928740
C209  C     C_R   0.306663 0.998995 0.808670 0.031694
C210  C     C_3   0.962420 0.026209 0.188201 -0.378488
C211  C     C_R   0.693337 0.998982 0.191326 0.032516
C212  C     C_R   0.806663 0.498990 0.808671 0.032092
C213  C     C_R   0.193337 0.498988 0.191329 0.032072
C214  C     C_1   0.266594 0.999265 0.769700 0.007678
C215  C     C_1   0.733406 0.999251 0.230289 0.008875
C216  C     C_1   0.766594 0.499260 0.769704 0.008263
C217  C     C_1   0.233406 0.499258 0.230295 0.008239
C218  C     C_1   0.232952 0.000047 0.736188 0.012118
C219  C     C_1   0.767049 0.000029 0.263792 0.012307
C220  C     C_1   0.732952 0.500039 0.736196 0.012205
C221  C     C_3   0.037483 0.026354 0.811701 -0.378481
C222  C     C_1   0.267048 0.500037 0.263802 0.012205
C223  C     C_R   0.172574 0.975065 0.698141 -0.208955
C224  C     C_R   0.827434 0.975101 0.301784 -0.209079
C225  C     C_R   0.672571 0.475077 0.698168 -0.209029
C226  C     C_R   0.327429 0.475074 0.301834 -0.209025
C227  C     C_R   0.133570 0.974629 0.657175 -0.200206
C228  C     C_R   0.866438 0.974670 0.342755 -0.200202
C229  C     C_R   0.633566 0.474644 0.657200 -0.200227
C230  C     C_R   0.366434 0.474641 0.342802 -0.200227
C231  C     C_R   0.114496 0.000275 0.612464 -0.164230
C232  C     C_3   0.462411 0.526196 0.188193 -0.378490
C233  C     C_R   0.885505 0.000272 0.387518 -0.164131
C234  C     C_R   0.614496 0.500275 0.612471 -0.164200
C235  C     C_R   0.385504 0.500273 0.387529 -0.164198
C236  C     C_R   0.134897 0.026616 0.608230 -0.158830
C237  C     C_R   0.865097 0.026567 0.391799 -0.159032
C238  C     C_R   0.634899 0.526600 0.608221 -0.158911
C239  C     C_R   0.365100 0.526600 0.391776 -0.158917
C240  C     C_R   0.174422 0.028115 0.651537 0.434791
C241  C     C_R   0.825573 0.028063 0.348491 0.435000
C242  C     C_R   0.674424 0.528097 0.651530 0.434891
C243  C     C_3   0.537586 0.526199 0.811804 -0.378493
C244  C     C_R   0.325576 0.528097 0.348466 0.434873
C245  C     C_R   0.192890 0.001496 0.695315 0.010843
C246  C     C_R   0.807112 0.001485 0.304662 0.010769
C247  C     C_R   0.692889 0.501492 0.695325 0.010801
C248  C     C_R   0.307110 0.501490 0.304674 0.010804
C249  C     C_R   0.000000 0.073331 0.000001 0.895228
C250  C     C_R   0.500000 0.573331 0.000000 0.895216
C251  C     C_3   0.031067 0.037267 0.307644 -0.238316
C252  C     C_3   0.968791 0.037138 0.692218 -0.238347
C253  C     C_3   0.531054 0.537276 0.307632 -0.238309
C254  C     C_3   0.958107 0.018991 0.233050 0.318866
C255  C     C_3   0.468942 0.537271 0.692363 -0.238313
C256  C     C_R   0.999943 0.000253 0.081035 0.942505
C257  C     C_R   0.000057 0.000252 0.918964 0.942574
C258  C     C_R   0.499943 0.500253 0.081035 0.942516
C259  C     C_R   0.500057 0.500253 0.918965 0.942519
C260  C     C_R   1.000000 0.926627 0.000000 0.976334
C261  C     C_R   0.500000 0.426627 1.000000 0.976261
C262  C     C_R   0.500000 0.926567 0.000000 0.877506
C263  C     C_R   0.000000 0.426567 0.000001 0.877509
C264  C     C_R   0.426498 0.000032 0.926623 0.905726
H1    H     H_    0.311790 0.996401 0.881245 0.162498
H2    H     H_    0.620323 0.001809 0.187394 0.174122
H3    H     H_    0.794357 0.558836 0.730628 0.136292
H4    H     H_    0.748321 0.532715 0.633877 0.289665
H5    H     H_    0.775710 0.570516 0.638557 0.198452
H6    H     H_    0.786277 0.522252 0.635510 0.253915
H7    H     H_    0.167388 0.548180 0.267295 0.139427
H8    H     H_    0.205677 0.558819 0.269393 0.136321
H9    H     H_    0.251690 0.532675 0.366134 0.289659
H10   H     H_    0.224328 0.570506 0.361461 0.198460
H11   H     H_    0.213721 0.522254 0.364488 0.253882
H12   H     H_    0.075895 0.054656 0.472805 0.376318
H13   H     H_    0.879675 0.501827 0.812600 0.174402
H14   H     H_    0.924104 0.054484 0.527279 0.376446
H15   H     H_    0.575891 0.554607 0.472780 0.376314
H16   H     H_    0.424107 0.554607 0.527217 0.376317
H17   H     H_    0.123641 0.049612 0.426144 0.362468
H18   H     H_    0.876169 0.049115 0.573672 0.362525
H19   H     H_    0.623624 0.549652 0.426126 0.362492
H20   H     H_    0.376371 0.549637 0.573866 0.362490
H21   H     H_    0.227590 0.077111 0.727445 0.125235
H22   H     H_    0.180151 0.095635 0.675658 0.153069
H23   H     H_    0.196591 0.124386 0.623399 0.287049
H24   H     H_    0.120325 0.501824 0.187401 0.174415
H25   H     H_    0.227170 0.140645 0.695393 0.200639
H26   H     H_    0.243983 0.106199 0.674893 0.236431
H27   H     H_    0.772495 0.077045 0.272677 0.125339
H28   H     H_    0.819851 0.095709 0.324714 0.153315
H29   H     H_    0.803012 0.124148 0.376627 0.286791
H30   H     H_    0.772562 0.140462 0.304668 0.200691
H31   H     H_    0.755702 0.105811 0.324860 0.236760
H32   H     H_    0.727550 0.577078 0.727408 0.125284
H33   H     H_    0.680152 0.595674 0.675507 0.153194
H34   H     H_    0.696787 0.624291 0.623425 0.286915
H35   H     H_    0.186946 0.954697 0.732066 0.165521
H36   H     H_    0.727306 0.640564 0.695408 0.200669
H37   H     H_    0.744139 0.606027 0.675044 0.236591
H38   H     H_    0.272460 0.577079 0.272582 0.125271
H39   H     H_    0.319857 0.595674 0.324493 0.153202
H40   H     H_    0.303208 0.624292 0.376557 0.286916
H41   H     H_    0.272703 0.640568 0.304576 0.200669
H42   H     H_    0.255855 0.606033 0.324921 0.236564
H43   H     H_    0.919876 0.160890 0.845579 0.147456
H44   H     H_    0.954973 0.197101 0.870361 0.136106
H45   H     H_    0.906686 0.246448 0.834704 0.253958
H46   H     H_    0.813067 0.954766 0.267818 0.165508
H47   H     H_    0.892951 0.214580 0.779530 0.208734
H48   H     H_    0.871670 0.210451 0.809697 0.263591
H49   H     H_    0.079869 0.160965 0.154381 0.147432
H50   H     H_    0.044907 0.197361 0.129489 0.136129
H51   H     H_    0.093445 0.246458 0.165332 0.254005
H52   H     H_    0.106935 0.214667 0.220436 0.208723
H53   H     H_    0.128323 0.210271 0.190458 0.263572
H54   H     H_    0.420149 0.660960 0.845603 0.147447
H55   H     H_    0.455141 0.697329 0.870523 0.136136
H56   H     H_    0.406634 0.746464 0.834662 0.253996
H57   H     H_    0.686940 0.454721 0.732106 0.165521
H58   H     H_    0.393138 0.714666 0.779561 0.208732
H59   H     H_    0.371726 0.710306 0.809508 0.263573
H60   H     H_    0.579834 0.660966 0.154395 0.147446
H61   H     H_    0.544853 0.697349 0.129467 0.136137
H62   H     H_    0.593381 0.746464 0.165342 0.253997
H63   H     H_    0.606857 0.714674 0.220437 0.208730
H64   H     H_    0.628277 0.710291 0.190506 0.263573
H65   H     H_    0.932307 0.762560 0.021107 0.348201
H66   H     H_    0.067648 0.762553 0.978824 0.348185
H67   H     H_    0.432344 0.262556 0.021172 0.348198
H68   H     H_    0.313060 0.454716 0.267897 0.165523
H69   H     H_    0.567649 0.262559 0.978818 0.348202
H70   H     H_    0.968636 0.925856 0.082340 0.349375
H71   H     H_    0.031405 0.925876 0.917726 0.349318
H72   H     H_    0.468662 0.425855 0.082376 0.349372
H73   H     H_    0.531339 0.425858 0.917624 0.349374
H74   H     H_    0.993460 0.903263 0.179343 0.162232
H75   H     H_    0.018444 0.896380 0.253464 0.139000
H76   H     H_    0.078569 0.889721 0.273714 0.251891
H77   H     H_    0.043829 0.855727 0.222197 0.214152
H78   H     H_    0.053460 0.896675 0.199874 0.273651
H79   H     H_    0.118164 0.954416 0.660670 0.169097
H80   H     H_    0.006938 0.903261 0.821005 0.162098
H81   H     H_    0.981953 0.896307 0.746898 0.139014
H82   H     H_    0.921875 0.889401 0.726727 0.251812
H83   H     H_    0.956754 0.855536 0.778351 0.214356
H84   H     H_    0.946979 0.896437 0.800550 0.273815
H85   H     H_    0.493494 0.403259 0.179380 0.162235
H86   H     H_    0.518483 0.396387 0.253504 0.139001
H87   H     H_    0.578609 0.389751 0.273754 0.251894
H88   H     H_    0.543882 0.355742 0.222252 0.214144
H89   H     H_    0.553495 0.396693 0.199910 0.273649
H90   H     H_    0.881851 0.954493 0.339225 0.169024
H91   H     H_    0.506515 0.403257 0.820629 0.162234
H92   H     H_    0.481524 0.396384 0.746505 0.139003
H93   H     H_    0.421400 0.389740 0.726262 0.251890
H94   H     H_    0.456132 0.355735 0.777765 0.214153
H95   H     H_    0.446517 0.396684 0.800106 0.273654
H96   H     H_    0.956335 0.068249 0.310004 0.178315
H97   H     H_    0.928246 0.026611 0.276752 0.119959
H98   H     H_    0.875383 0.065295 0.195742 0.277796
H99   H     H_    0.889728 0.079673 0.262041 0.193430
H100  H     H_    0.903726 0.107193 0.230857 0.261894
H101  H     H_    0.618157 0.454443 0.660706 0.169072
H102  H     H_    0.043388 0.068421 0.689721 0.178365
H103  H     H_    0.071654 0.026904 0.723148 0.119994
H104  H     H_    0.124354 0.065813 0.803990 0.277776
H105  H     H_    0.109944 0.080132 0.737626 0.193472
H106  H     H_    0.095832 0.107590 0.768699 0.261893
H107  H     H_    0.456313 0.568232 0.309982 0.178313
H108  H     H_    0.428238 0.526586 0.276744 0.119966
H109  H     H_    0.375361 0.565252 0.195721 0.277795
H110  H     H_    0.389701 0.579635 0.262016 0.193426
H111  H     H_    0.403690 0.607160 0.230823 0.261896
H112  H     H_    0.688206 0.996369 0.118747 0.162483
H113  H     H_    0.381842 0.454439 0.339297 0.169075
H114  H     H_    0.543682 0.568236 0.690011 0.178313
H115  H     H_    0.571760 0.526592 0.723254 0.119963
H116  H     H_    0.624634 0.565264 0.804273 0.277794
H117  H     H_    0.610293 0.579645 0.737977 0.193425
H118  H     H_    0.596302 0.607169 0.769167 0.261896
H119  H     H_    0.912071 0.940264 0.223919 0.355970
H120  H     H_    0.088177 0.940620 0.776319 0.355944
H121  H     H_    0.412091 0.440234 0.223940 0.355975
H122  H     H_    0.587915 0.440242 0.776068 0.355974
H123  H     H_    0.497629 0.811188 0.930060 0.138746
H124  H     H_    0.502374 0.811188 0.069946 0.138739
H125  H     H_    0.997637 0.311185 0.930075 0.138763
H126  H     H_    0.002374 0.311192 0.069953 0.138741
H127  H     H_    0.497661 0.880121 0.929798 0.161312
H128  H     H_    0.502340 0.880121 0.070204 0.161301
H129  H     H_    0.997667 0.380118 0.929807 0.161307
H130  H     H_    0.002338 0.380124 0.070204 0.161308
H131  H     H_    0.941823 0.119266 0.922606 0.183656
H132  H     H_    0.811791 0.496376 0.881247 0.162490
H133  H     H_    0.058176 0.119264 0.077417 0.183803
H134  H     H_    0.441840 0.619265 0.922550 0.183775
H135  H     H_    0.558161 0.619265 0.077452 0.183787
H136  H     H_    0.497174 0.188813 0.064755 0.147441
H137  H     H_    0.502822 0.188813 0.935239 0.147449
H138  H     H_    0.997159 0.688814 0.064736 0.147443
H139  H     H_    0.002815 0.688812 0.935229 0.147437
H140  H     H_    0.497215 0.119901 0.065103 0.161680
H141  H     H_    0.502784 0.119901 0.934894 0.161700
H142  H     H_    0.997206 0.619902 0.065094 0.161691
H143  H     H_    0.188208 0.496379 0.118751 0.162489
H144  H     H_    0.002784 0.619900 0.934893 0.161688
H145  H     H_    0.996820 0.944373 0.284577 0.217327
H146  H     H_    0.003412 0.944384 0.715649 0.217314
H147  H     H_    0.496838 0.444371 0.284595 0.217325
H148  H     H_    0.503167 0.444370 0.715411 0.217327
H149  H     H_    0.041232 0.962215 0.318733 0.279910
H150  H     H_    0.958929 0.962046 0.681424 0.279907
H151  H     H_    0.541244 0.462228 0.318745 0.279915
H152  H     H_    0.458759 0.462222 0.681259 0.279914
H153  H     H_    0.974396 0.954940 0.195953 0.131986
H154  H     H_    0.380640 0.997153 0.949188 0.171986
H155  H     H_    0.025795 0.955036 0.804234 0.132008
H156  H     H_    0.474411 0.454931 0.195967 0.131990
H157  H     H_    0.525593 0.454933 0.804038 0.131989
H158  H     H_    0.964937 0.057146 0.186761 0.258037
H159  H     H_    0.034841 0.057280 0.813018 0.258034
H160  H     H_    0.464917 0.557133 0.186742 0.258035
H161  H     H_    0.535077 0.557136 0.813251 0.258035
H162  H     H_    0.112746 0.980024 0.325277 0.356666
H163  H     H_    0.887346 0.979555 0.674814 0.356683
H164  H     H_    0.612753 0.480062 0.325281 0.356668
H165  H     H_    0.619357 0.997138 0.050809 0.171975
H166  H     H_    0.387249 0.480049 0.674720 0.356669
H167  H     H_    0.993981 0.126708 0.282246 0.344499
H168  H     H_    0.005518 0.126729 0.717269 0.344512
H169  H     H_    0.493938 0.626704 0.282206 0.344500
H170  H     H_    0.506050 0.626704 0.717778 0.344503
H171  H     H_    0.995907 0.079292 0.156271 0.141771
H172  H     H_    0.043281 0.063270 0.190828 0.153125
H173  H     H_    0.068374 0.125872 0.234205 0.270083
H174  H     H_    0.032767 0.128640 0.158308 0.169973
H175  H     H_    0.021316 0.141832 0.200183 0.268935
H176  H     H_    0.880641 0.497136 0.949188 0.171980
H177  H     H_    0.003784 0.079295 0.843423 0.141724
H178  H     H_    0.956474 0.063083 0.808933 0.153210
H179  H     H_    0.931132 0.125585 0.765309 0.270162
H180  H     H_    0.966727 0.128490 0.841195 0.169862
H181  H     H_    0.978128 0.141734 0.799272 0.268873
H182  H     H_    0.495876 0.579288 0.156244 0.141775
H183  H     H_    0.543257 0.563287 0.190804 0.153122
H184  H     H_    0.568324 0.625899 0.234153 0.270070
H185  H     H_    0.532710 0.628653 0.158255 0.169967
H186  H     H_    0.521260 0.641838 0.200133 0.268952
H187  H     H_    0.119358 0.497139 0.050811 0.171979
H188  H     H_    0.504115 0.579289 0.843746 0.141773
H189  H     H_    0.456736 0.563281 0.809186 0.153119
H190  H     H_    0.431662 0.625889 0.765827 0.270074
H191  H     H_    0.467273 0.628648 0.841724 0.169963
H192  H     H_    0.478724 0.641836 0.799848 0.268946
H193  H     H_    0.883845 0.037479 0.050272 0.356621
H194  H     H_    0.116013 0.037940 0.949584 0.356603
H195  H     H_    0.383832 0.537438 0.050259 0.356623
H196  H     H_    0.616165 0.537451 0.949736 0.356624
H197  H     H_    0.332274 0.048575 0.732798 0.139222
H198  H     H_    0.379673 0.001823 0.812594 0.174665
H199  H     H_    0.293732 0.058632 0.730321 0.136879
H200  H     H_    0.248190 0.032304 0.633643 0.289416
H201  H     H_    0.275263 0.070524 0.638412 0.198461
H202  H     H_    0.286408 0.022454 0.635664 0.253576
H203  H     H_    0.666988 0.047694 0.267393 0.139647
H204  H     H_    0.704985 0.059018 0.269078 0.135695
H205  H     H_    0.751532 0.033100 0.365895 0.289906
H206  H     H_    0.723820 0.070454 0.361324 0.198451
H207  H     H_    0.713853 0.021993 0.364655 0.254262
H208  H     H_    0.832636 0.548167 0.732714 0.139433
O1    O     O_R   0.055450 0.031330 0.555450 -0.618856
O2    O     O_R   0.555420 0.000140 0.020740 -0.623597
O3    O     O_3   0.304918 0.552979 0.352221 -0.597181
O4    O     O_3   0.935223 0.193313 0.912560 -0.592988
O5    O     O_3   0.064778 0.193296 0.087486 -0.592934
O6    O     O_3   0.435242 0.693300 0.912491 -0.592944
O7    O     O_3   0.564761 0.693299 0.087514 -0.592938
O8    O     O_2   0.974071 0.813489 0.079616 -0.619042
O9    O     O_R   0.941492 0.774918 0.003453 -0.794773
O10   O     O_2   0.025901 0.813498 0.920345 -0.619253
O11   O     O_R   0.058468 0.774909 0.996487 -0.794776
O12   O     O_2   0.474106 0.313491 0.079663 -0.619039
O13   O     O_R   0.944580 0.500140 0.979260 -0.623582
O14   O     O_R   0.441522 0.274914 0.003506 -0.794782
O15   O     O_2   0.525890 0.313495 0.920330 -0.619045
O16   O     O_R   0.558472 0.274915 0.996484 -0.794779
O17   O     O_2   0.931109 0.880201 0.008519 -0.581947
O18   O     O_R   0.984171 0.913900 0.074662 -0.820634
O19   O     O_2   0.068897 0.880182 0.991495 -0.582053
O20   O     O_R   0.015859 0.913919 0.925384 -0.820674
O21   O     O_2   0.431130 0.380198 0.008559 -0.581949
O22   O     O_R   0.484192 0.413901 0.074688 -0.820622
O23   O     O_2   0.568870 0.380200 0.991441 -0.581949
O24   O     O_R   0.055420 0.500140 0.020740 -0.623581
O25   O     O_R   0.515808 0.413903 0.925310 -0.820624
O26   O     O_3   0.030179 0.946363 0.233306 -0.552720
O27   O     O_3   0.970049 0.946232 0.766919 -0.552712
O28   O     O_3   0.530198 0.446373 0.233324 -0.552721
O29   O     O_3   0.469807 0.446368 0.766683 -0.552719
O30   O     O_3   0.945588 0.054307 0.237426 -0.594209
O31   O     O_3   0.054200 0.054524 0.762363 -0.594229
O32   O     O_3   0.445570 0.554288 0.237408 -0.594207
O33   O     O_3   0.554425 0.554292 0.762586 -0.594207
O34   O     O_2   0.894745 0.995509 0.169003 -0.571729
O35   O     O_R   0.499990 0.055580 0.965290 -0.623610
O36   O     O_R   0.935164 0.956552 0.242336 -0.856859
O37   O     O_2   0.105280 0.995932 0.831016 -0.571741
O38   O     O_R   0.065018 0.956813 0.757839 -0.856896
O39   O     O_2   0.394746 0.495472 0.169005 -0.571728
O40   O     O_R   0.435178 0.456529 0.242352 -0.856850
O41   O     O_2   0.605254 0.495482 0.830997 -0.571728
O42   O     O_R   0.564826 0.456535 0.757655 -0.856851
O43   O     O_R   0.500010 0.055580 0.034710 -0.623647
O44   O     O_R   0.999990 0.555580 0.965290 -0.623631
O45   O     O_R   0.000010 0.555580 0.034710 -0.623627
O46   O     O_R   0.055480 0.968710 0.555480 -0.614445
O47   O     O_R   0.944520 0.968710 0.444520 -0.614352
O48   O     O_R   0.555480 0.468710 0.555480 -0.614416
O49   O     O_R   0.944550 0.031330 0.444550 -0.618873
O50   O     O_R   0.444520 0.468710 0.444520 -0.614419
O51   O     O_R   0.000000 0.031330 0.438570 -0.606859
O52   O     O_R   0.000000 0.031330 0.561430 -0.607018
O53   O     O_R   0.500000 0.531330 0.438570 -0.606848
O54   O     O_R   0.500000 0.531330 0.561430 -0.606848
O55   O     O_R   0.000030 0.968710 0.438600 -0.610010
O56   O     O_R   0.999970 0.968710 0.561400 -0.609905
O57   O     O_R   0.500030 0.468710 0.438600 -0.609990
O58   O     O_R   0.499970 0.468710 0.561400 -0.609991
O59   O     O_R   0.031310 0.055360 0.031310 -0.628477
O60   O     O_R   0.555450 0.531330 0.555450 -0.618847
O61   O     O_R   0.968690 0.055360 0.968690 -0.628506
O62   O     O_R   0.531310 0.555360 0.031310 -0.628471
O63   O     O_R   0.468690 0.555360 0.968690 -0.628473
O64   O     O_R   0.031320 0.999900 0.092750 -0.609981
O65   O     O_R   0.968680 0.999900 0.907250 -0.610036
O66   O     O_R   0.531320 0.499900 0.092750 -0.609963
O67   O     O_R   0.468680 0.499900 0.907250 -0.609967
O68   O     O_R   0.968720 0.999920 0.030150 -0.604494
O69   O     O_R   0.031280 0.999920 0.969850 -0.604438
O70   O     O_R   0.468720 0.499920 0.030150 -0.604501
O71   O     O_R   0.444550 0.531330 0.444550 -0.618845
O72   O     O_R   0.531280 0.499920 0.969850 -0.604499
O73   O     O_R   0.031330 0.944430 0.031330 -0.602162
O74   O     O_R   0.968670 0.944430 0.968670 -0.602168
O75   O     O_R   0.531330 0.444430 0.031330 -0.602171
O76   O     O_R   0.468670 0.444430 0.968670 -0.602173
O77   O     O_R   0.500050 0.944650 0.965390 -0.621579
O78   O     O_R   0.499950 0.944650 0.034610 -0.621592
O79   O     O_R   0.000050 0.444650 0.965390 -0.621583
O80   O     O_R   0.999950 0.444650 0.034610 -0.621590
O81   O     O_2   0.094136 0.040912 0.283790 -0.594627
O82   O     O_R   0.444580 0.000120 0.909900 -0.620876
O83   O     O_R   0.086568 0.985831 0.310192 -0.770858
O84   O     O_2   0.905710 0.040517 0.716063 -0.594584
O85   O     O_R   0.913500 0.985471 0.689874 -0.770865
O86   O     O_2   0.594120 0.540944 0.283772 -0.594630
O87   O     O_R   0.586573 0.485861 0.310196 -0.770849
O88   O     O_2   0.405875 0.540933 0.716219 -0.594628
O89   O     O_R   0.413429 0.485849 0.689806 -0.770851
O90   O     O_2   0.027091 0.083560 0.358653 -0.666122
O91   O     O_R   0.999857 0.103089 0.271474 -0.705590
O92   O     O_2   0.972582 0.083453 0.641031 -0.666283
O93   O     O_R   0.555420 0.000120 0.090100 -0.620903
O94   O     O_R   0.999737 0.103085 0.728132 -0.705589
O95   O     O_2   0.527064 0.583567 0.358627 -0.666093
O96   O     O_R   0.499822 0.603088 0.271442 -0.705590
O97   O     O_2   0.472928 0.583563 0.641363 -0.666096
O98   O     O_R   0.500168 0.603087 0.728546 -0.705588
O99   O     O_3   0.031600 0.074371 0.243138 -0.572224
O100  O     O_3   0.968107 0.074234 0.756575 -0.572234
O101  O     O_3   0.531574 0.574382 0.243114 -0.572222
O102  O     O_3   0.468419 0.574377 0.756877 -0.572222
O103  O     O_2   0.919622 0.984620 0.110389 -0.616928
O104  O     O_R   0.944580 0.500120 0.909900 -0.620889
O105  O     O_R   0.905834 0.046679 0.089676 -0.768695
O106  O     O_2   0.080451 0.984937 0.889678 -0.616928
O107  O     O_R   0.093986 0.047051 0.910143 -0.768721
O108  O     O_2   0.419627 0.484592 0.110394 -0.616925
O109  O     O_R   0.405818 0.546646 0.089661 -0.768694
O110  O     O_2   0.580374 0.484600 0.889609 -0.616923
O111  O     O_R   0.594178 0.546655 0.910334 -0.768689
O112  O     O_3   0.305763 0.001656 0.732020 -0.598915
O113  O     O_3   0.694290 0.001667 0.268006 -0.598711
O114  O     O_3   0.805738 0.501673 0.732007 -0.598819
O115  O     O_R   0.055420 0.500120 0.090100 -0.620889
O116  O     O_3   0.194261 0.501665 0.267992 -0.598825
O117  O     O_2   0.125517 0.083328 0.562003 -0.603729
O118  O     O_R   0.086653 0.035687 0.504036 -0.779671
O119  O     O_2   0.874443 0.083203 0.438149 -0.603512
O120  O     O_R   0.913356 0.035553 0.496009 -0.779761
O121  O     O_2   0.625537 0.583287 0.561957 -0.603664
O122  O     O_R   0.586646 0.535649 0.504023 -0.779667
O123  O     O_2   0.374463 0.583287 0.438039 -0.603657
O124  O     O_R   0.413353 0.535650 0.495974 -0.779668
O125  O     O_2   0.076487 0.004168 0.396447 -0.592185
O126  O     O_R   0.444580 0.000140 0.979260 -0.623565
O127  O     O_R   0.099266 0.056262 0.387051 -0.757353
O128  O     O_2   0.923503 0.003861 0.603544 -0.592155
O129  O     O_R   0.900517 0.055861 0.612739 -0.757292
O130  O     O_2   0.576486 0.504191 0.396444 -0.592188
O131  O     O_R   0.599247 0.556293 0.387031 -0.757336
O132  O     O_2   0.423513 0.504181 0.603555 -0.592189
O133  O     O_R   0.400748 0.556282 0.612960 -0.757334
O134  O     O_3   0.195074 0.053020 0.647799 -0.597235
O135  O     O_3   0.804909 0.052902 0.352288 -0.597113
O136  O     O_3   0.695082 0.552976 0.647770 -0.597180
Zn1   Zn    Zn3+2 0.000000 0.041840 0.500000 1.020063
Zn2   Zn    Zn3+2 0.499980 0.000110 0.046290 0.961195
Zn3   Zn    Zn3+2 0.000020 0.500110 0.953710 0.961256
Zn4   Zn    Zn3+2 0.999980 0.500110 0.046290 0.961259
Zn5   Zn    Zn3+2 0.500000 0.541840 0.500000 1.020197
Zn6   Zn    Zn3+2 0.000000 0.958210 0.500000 1.010126
Zn7   Zn    Zn3+2 0.500000 0.458210 0.500000 1.010082
Zn8   Zn    Zn3+2 0.041820 0.999900 0.041820 1.025176
Zn9   Zn    Zn3+2 0.958180 0.999900 0.958180 1.025135
Zn10  Zn    Zn3+2 0.541820 0.499900 0.041820 1.025159
Zn11  Zn    Zn3+2 0.458180 0.499900 0.958180 1.025152
Zn12  Zn    Zn3+2 0.500020 0.000110 0.953710 0.961320

loop_
_geom_bond_atom_site_label_1
_geom_bond_atom_site_label_2
_ccdc_geom_bond_type
C128  C236  S    
C36   H133  S    
C106  H173  S    
C225  C247  A    
C126  C127  S    
C59   H153  S    
C29   C42   S    
C24   C184  S    
C64   C77   S    
C166  H82   S    
C172  O30   S    
C139  H27   S    
O2    Zn12  S    
C185  C190  A    
C170  H91   S    
C4    C194  S    
C180  H116  S    
C84   C90   S    
C33   O7    S    
C126  H8    S    
C127  H9    S    
C66   C155  S    
C164  H77   S    
C63   C76   S    
C141  O136  S    
C143  C144  S    
C201  O112  S    
H119  O36   S    
C9    H124  S    
H72   O22   S    
C89   C94   S    
C233  C237  A    
C260  O73   A    
C107  H178  S    
C9    C19   A    
C10   C20   A    
C181  O36   S    
C147  H48   S    
C70   C74   A    
H167  O91   S    
C72   C161  S    
C149  H51   S    
C231  C236  A    
C25   C60   S    
C232  H160  S    
C88   C97   S    
C258  O70   A    
C4    O13   A    
H16   O124  S    
C168  C187  A    
C62   C95   S    
C162  O23   D    
C73   C75   A    
C145  O4    S    
C103  O95   D    
C23   H149  S    
C151  H58   S    
H122  O42   S    
C191  H187  S    
C106  H175  S    
C182  O37   D    
C11   C20   A    
C262  O77   A    
C68   C95   S    
C143  O3    S    
O35   Zn12  S    
C169  H88   S    
C26   H151  S    
C186  H143  S    
C114  H190  S    
C61   C94   S    
O54   Zn5   S    
C1    O1    A    
C21   C29   T    
C2    C221  S    
C99   O88   D    
C34   C39   A    
C67   C156  S    
H67   O14   S    
C192  C264  S    
C110  H186  S    
H66   O11   S    
C199  C235  S    
C230  H113  S    
C1    C231  S    
C43   C54   A    
O67   Zn11  S    
C66   C76   A    
C121  O113  S    
C65   C76   A    
C133  C252  S    
C111  H188  S    
C128  O118  S    
C6    O35   A    
C135  C206  S    
O75   Zn10  S    
C145  H44   S    
C163  H74   S    
C238  C242  A    
C142  H37   S    
O13   Zn4   S    
C210  H158  S    
C240  C245  A    
C161  O21   D    
C7    C53   S    
C119  O112  S    
C261  O76   A    
O71   Zn5   S    
C34   H131  S    
H17   O127  S    
C144  H41   S    
C115  O105  S    
C121  H204  S    
C180  H118  S    
C241  O135  S    
O49   Zn1   S    
C35   C78   T    
C115  C210  S    
C129  C237  S    
O74   Zn9   S    
C168  C209  A    
C205  O51   A    
C127  H11   S    
C146  C207  S    
H196  O111  S    
O80   Zn4   S    
C139  C140  S    
C167  H86   S    
C202  O113  S    
C74   C260  S    
C117  C232  S    
C33   C38   A    
C100  O90   D    
C61   O28   S    
H65   O9    S    
C104  O97   D    
C159  O17   D    
O43   Zn2   S    
C198  H13   S    
C91   C255  S    
C45   C50   A    
C151  H56   S    
O58   Zn7   S    
O46   Zn6   S    
O126  Zn2   S    
H162  O83   S    
C256  O68   A    
C148  H50   S    
C45   H138  S    
C48   C52   A    
C184  O41   D    
C13   C85   S    
C31   C36   A    
C80   C257  S    
C188  O60   A    
C113  C157  T    
C27   H152  S    
C123  H208  S    
C133  O128  D    
O61   Zn9   S    
C122  H206  S    
C15   C18   A    
C227  C231  A    
C75   C261  S    
C136  O132  D    
O73   Zn8   S    
C150  O6    S    
C50   H142  S    
C69   C77   A    
C67   C77   A    
C202  C211  A    
O78   Zn2   S    
C257  O69   A    
C26   H147  S    
C94   C232  S    
C167  C169  S    
C87   C251  S    
C3    C193  S    
C33   C42   A    
C19   C21   S    
H71   O20   S    
C70   C159  S    
C138  H25   S    
C206  O56   A    
C223  C227  A    
C119  H199  S    
C170  C171  S    
C225  H57   S    
C65   C70   A    
C229  C234  A    
C189  H165  S    
C111  O102  S    
C67   C72   A    
C17   C262  S    
C174  C175  S    
C87   O99   S    
C126  O116  S    
C240  O134  S    
C256  O64   A    
C173  H99   S    
C197  H2    S    
C175  H106  S    
C107  C108  S    
C56   C64   T    
C30   C41   A    
C199  O71   A    
C188  O48   A    
C165  H80   S    
C176  H108  S    
C141  H33   S    
O72   Zn10  S    
C111  H189  S    
O76   Zn11  S    
C14   C17   A    
C207  O53   A    
C178  O33   S    
C14   H128  S    
C109  H183  S    
C72   C75   A    
C201  C209  A    
C264  O126  A    
C96   O81   D    
C131  O123  D    
C98   O86   D    
C130  O122  S    
C8    C19   A    
C30   C34   A    
C83   C254  S    
C1    O46   A    
C118  O110  D    
C218  C245  S    
C117  O109  S    
C214  C218  T    
C151  H59   S    
C140  H29   S    
C263  O79   A    
C141  H32   S    
O60   Zn5   S    
C150  H55   S    
C226  C230  A    
C223  H35   S    
C138  H23   S    
C177  H109  S    
C136  O133  S    
O69   Zn8   S    
C51   C53   A    
C5    O115  A    
C261  O75   A    
C110  H184  S    
C155  O10   D    
C153  H63   S    
H15   O122  S    
H193  O105  S    
C40   C250  S    
O59   Zn8   S    
C108  H179  S    
C149  H53   S    
C179  C189  A    
H121  O40   S    
C200  C204  A    
C228  C233  A    
C219  C246  S    
C197  C202  A    
C117  O108  D    
C32   C37   A    
C187  C192  A    
C250  O62   A    
O56   Zn6   S    
C24   O33   S    
C183  O39   D    
C57   C94   S    
C91   O102  S    
C11   H126  S    
C88   O100  S    
C60   H155  S    
C221  H159  S    
C163  O26   S    
C224  C246  A    
C163  H75   S    
C106  H174  S    
H69   O16   S    
C142  H34   S    
C31   C41   A    
C166  H83   S    
C36   C39   A    
C133  O129  S    
C216  C220  T    
C134  C253  S    
C160  O19   D    
C249  O59   A    
C170  O29   S    
C226  C248  A    
C119  H197  S    
H12   O118  S    
O93   Zn2   S    
C254  O30   S    
C79   C124  T    
C37   H134  S    
C237  C241  A    
C89   C98   S    
C243  H161  S    
C6    C52   S    
C156  O12   D    
C208  O58   A    
C18   C263  S    
C60   C93   S    
C13   C232  S    
C46   C80   T    
C90   C135  T    
H163  O85   S    
C43   H136  S    
C194  C198  A    
C137  H22   S    
C26   C85   S    
O115  Zn4   S    
C118  C243  S    
C120  H202  S    
C260  O74   A    
C91   C95   S    
C120  H200  S    
C44   C54   A    
C152  C153  S    
C45   C55   A    
O44   Zn3   S    
C147  H47   S    
C150  C151  S    
H20   O133  S    
C123  O114  S    
C91   C99   S    
C196  C201  A    
C172  H97   S    
C24   C86   S    
C184  O42   S    
C88   C252  S    
C132  C251  S    
C96   O83   S    
C2    O31   S    
C124  C205  S    
H169  O96   S    
C136  C255  S    
C2    C84   S    
C165  H81   S    
C180  H117  S    
C100  C251  S    
C168  H1    S    
O66   Zn10  S    
C140  H31   S    
C171  H94   S    
O65   Zn9   S    
C223  C245  A    
C71   C160  S    
C182  O38   S    
C81   C258  S    
C177  H111  S    
C104  C255  S    
C23   C83   S    
C149  H52   S    
C86   C113  S    
C192  C196  A    
O50   Zn7   S    
C38   C40   A    
C26   C61   S    
C51   H144  S    
C208  O54   A    
C114  H191  S    
C108  H181  S    
C123  C125  S    
C97   O85   S    
C105  H172  S    
C186  C213  A    
C224  C228  A    
C28   C41   S    
C131  O124  S    
C234  C238  A    
C27   H148  S    
C60   O27   S    
C132  O125  D    
C143  H38   S    
C25   H146  S    
C134  O130  D    
C92   C210  S    
C16   H130  S    
C144  H42   S    
C13   C183  S    
O47   Zn6   S    
C158  O15   D    
C32   O6    S    
C69   C73   A    
C8    C12   A    
C107  H177  S    
C178  H114  S    
C49   H141  S    
C164  H78   S    
C35   C92   S    
C145  H43   S    
C259  O67   A    
C172  H96   S    
H14   O120  S    
C22   C28   T    
C87   C92   S    
C244  O3    S    
H166  O89   S    
C110  H185  S    
C222  C248  S    
C48   H140  S    
C139  H28   S    
C145  C147  S    
C249  O61   A    
C7    O45   A    
C121  H203  S    
C154  O8    D    
C229  H101  S    
C241  C246  A    
C50   C53   A    
C156  O14   S    
C126  H7    S    
C62   H157  S    
O77   Zn12  S    
C167  O28   S    
C139  O135  S    
C167  H85   S    
C47   C51   A    
C116  O107  S    
C112  O49   A    
C225  C229  A    
C244  C248  A    
C23   C59   S    
C9    C14   A    
C73   C162  S    
C215  C219  T    
C104  O98   S    
C11   C16   A    
C66   C71   A    
O45   Zn4   S    
O68   Zn9   S    
C49   C52   A    
O63   Zn11  S    
C147  H45   S    
C171  H93   S    
C230  C235  A    
C207  O57   A    
C187  H154  S    
C228  H90   S    
C155  O11   S    
C121  C122  S    
C226  H68   S    
C220  C247  S    
C20   C22   S    
C120  H201  S    
C170  H92   S    
C103  C253  S    
C190  H176  S    
C103  O96   S    
C102  O94   S    
C188  C234  S    
C122  H207  S    
C217  C222  T    
C89   O101  S    
C82   C259  S    
C31   O5    S    
C235  C239  A    
C177  H110  S    
C224  H46   S    
C169  H89   S    
C12   H127  S    
C206  O52   A    
C71   C74   A    
C178  C180  S    
C119  C120  S    
C165  O27   S    
C37   C40   A    
C105  C106  S    
C125  H6    S    
C209  C214  S    
C78   C256  S    
C68   C82   T    
C138  H26   S    
C132  O127  S    
C109  C110  S    
C79   C83   S    
C3    O93   A    
C7    O44   A    
C111  C114  S    
C59   C92   S    
C137  O134  S    
O48   Zn7   S    
C128  O117  D    
C154  O9    S    
C123  H3    S    
C173  H98   S    
C142  H36   S    
C55   C58   S    
C198  C203  A    
C175  H105  S    
C32   C42   A    
C62   O29   S    
C161  O22   S    
C109  O101  S    
C6    O43   A    
C44   C49   A    
C116  C221  S    
C211  C215  S    
C148  O5    S    
C165  C166  S    
O70   Zn11  S    
C84   C252  S    
C163  C164  S    
C109  H182  S    
C8    H123  S    
C44   H137  S    
C258  O66   A    
C162  O25   S    
C98   O87   S    
C46   C93   S    
C169  H87   S    
C164  H76   S    
C102  C252  S    
C118  O111  S    
C10   C15   A    
C23   H145  S    
C140  H30   S    
C159  O18   S    
C171  H95   S    
C152  H60   S    
C179  C211  A    
C24   C243  S    
C30   O4    S    
C2    C182  S    
H73   O25   S    
C10   H125  S    
H194  O107  S    
C210  C254  S    
C153  H62   S    
C148  H49   S    
C108  H180  S    
O104  Zn3   S    
C212  C216  S    
C185  H132  S    
C131  C239  S    
C25   C84   S    
H120  O38   S    
C239  C244  A    
C102  O92   D    
C43   C48   A    
C122  H205  S    
C143  H39   S    
C5    C195  S    
C250  O63   A    
C144  H40   S    
C115  O103  D    
O24   Zn3   S    
C89   C253  S    
H168  O94   S    
C157  C208  S    
C227  H79   S    
C3    O2    A    
C99   O89   S    
C191  C195  A    
H195  O109  S    
C196  H198  S    
C259  O72   A    
C54   C56   S    
C101  C146  T    
C112  O47   A    
C175  H104  S    
C166  H84   S    
C13   O32   S    
C148  C149  S    
C112  C233  S    
C160  O20   S    
C152  O7    S    
C25   H150  S    
C213  C217  S    
C129  O119  D    
C242  O136  S    
C86   C255  S    
O62   Zn10  S    
C204  C213  A    
C236  C240  A    
C125  H5    S    
O64   Zn8   S    
C205  O55   A    
C15   H129  S    
C65   C154  S    
C5    O24   A    
C189  C193  A    
C61   H156  S    
C38   H135  S    
O79   Zn3   S    
C39   C249  S    
H164  O87   S    
C137  H21   S    
H70   O18   S    
C116  O106  D    
C87   C96   S    
C105  O99   S    
C204  O116  S    
C69   C158  S    
O52   Zn1   S    
C185  C212  A    
C176  O32   S    
H18   O129  S    
C59   O26   S    
C176  C177  S    
C264  O82   A    
C152  H61   S    
C181  O34   D    
C125  H4    S    
C27   C86   S    
C57   C81   T    
C203  C212  A    
C127  H10   S    
O53   Zn5   S    
C85   C101  S    
C172  C173  S    
C47   C55   A    
C195  C200  A    
C186  C191  A    
C58   C63   T    
C129  O120  S    
C88   C93   S    
C130  C238  S    
C130  O121  D    
C173  H100  S    
C83   C251  S    
C100  O91   S    
C107  O100  S    
O1    Zn1   S    
C263  O80   A    
C262  O78   A    
H19   O131  S    
C27   C62   S    
C150  H54   S    
C174  H103  S    
C137  C138  S    
C4    O104  A    
C85   C253  S    
C242  C247  A    
C200  H24   S    
O51   Zn1   S    
C179  H112  S    
O57   Zn7   S    
C153  H64   S    
C114  H192  S    
C141  C142  S    
C12   C17   A    
C257  O65   A    
C97   O84   D    
C105  H171  S    
C176  H107  S    
C193  C197  A    
C203  O114  S    
C174  O31   S    
C199  O50   A    
C174  H102  S    
O55   Zn6   S    
C47   H139  S    
C190  C194  A    
C134  O131  S    
C183  O40   S    
C16   C18   A    
C158  O16   S    
C93   C221  S    
O82   Zn12  S    
C181  C254  S    
C178  H115  S    
C95   C243  S    
H170  O98   S    
