data_mof_unit_20894.cif
_audit_creation_date              2012-12-10T17:16:41-0500
_audit_creation_method            fapswitch 2.2
_symmetry_space_group_name_H-M    P1
_symmetry_Int_Tables_number       1
_space_group_crystal_system       triclinic
_cell_length_a                    10.060749
_cell_length_b                    10.650133
_cell_length_c                    10.715611
_cell_angle_alpha                 88.88402
_cell_angle_beta                  93.589706
_cell_angle_gamma                 81.946874
_cell_volume                      1134.14307732

loop_
_atom_site_label
_atom_site_type_symbol
_atom_type_description
_atom_site_fract_x
_atom_site_fract_y
_atom_site_fract_z
_atom_type_partial_charge
Br1   Br    Br    0.047730 0.182870 0.786953 -0.473677
Br2   Br    Br    0.013175 0.831049 0.366790 -0.496709
Br3   Br    Br    0.303964 0.389531 0.875018 -0.469753
Br4   Br    Br    0.652358 0.290899 0.139188 -0.424586
C1    C     C_R   0.445793 0.502013 0.267125 0.994090
C2    C     C_R   0.503539 0.741020 0.507015 0.886273
C3    C     C_R   0.766340 0.092002 0.564756 -0.128331
C4    C     C_R   0.325805 0.882580 0.680956 -0.170517
C5    C     C_R   0.878230 0.024498 0.514791 -0.150222
C6    C     C_R   0.216926 0.953995 0.731871 -0.175301
C7    C     C_R   0.864073 0.915710 0.448808 0.296941
C8    C     C_R   0.198750 0.085098 0.718509 0.318574
C9    C     C_R   0.741494 0.867805 0.444424 -0.183975
C10   C     C_R   0.294602 0.145008 0.661294 -0.168279
C11   C     C_R   0.631521 0.927291 0.509588 0.030160
C12   C     C_R   0.553679 0.483793 0.733630 0.916252
C13   C     C_R   0.407313 0.073939 0.610217 0.035706
C14   C     C_R   0.639071 0.049758 0.550468 0.084951
C15   C     C_R   0.415877 0.940981 0.609557 0.090897
C16   C     C_R   0.515462 0.871757 0.538122 -0.185059
C17   C     C_R   0.516751 0.128805 0.566821 -0.195553
C18   C     C_2   0.418825 0.489030 0.135258 -0.393350
C19   C     C_2   0.578625 0.454799 0.866513 -0.393897
C20   C     C_2   0.504127 0.412435 0.069165 0.260930
C21   C     C_2   0.481696 0.419263 0.935412 0.253504
C22   C     C_2   0.073874 0.488590 0.491250 -0.046477
C23   C     C_2   0.926398 0.510066 0.510120 -0.088129
C24   C     C_R   0.505263 0.261896 0.525722 0.905130
H1    H     H_    0.779210 0.178159 0.613234 0.194778
H2    H     H_    0.147450 0.907113 0.782939 0.179287
H3    H     H_    0.882228 0.383303 0.386479 0.200645
H4    H     H_    0.117679 0.617221 0.612999 0.189662
H5    H     H_    0.340433 0.782166 0.703286 0.180997
H6    H     H_    0.735687 0.787107 0.386596 0.200114
H7    H     H_    0.280880 0.246381 0.664149 0.221542
H8    H     H_    0.676788 0.465274 0.910232 0.182215
H9    H     H_    0.331220 0.547663 0.089993 0.176486
H10   H     H_    0.888140 0.579252 0.576850 0.172231
H11   H     H_    0.112264 0.418837 0.425115 0.166721
H12   H     H_    0.974026 0.059928 0.522400 0.179777
N1    N     N_2   0.157300 0.551390 0.551120 -0.166599
N2    N     N_2   0.842700 0.448610 0.448880 -0.188127
O1    O     O_R   0.568940 0.489660 0.307530 -0.565786
O2    O     O_R   0.431060 0.510340 0.692470 -0.587868
O3    O     O_R   0.348880 0.522640 0.340350 -0.585590
O4    O     O_R   0.651120 0.477360 0.659650 -0.613606
O5    O     O_R   0.610030 0.300280 0.483580 -0.596931
O6    O     O_R   0.389970 0.699720 0.516420 -0.595124
O7    O     O_R   0.389970 0.333270 0.516400 -0.629221
O8    O     O_R   0.610030 0.666730 0.483600 -0.635469
Zn1   Zn    Zn3+2 0.646940 0.477980 0.478080 0.990425
Zn2   Zn    Zn3+2 0.353060 0.522020 0.521920 0.999845

loop_
_geom_bond_atom_site_label_1
_geom_bond_atom_site_label_2
_ccdc_geom_bond_type
C11   C14   A    
H4    N1    S    
C24   O5    A    
C3    H1    S    
H3    N2    S    
C14   C17   A    
C2    C16   S    
C24   O7    A    
C12   O2    A    
N1    Zn2   S    
C15   C16   A    
C23   N2    D    
Br3   C21   S    
N2    Zn1   S    
O7    Zn2   S    
O1    Zn1   S    
C3    C14   A    
C19   C21   D    
O8    Zn1   S    
C1    O1    A    
C9    H6    S    
C2    O8    A    
C5    C7    A    
C10   C13   A    
O2    Zn2   S    
C22   C23   S    
Br1   C8    S    
C2    O6    A    
Br2   C7    S    
C6    C8    A    
C13   C15   A    
C17   C24   S    
C8    C10   A    
C12   C19   S    
C4    H5    S    
C9    C11   A    
C11   C16   A    
Br4   C20   S    
C18   C20   D    
C22   H11   S    
C7    C9    A    
C23   H10   S    
C4    C15   A    
O6    Zn2   S    
C20   C21   S    
C4    C6    A    
C19   H8    S    
C12   O4    A    
C10   H7    S    
C3    C5    A    
C6    H2    S    
O5    Zn1   S    
O3    Zn2   S    
C18   H9    S    
C1    O3    A    
O4    Zn1   S    
C5    H12   S    
C13   C17   A    
C1    C18   S    
C22   N1    D    
