data_mof_unit_45879.cif
_audit_creation_date              2012-12-10T17:23:09-0500
_audit_creation_method            fapswitch 2.2
_symmetry_space_group_name_H-M    P1
_symmetry_Int_Tables_number       1
_space_group_crystal_system       triclinic
_cell_length_a                    15.872555
_cell_length_b                    10.865974
_cell_length_c                    9.583012
_cell_angle_alpha                 90.307427
_cell_angle_beta                  90.003406
_cell_angle_gamma                 92.531143
_cell_volume                      1651.15309725

loop_
_atom_site_label
_atom_site_type_symbol
_atom_type_description
_atom_site_fract_x
_atom_site_fract_y
_atom_site_fract_z
_atom_type_partial_charge
C1    C     C_R   0.506529 0.263026 0.500456 0.802266
C2    C     C_3   0.082944 0.500789 0.499916 0.101350
C3    C     C_3   0.974553 0.599451 0.572606 -0.178374
C4    C     C_3   0.916926 0.501194 0.499565 0.160148
C5    C     C_3   0.030498 0.603438 0.440960 0.011684
C6    C     C_3   0.971557 0.507104 0.366600 -0.230535
C7    C     C_1   0.174709 0.500395 0.500054 -0.047656
C8    C     C_1   0.825300 0.501149 0.499871 -0.051305
C9    C     C_R   0.552217 0.121587 0.756166 -0.158639
C10   C     C_R   0.541219 0.063363 0.884420 -0.157829
C11   C     C_R   0.499394 0.948674 0.890526 -0.135779
C12   C     C_R   0.339919 0.499649 0.499979 0.836503
C13   C     C_R   0.476491 0.886952 0.767463 -0.155232
C14   C     C_R   0.496005 0.939204 0.635189 0.093295
C15   C     C_R   0.521398 0.064977 0.631393 0.095881
C16   C     C_R   0.513826 0.129144 0.503469 -0.119165
C17   C     C_R   0.501736 0.063102 0.378786 -0.205683
C18   C     C_R   0.494562 0.935928 0.380038 -0.207273
C19   C     C_R   0.491625 0.872191 0.506742 -0.110342
C20   C     C_R   0.611356 0.665111 0.145027 -0.150125
C21   C     C_R   0.665192 0.746429 0.073135 -0.219515
C22   C     C_R   0.665295 0.746185 0.929404 -0.192790
C23   C     C_R   0.495235 0.737553 0.501450 0.778364
C24   C     C_R   0.611438 0.664794 0.856709 -0.138123
C25   C     C_R   0.554647 0.581229 0.925602 0.192086
C26   C     C_R   0.554612 0.581276 0.075279 0.207212
C27   C     C_R   0.448336 0.422285 0.073453 -0.063123
C28   C     C_R   0.448357 0.422322 0.925461 -0.062672
C29   C     C_R   0.660078 0.500466 0.500031 0.801368
C30   C     C_3   0.968216 0.396657 0.559557 -0.175267
C31   C     C_3   0.024259 0.404347 0.428157 0.011989
C32   C     C_1   0.250231 0.500019 0.500013 -0.162231
C33   C     C_1   0.749765 0.500896 0.500015 -0.177841
C34   C     C_3   0.027620 0.494923 0.632126 -0.174582
Cu1   Cu    Cu3+1 0.499990 0.499990 0.640660 0.925712
Cu2   Cu    Cu3+1 0.500010 0.500010 0.359340 0.938369
H1    H     H_    0.489969 0.887579 0.280965 0.165213
H2    H     H_    0.406028 0.358574 0.128376 0.143341
H3    H     H_    0.617520 0.672108 0.254978 0.200535
H4    H     H_    0.707503 0.809506 0.873457 0.153981
H5    H     H_    0.617107 0.672101 0.746805 0.200861
H6    H     H_    0.941393 0.310879 0.607732 0.139432
H7    H     H_    0.952935 0.680468 0.631511 0.138575
H8    H     H_    0.051527 0.489937 0.740721 0.149102
H9    H     H_    0.497869 0.109661 0.279440 0.162344
H10   H     H_    0.563015 0.108854 0.979385 0.136852
N1    N     N_R   0.500800 0.501210 0.147910 -0.199070
N2    N     N_R   0.500830 0.501290 0.852040 -0.204865
O1    O     O_R   0.499990 0.319640 0.618810 -0.588897
O2    O     O_R   0.500000 0.319660 0.381240 -0.581282
O3    O     O_R   0.379070 0.499980 0.618770 -0.574574
O4    O     O_R   0.379080 0.500000 0.381190 -0.567847
O5    O     O_R   0.500000 0.680340 0.618760 -0.615110
O6    O     O_R   0.500010 0.680360 0.381190 -0.599775
O7    O     O_R   0.620920 0.500000 0.618810 -0.596993
O8    O     O_R   0.620930 0.500020 0.381230 -0.590170
C35   C     C_1   0.051963 0.297260 0.349486 0.229399
N3    N     N_1   0.073854 0.212795 0.287459 -0.268895
H11   H     H_    0.486315 0.906095 0.990569 0.139561
H12   H     H_    0.440981 0.800708 0.779054 0.171055
H13   H     H_    0.707490 0.809735 0.129701 0.155437
H14   H     H_    0.406094 0.358590 0.869694 0.149145
H15   H     H_    0.947860 0.512108 0.257836 0.143340
C36   C     C_1   0.065113 0.716862 0.376443 0.229314
N4    N     N_1   0.092451 0.806322 0.325571 -0.266349
H16   H     H_    0.586668 0.209578 0.756261 0.164194

loop_
_geom_bond_atom_site_label_1
_geom_bond_atom_site_label_2
_ccdc_geom_bond_type
C6    H15   S    
Cu1   O1    S    
C19   C23   S    
C24   C25   A    
C10   H10   S    
Cu2   O8    S    
C29   O8    A    
Cu1   O5    S    
C9    C10   A    
C21   H13   S    
C2    C7    S    
Cu2   O4    S    
C4    C8    S    
C4    C30   S    
C22   H4    S    
C36   N4    T    
C31   C35   S    
C17   C18   A    
C9    C15   A    
C34   H8    S    
C9    H16   S    
C1    C16   S    
C13   C14   A    
C12   C32   S    
C24   H5    S    
C11   C13   A    
C25   N2    A    
C3    H7    S    
C35   N3    T    
C30   C31   S    
C20   C26   A    
C26   N1    A    
Cu2   N1    S    
C11   H11   S    
Cu1   N2    S    
C12   O4    A    
C18   H1    S    
C17   H9    S    
C23   O5    A    
C8    C33   T    
Cu1   O3    S    
C5    C6    S    
C2    C34   S    
C22   C24   A    
C2    C5    S    
Cu2   O6    S    
C10   C11   A    
C30   C34   S    
C27   H2    S    
Cu1   O7    S    
C3    C4    S    
C16   C17   A    
C29   C33   S    
C12   O3    A    
Cu2   O2    S    
C20   C21   A    
C23   O6    A    
C4    C6    S    
C18   C19   A    
C1    O2    A    
C27   N1    A    
C27   C28   A    
C13   H12   S    
C20   H3    S    
C14   C15   A    
C30   H6    S    
C6    C31   S    
C7    C32   T    
C29   O7    A    
C3    C34   S    
C25   C26   A    
C21   C22   A    
C1    O1    A    
C14   C19   A    
C28   N2    A    
C15   C16   A    
C5    C36   S    
C2    C31   S    
C3    C5    S    
Cu1   Cu2   S    
C28   H14   S    
