data_mof_unit_20726.cif
_audit_creation_date              2012-10-26T19:03:51-0400
_audit_creation_method            fapswitch 2.2
_symmetry_space_group_name_H-M    P1
_symmetry_Int_Tables_number       1
_space_group_crystal_system       triclinic
_cell_length_a                    15.910154
_cell_length_b                    12.999245
_cell_length_c                    11.813428
_cell_angle_alpha                 99.878002
_cell_angle_beta                  94.597024
_cell_angle_gamma                 93.387865
_cell_volume                      2392.67896957

loop_
_atom_site_label
_atom_site_type_symbol
_atom_type_description
_atom_site_fract_x
_atom_site_fract_y
_atom_site_fract_z
_atom_type_partial_charge
C1    C     C_R   0.507004 0.300054 0.478773 0.602314
C2    C     C_R   0.516238 0.186233 0.466760 -0.035557
C3    C     C_R   0.504697 0.013974 0.344046 0.251857
C4    C     C_R   0.340341 0.499345 0.499362 0.586087
C5    C     C_R   0.522865 0.123166 0.357575 0.211615
C6    C     C_R   0.513736 0.139214 0.565580 0.235851
C7    C     C_R   0.494331 0.031308 0.553311 -0.019519
C8    C     C_R   0.497162 0.968222 0.443685 -0.079849
C9    C     C_R   0.499023 0.860243 0.437559 -0.104301
C10   C     C_R   0.469840 0.875015 0.638002 0.262095
C11   C     C_R   0.472025 0.983977 0.647433 0.318029
C12   C     C_3   0.957614 0.484769 0.626973 0.048688
C13   C     C_R   0.399784 0.446319 0.028601 -0.036833
C14   C     C_R   0.412095 0.435276 0.142964 0.380369
C15   C     C_R   0.546156 0.528730 0.157242 0.087034
C16   C     C_R   0.497097 0.700428 0.521676 0.562003
C17   C     C_R   0.539497 0.526555 0.034330 -0.068182
C18   C     C_R   0.465344 0.479845 0.968937 -0.057885
C19   C     C_R   0.457201 0.466244 0.845790 0.358089
C20   C     C_R   0.583600 0.577184 0.855666 0.382730
C21   C     C_R   0.601699 0.572868 0.975469 0.222125
C22   C     C_R   0.659516 0.500617 0.500614 0.560983
C23   C     C_3   0.916518 0.499408 0.505202 -0.130060
C24   C     C_3   0.057680 0.502668 0.633520 0.345452
C25   C     C_3   0.037680 0.396520 0.419153 0.344808
C26   C     C_3   0.938900 0.403106 0.416046 0.102382
C27   C     C_1   0.748817 0.500509 0.501953 0.155441
C28   C     C_3   0.083135 0.496865 0.503565 -0.077166
C29   C     C_3   0.955692 0.604017 0.476017 0.121888
C30   C     C_3   0.049387 0.592733 0.452637 0.077879
C31   C     C_1   0.824197 0.500181 0.503588 0.135940
C32   C     C_1   0.175283 0.496055 0.499585 0.179266
C33   C     C_1   0.250684 0.497061 0.498232 0.189534
C34   C     C_R   0.489472 0.813613 0.534281 -0.023753
Cl1   Cl    Cl    0.898790 0.648708 0.358050 -0.373619
Cl2   Cl    Cl    0.111939 0.715110 0.491955 -0.388959
Cl3   Cl    Cl    0.438325 0.818066 0.755584 -0.401326
Cl4   Cl    Cl    0.433247 0.056851 0.770947 -0.318109
Cl5   Cl    Cl    0.563063 0.207903 0.700161 -0.398948
Cl6   Cl    Cl    0.101526 0.399957 0.699299 -0.360007
Cl7   Cl    Cl    0.644725 0.666245 0.793379 -0.363772
Cl8   Cl    Cl    0.074437 0.385120 0.276803 -0.327839
Cl9   Cl    Cl    0.064412 0.274303 0.458712 -0.361212
Cl10  Cl    Cl    0.885808 0.398499 0.274136 -0.316667
Cu1   Cu    Cu3+1 0.506190 0.507730 0.615930 1.227274
Cu2   Cu    Cu3+1 0.493810 0.492270 0.384070 1.156457
H1    H     H_    0.943650 0.400529 0.630478 0.168991
H2    H     H_    0.445278 0.961789 0.030145 0.415532
H3    H     H_    0.646089 0.119694 0.106563 0.402344
H4    H     H_    0.295800 0.249203 0.821688 0.407772
H5    H     H_    0.827598 0.668808 0.013347 0.400476
H6    H     H_    0.229312 0.297089 0.048389 0.388847
H7    H     H_    0.512703 0.811883 0.358264 0.215361
H8    H     H_    0.336779 0.427107 0.987060 0.201820
H9    H     H_    0.599184 0.570429 0.211873 0.200036
H10   H     H_    0.910599 0.331302 0.442019 0.178967
H11   H     H_    0.051939 0.577462 0.357819 0.244921
H12   H     H_    0.952007 0.667047 0.550850 0.259208
H13   H     H_    0.079775 0.784222 0.779832 0.405004
H14   H     H_    0.893845 0.707906 0.824386 0.403283
N1    N     N_R   0.515490 0.519350 0.790130 -0.271673
N2    N     N_R   0.484510 0.480650 0.209890 -0.262230
O1    O     O_R   0.504390 0.354460 0.582000 -0.432549
O2    O     O_2   0.193197 0.646866 0.704039 -0.200216
O3    O     O_3   0.049229 0.726765 0.722705 -0.463827
O4    O     O_2   0.819857 0.486634 0.747623 -0.205923
O5    O     O_2   0.953837 0.537961 0.861193 -0.143555
O6    O     O_3   0.887907 0.670968 0.743228 -0.456291
O7    O     O_2   0.555351 0.880319 0.167018 -0.201867
O8    O     O_2   0.407601 0.856608 0.207058 -0.244868
O9    O     O_3   0.449328 0.009820 0.105473 -0.376129
O10   O     O_2   0.510086 0.218049 0.171571 -0.172352
O11   O     O_2   0.637892 0.264674 0.305166 -0.263596
O12   O     O_R   0.493940 0.341410 0.386200 -0.428449
O13   O     O_3   0.626384 0.085777 0.169611 -0.405998
O14   O     O_2   0.290804 0.441499 0.783001 -0.234263
O15   O     O_2   0.368983 0.329298 0.650463 -0.211830
O16   O     O_3   0.354747 0.278659 0.844855 -0.443516
O17   O     O_2   0.689850 0.725701 0.127455 -0.201294
O18   O     O_2   0.732711 0.547463 0.124248 -0.202326
O19   O     O_3   0.775704 0.642974 0.961848 -0.397633
O20   O     O_2   0.349755 0.302897 0.282249 -0.180325
O21   O     O_2   0.259798 0.434523 0.223204 -0.255857
O22   O     O_3   0.284090 0.271678 0.073252 -0.432657
O23   O     O_R   0.384660 0.506540 0.597940 -0.448864
O24   O     O_R   0.374210 0.493480 0.402140 -0.466703
O25   O     O_R   0.506060 0.658590 0.613800 -0.431044
O26   O     O_R   0.495610 0.645540 0.418000 -0.537254
O27   O     O_R   0.625790 0.506520 0.597860 -0.462186
O28   O     O_R   0.615340 0.493460 0.402060 -0.498596
O29   O     O_2   0.109742 0.604474 0.853899 -0.128033
S1    S     S_3+6 0.104381 0.621678 0.730978 0.163449
S2    S     S_3+6 0.904380 0.545361 0.749535 0.110119
S3    S     S_3+6 0.479344 0.936345 0.203534 0.118601
S4    S     S_3+6 0.574380 0.176772 0.249241 0.133158
S5    S     S_3+6 0.367475 0.379454 0.773784 0.112078
S6    S     S_3+6 0.701402 0.623585 0.050895 0.128619
S7    S     S_3+6 0.326292 0.361317 0.187001 0.140692

loop_
_geom_bond_atom_site_label_1
_geom_bond_atom_site_label_2
_ccdc_geom_bond_type
O3    S1    S    
O18   S6    D    
C25   Cl9   S    
C20   Cl7   S    
C26   Cl10  S    
C7    C8    A    
O9    S3    S    
Cu1   Cu2   S    
C25   C28   S    
C7    C11   A    
C12   C23   S    
C13   C18   A    
Cu2   N2    S    
C10   Cl3   S    
C1    O12   A    
C23   C29   S    
O8    S3    D    
C18   C19   A    
C4    O24   A    
C14   N2    A    
C30   H11   S    
C24   S1    S    
C1    C2    S    
C23   C26   S    
C20   N1    A    
H6    O22   S    
C16   C34   S    
O10   S4    D    
C15   N2    A    
O16   S5    S    
C8    C9    A    
O21   S7    D    
C16   O25   A    
H3    O13   S    
Cu1   O27   S    
H5    O19   S    
C13   C14   A    
O20   S7    D    
C2    C6    A    
C12   H1    S    
H4    O16   S    
C5    S4    S    
C14   S7    S    
Cu2   O26   S    
O13   S4    S    
C28   C32   S    
C3    C8    A    
O29   S1    D    
C4    O23   A    
C25   C26   S    
C27   C31   T    
Cu1   O1    S    
C17   C21   A    
C23   C31   S    
C11   Cl4   S    
Cu1   O23   S    
C29   C30   S    
C21   S6    S    
C17   C18   A    
C22   O28   A    
C10   C34   A    
C29   H12   S    
O4    S2    D    
O7    S3    D    
C22   C27   S    
C9    C34   A    
C12   S2    S    
C2    C5    A    
C9    H7    S    
O2    S1    D    
H2    O9    S    
Cu2   O12   S    
O5    S2    D    
C13   H8    S    
C15   C17   A    
C12   C24   S    
C4    C33   S    
C1    O1    A    
Cu1   O25   S    
O17   S6    D    
C24   C28   S    
C3    C5    A    
C26   H10   S    
C25   Cl8   S    
C6    C7    A    
Cu2   O28   S    
C29   Cl1   S    
O15   S5    D    
O6    S2    S    
C30   Cl2   S    
O22   S7    S    
C32   C33   T    
C28   C30   S    
O14   S5    D    
O19   S6    S    
C19   N1    A    
Cu1   N1    S    
C24   Cl6   S    
C22   O27   A    
C3    S3    S    
C10   C11   A    
C20   C21   A    
H14   O6    S    
C16   O26   A    
O11   S4    D    
C6    Cl5   S    
H13   O3    S    
C19   S5    S    
C15   H9    S    
Cu2   O24   S    
