data_mof_unit_14471.cif
_audit_creation_date              2012-12-10T20:28:46-0500
_audit_creation_method            fapswitch 2.2
_symmetry_space_group_name_H-M    P1
_symmetry_Int_Tables_number       1
_space_group_crystal_system       triclinic
_cell_length_a                    10.624223
_cell_length_b                    10.6715
_cell_length_c                    9.875898
_cell_angle_alpha                 89.706025
_cell_angle_beta                  92.774681
_cell_angle_gamma                 90.834504
_cell_volume                      1118.25141912

loop_
_atom_site_label
_atom_site_type_symbol
_atom_type_description
_atom_site_fract_x
_atom_site_fract_y
_atom_site_fract_z
_atom_type_partial_charge
C1    C     C_R   0.502269 0.260031 0.500551 0.882591
C2    C     C_R   0.587837 0.939066 0.397956 -0.044244
C3    C     C_R   0.531642 0.871776 0.504072 -0.174116
C4    C     C_R   0.260379 0.497248 0.496409 0.853554
C5    C     C_R   0.500922 0.935535 0.620263 0.233673
C6    C     C_3   0.393364 0.921848 0.711255 -0.474879
C7    C     C_3   0.389063 0.063994 0.711682 -0.515576
C8    C     C_R   0.445826 0.402736 0.069207 0.223711
C9    C     C_R   0.558489 0.592640 0.074291 -0.103043
C10   C     C_R   0.557103 0.593536 0.930760 -0.072459
C11   C     C_R   0.445217 0.403034 0.926371 0.222921
C12   C     C_R   0.070596 0.620756 0.501239 0.112726
C13   C     C_3   0.308732 0.366796 0.915863 -0.509483
C14   C     C_3   0.310576 0.364166 0.069400 -0.502021
C15   C     C_R   0.508263 0.739866 0.500237 0.890530
C16   C     C_R   0.740161 0.507115 0.503876 0.897409
C17   C     C_R   0.136183 0.735501 0.485813 -0.179075
C18   C     C_R   0.077453 0.848366 0.510593 -0.167109
C19   C     C_R   0.959678 0.847233 0.566360 -0.111055
C20   C     C_R   0.896539 0.733007 0.589015 -0.080676
C21   C     C_R   0.944365 0.621009 0.534994 -0.000543
C22   C     C_2   0.809535 0.730038 0.701730 0.904035
C23   C     C_R   0.128176 0.504551 0.487085 -0.079828
C24   C     C_2   0.660062 0.879460 0.291701 0.912170
C25   C     C_R   0.059980 0.392549 0.479140 -0.220475
C26   C     C_R   0.931378 0.395388 0.486199 -0.178872
C27   C     C_R   0.873914 0.508230 0.514452 -0.097571
C28   C     C_R   0.497661 0.062436 0.621136 0.159231
C29   C     C_R   0.521074 0.128974 0.503900 -0.150891
C30   C     C_R   0.577311 0.069232 0.396604 -0.279268
H1    H     H_    0.106302 0.303819 0.466152 0.134257
H2    H     H_    0.298109 0.268413 0.111999 0.208101
H3    H     H_    0.231711 0.738479 0.452456 0.130578
H4    H     H_    0.127342 0.936326 0.496647 0.137965
H5    H     H_    0.923061 0.934574 0.602394 0.155470
H6    H     H_    0.876588 0.309475 0.472067 0.142493
H7    H     H_    0.612249 0.123466 0.312833 0.207326
H8    H     H_    0.309068 0.876856 0.660750 0.195370
H9    H     H_    0.890581 0.577533 0.791528 0.310076
H10   H     H_    0.714136 0.884207 0.098568 0.350611
H11   H     H_    0.423118 0.881203 0.811441 0.226623
H12   H     H_    0.302045 0.102385 0.660964 0.190370
H13   H     H_    0.416506 0.104393 0.812442 0.221822
H14   H     H_    0.603983 0.668511 0.129809 0.190923
H15   H     H_    0.598936 0.671791 0.879086 0.215391
H16   H     H_    0.248682 0.442161 0.870678 0.227037
H17   H     H_    0.291736 0.273169 0.869839 0.200552
H18   H     H_    0.250468 0.436817 0.112768 0.226789
N1    N     N_R   0.499160 0.499140 0.142800 -0.117957
N2    N     N_R   0.499160 0.499180 0.857150 -0.115245
O1    O     O_R   0.500020 0.316790 0.614690 -0.612293
O2    O     O_R   0.818703 0.637374 0.802413 -0.779901
O3    O     O_2   0.724945 0.788302 0.319375 -0.634092
O4    O     O_R   0.659266 0.931610 0.161442 -0.817515
O5    O     O_R   0.500000 0.316760 0.385350 -0.623472
O6    O     O_R   0.316770 0.500020 0.614690 -0.621447
O7    O     O_R   0.316760 0.499980 0.385350 -0.621430
O8    O     O_R   0.500000 0.683240 0.614650 -0.606060
O9    O     O_R   0.499980 0.683210 0.385310 -0.617105
O10   O     O_R   0.683240 0.500020 0.614650 -0.603261
O11   O     O_R   0.683230 0.499980 0.385310 -0.578900
O12   O     O_2   0.737168 0.816107 0.715503 -0.625406
Zn1   Zn    Zn3+2 0.500010 0.500020 0.653130 0.976698
Zn2   Zn    Zn3+2 0.499990 0.499980 0.346870 0.974265

loop_
_geom_bond_atom_site_label_1
_geom_bond_atom_site_label_2
_ccdc_geom_bond_type
C12   C17   A    
C25   H1    S    
O11   Zn2   S    
C14   H18   S    
C6    H8    S    
C15   O9    A    
C6    C7    S    
C7    H13   S    
C22   O12   D    
C5    C28   A    
C11   C13   S    
C9    C10   A    
C19   C20   A    
O1    Zn1   S    
C2    C30   A    
O5    Zn2   S    
C16   C27   S    
C1    C29   S    
C17   C18   A    
C21   C27   A    
O6    Zn1   S    
C3    C15   S    
C11   N2    A    
C19   H5    S    
C13   C14   S    
C4    O6    A    
N2    Zn1   S    
C1    O1    A    
C12   C23   A    
C26   C27   A    
C29   C30   A    
C17   H3    S    
C10   H15   S    
C8    C11   A    
C8    N1    A    
C26   H6    S    
C28   C29   A    
C25   C26   A    
C20   C22   S    
C2    C3    A    
H10   O4    S    
C18   H4    S    
C2    C24   S    
C5    C6    S    
C15   O8    A    
O10   Zn1   S    
C1    O5    A    
C16   O11   A    
C24   O4    S    
C10   N2    A    
O9    Zn2   S    
C23   C25   A    
C9    N1    A    
C20   C21   A    
C30   H7    S    
O7    Zn2   S    
C22   O2    S    
C18   C19   A    
C16   O10   A    
C7    H12   S    
C14   H2    S    
O8    Zn1   S    
N1    Zn2   S    
C4    C23   S    
C13   H16   S    
C9    H14   S    
C8    C14   S    
C24   O3    D    
C13   H17   S    
C12   C21   A    
C7    C28   S    
C4    O7    A    
H9    O2    S    
C3    C5    A    
C6    H11   S    
