data_mof_unit_49429.cif
_audit_creation_date              2013-03-05T15:49:14-0500
_audit_creation_method            fapswitch 2.2
_symmetry_space_group_name_H-M    P1
_symmetry_Int_Tables_number       1
_space_group_crystal_system       triclinic
_cell_length_a                    15.867211
_cell_length_b                    12.989416
_cell_length_c                    11.725206
_cell_angle_alpha                 100.015119
_cell_angle_beta                  92.885471
_cell_angle_gamma                 91.335905
_cell_volume                      2375.52711336

loop_
_atom_site_label
_atom_site_type_symbol
_atom_site_description
_atom_site_fract_x
_atom_site_fract_y
_atom_site_fract_z
_atom_type_partial_charge
O1    O     O_R   0.504400 0.354460 0.582000 -0.558190
O2    O     O_R   0.495600 0.645540 0.418000 -0.558778
O3    O     O_R   0.493920 0.341410 0.386200 -0.571693
O4    O     O_R   0.506080 0.658590 0.613800 -0.547633
C1    C     C_R   0.497946 0.299001 0.478048 0.846709
C2    C     C_R   0.503208 0.700941 0.521726 0.832341
O5    O     O_R   0.384320 0.506520 0.597880 -0.522684
O6    O     O_R   0.615680 0.493480 0.402120 -0.528156
O7    O     O_R   0.373840 0.493460 0.402080 -0.596889
O8    O     O_R   0.626160 0.506540 0.597920 -0.616714
C3    C     C_R   0.339957 0.499924 0.500964 0.831883
C4    C     C_R   0.660019 0.500071 0.499010 0.797341
Cu1   Cu    Cu3+1 0.506200 0.507730 0.615930 1.023988
Cu2   Cu    Cu3+1 0.493800 0.492270 0.384070 1.011908
C5    C     C_3   0.973388 0.480947 0.601897 -0.260770
C6    C     C_3   0.026546 0.522467 0.398260 -0.246263
C7    C     C_3   0.026813 0.406863 0.516529 -0.245496
C8    C     C_3   0.973092 0.596562 0.483609 -0.265999
H1    H     H_    0.048964 0.328685 0.528025 0.191659
H2    H     H_    0.951091 0.674716 0.471807 0.182074
H3    H     H_    0.951393 0.465821 0.686032 0.187598
H4    H     H_    0.048508 0.537644 0.314128 0.188873
C9    C     C_1   0.250462 0.500449 0.502993 -0.080615
C10   C     C_1   0.749495 0.500834 0.497080 -0.096845
C11   C     C_3   0.030591 0.573938 0.585420 0.408185
C12   C     C_3   0.969337 0.429492 0.414742 0.413221
C13   C     C_3   0.083385 0.501658 0.502205 0.017302
C14   C     C_3   0.916547 0.501746 0.497956 0.016189
C15   C     C_1   0.175000 0.501006 0.503292 0.077604
C16   C     C_1   0.824952 0.501473 0.496858 0.062296
C17   C     C_R   0.508552 0.814818 0.534748 -0.134233
C18   C     C_R   0.495184 0.184962 0.463872 -0.135424
C19   C     C_R   0.456414 0.013086 0.353937 -0.245613
C20   C     C_R   0.547312 0.986736 0.644772 -0.257228
C21   C     C_R   0.464544 0.121409 0.358627 0.453575
C22   C     C_R   0.545825 0.877853 0.636136 0.466174
C23   C     C_R   0.523125 0.139419 0.558068 -0.238200
C24   C     C_R   0.478414 0.860638 0.441831 -0.230707
C25   C     C_R   0.518688 0.031691 0.550682 0.095274
C26   C     C_R   0.484560 0.968243 0.448324 0.093449
H5    H     H_    0.450273 0.812362 0.363756 0.194115
H6    H     H_    0.548847 0.187934 0.637498 0.190021
H7    H     H_    0.427019 0.963934 0.277482 0.152924
H8    H     H_    0.571368 0.036031 0.724565 0.146598
N1    N     N_R   0.515540 0.519350 0.790140 -0.239519
N2    N     N_R   0.484460 0.480650 0.209860 -0.248740
C27   C     C_R   0.417308 0.404714 0.025171 -0.246908
C28   C     C_R   0.583013 0.594772 0.974831 -0.242758
C29   C     C_R   0.425542 0.413881 0.146167 -0.011453
C30   C     C_R   0.574339 0.586214 0.853930 0.028562
C31   C     C_R   0.537279 0.540416 0.155524 0.517610
C32   C     C_R   0.463121 0.459014 0.844424 0.513660
C33   C     C_R   0.530623 0.534072 0.032965 -0.067934
C34   C     C_R   0.469815 0.465270 0.966996 -0.070026
H9    H     H_    0.615127 0.633200 0.810949 0.160743
H10   H     H_    0.384677 0.366963 0.189331 0.186746
H11   H     H_    0.369693 0.350374 0.978176 0.212560
H12   H     H_    0.630738 0.648967 0.021817 0.206235
N3    N     N_R   0.936789 0.348913 0.319304 0.135834
O9    O     O_R   0.989073 0.292781 0.254841 -0.327197
O10   O     O_R   0.855932 0.332721 0.297599 -0.341956
N4    N     N_R   0.063181 0.654498 0.680829 0.139288
O11   O     O_R   0.010964 0.710395 0.745636 -0.348173
O12   O     O_R   0.144049 0.670867 0.702187 -0.323165
O13   O     O_3   0.575804 0.832821 0.728607 -0.594508
C35   C     C_3   0.664252 0.850690 0.748473 0.033671
H13   H     H_    0.681518 0.833154 0.835932 0.176426
H14   H     H_    0.684449 0.933697 0.750924 0.140874
C36   C     C_3   0.712854 0.778054 0.659049 -0.422127
H15   H     H_    0.692349 0.695913 0.658659 0.229983
H16   H     H_    0.699069 0.796333 0.571007 0.226359
C37   C     C_3   0.807867 0.789440 0.687176 -0.775420
H17   H     H_    0.830377 0.870974 0.686739 0.263544
H18   H     H_    0.840916 0.735956 0.620920 0.259723
H19   H     H_    0.823665 0.768727 0.773578 0.271368
O14   O     O_3   0.432839 0.167043 0.267295 -0.599226
C38   C     C_3   0.475028 0.132665 0.164313 0.050544
H20   H     H_    0.436108 0.154632 0.091354 0.182562
H21   H     H_    0.479989 0.046282 0.143762 0.143273
C39   C     C_3   0.562667 0.186230 0.167870 -0.345029
H22   H     H_    0.556947 0.272418 0.186466 0.251362
H23   H     H_    0.603988 0.162851 0.237729 0.219946
C40   C     C_3   0.603935 0.156520 0.052416 -0.855828
H24   H     H_    0.611439 0.070566 0.031851 0.258201
H25   H     H_    0.667275 0.195814 0.057862 0.280220
H26   H     H_    0.564938 0.181880 0.981545 0.256541
N5    N     N_R   0.400578 0.389783 0.777497 0.123912
O15   O     O_R   0.415065 0.290389 0.754408 -0.388251
O16   O     O_R   0.322808 0.419127 0.773635 -0.339695
N6    N     N_R   0.600158 0.609166 0.222411 0.121825
O17   O     O_R   0.585930 0.708583 0.246450 -0.392572
O18   O     O_R   0.677853 0.579476 0.225607 -0.354260

loop_
_geom_bond_atom_site_label_1
_geom_bond_atom_site_label_2
_geom_bond_distance
_ccdc_geom_bond_type
C35   H14   1.112772 S    
N5    O15   1.300583 A    
C13   C15   1.453316 S    
N6    O17   1.300564 A    
Cu2   N2    2.019505 S    
C33   C34   1.404345 A    
O5    C3    1.294966 A    
N2    C29   1.360329 A    
O1    C1    1.301404 A    
C7    C12   1.538646 S    
C9    C15   1.197737 T    
C37   H19   1.110825 S    
C31   N6    1.429721 S    
C5    C11   1.538785 S    
C35   C36   1.534771 S    
C23   H6    1.084750 S    
O4    Cu1   1.964123 S    
C36   H16   1.111216 S    
N4    O12   1.300301 A    
C7    H1    1.110133 S    
C6    H4    1.110165 S    
C12   N3    1.457289 S    
C20   C22   1.399841 A    
C1    C18   1.460951 S    
C6    C13   1.545040 S    
C28   C30   1.402033 A    
C35   H13   1.111039 S    
N3    O9    1.300303 A    
Cu1   Cu2   2.687803 S    
O2    C2    1.299370 A    
C8    C11   1.539045 S    
C39   C40   1.526299 S    
C32   C34   1.423725 A    
C38   H21   1.111434 S    
C6    C12   1.538697 S    
C28   C33   1.410941 A    
C21   O14   1.389847 S    
N3    O10   1.300366 A    
C19   C26   1.396458 A    
C20   C25   1.396543 A    
C7    C13   1.544576 S    
C18   C21   1.416765 A    
C8    C14   1.544634 S    
O14   C38   1.418911 S    
C24   H5    1.084795 S    
C37   H18   1.109704 S    
C25   C26   1.408048 A    
C22   O13   1.387675 S    
C39   H22   1.109487 S    
N1    C32   1.381144 A    
C38   H20   1.111096 S    
N2    C31   1.380731 A    
C31   C33   1.423411 A    
C19   H7    1.083395 S    
C36   C37   1.525138 S    
O7    Cu2   1.925767 S    
N4    O11   1.300230 A    
C27   H11   1.081931 S    
N6    O18   1.300955 A    
C40   H24   1.110996 S    
C5    H3    1.110174 S    
O6    C4    1.294524 A    
C20   H8    1.084110 S    
C18   C23   1.398763 A    
O7    C3    1.292829 A    
O3    Cu2   1.964126 S    
O8    C4    1.292921 A    
C27   C34   1.411162 A    
O4    C2    1.293443 A    
C40   H25   1.110384 S    
N5    O16   1.300919 A    
C11   C13   1.528259 S    
O1    Cu1   1.960471 S    
Cu1   N1    2.019505 S    
C38   C39   1.535747 S    
C5    C7    1.560454 S    
O6    Cu2   1.934222 S    
C32   N5    1.429624 S    
C37   H17   1.110715 S    
O3    C1    1.291662 A    
O8    Cu1   1.925770 S    
C28   H12   1.082022 S    
C27   C29   1.402082 A    
C29   H10   1.081615 S    
C4    C10   1.420888 S    
C12   C14   1.528044 S    
C30   H9    1.080142 S    
C17   C24   1.398634 A    
C14   C16   1.452668 S    
C23   C25   1.386809 A    
C24   C26   1.387394 A    
C5    C14   1.544973 S    
N1    C30   1.360229 A    
C3    C9    1.421591 S    
C19   C21   1.401210 A    
C39   H23   1.111212 S    
C2    C17   1.460416 S    
C8    H2    1.109997 S    
C11   N4    1.457145 S    
C36   H15   1.107367 S    
O2    Cu2   1.960468 S    
C10   C16   1.197269 T    
O5    Cu1   1.934219 S    
C40   H26   1.111249 S    
C6    C8    1.560677 S    
O13   C35   1.418035 S    
C17   C22   1.414748 A    
