data_mof_unit_48280.cif
_audit_creation_date              2012-12-10T19:11:31-0500
_audit_creation_method            fapswitch 2.2
_symmetry_space_group_name_H-M    P1
_symmetry_Int_Tables_number       1
_space_group_crystal_system       triclinic
_cell_length_a                    10.678628
_cell_length_b                    9.859943
_cell_length_c                    10.732065
_cell_angle_alpha                 89.375302
_cell_angle_beta                  86.26165
_cell_angle_gamma                 90.152972
_cell_volume                      1127.50836765

loop_
_atom_site_label
_atom_site_type_symbol
_atom_type_description
_atom_site_fract_x
_atom_site_fract_y
_atom_site_fract_z
_atom_type_partial_charge
C1    C     C_R   0.258035 0.499870 0.503147 0.971449
C2    C     C_3   0.935981 0.466544 0.377024 -0.612798
C3    C     C_3   0.382913 0.081431 0.448889 0.317500
C4    C     C_3   0.388887 0.921598 0.437739 0.206125
C5    C     C_3   0.616472 0.083099 0.428783 0.284208
C6    C     C_3   0.623826 0.919258 0.442675 0.304227
C7    C     C_3   0.498616 0.079062 0.626982 -0.320945
C8    C     C_3   0.485112 0.917739 0.627390 -0.308683
C9    C     C_R   0.501573 0.500897 0.256948 0.938582
C10   C     C_R   0.741663 0.500064 0.504095 0.974402
C11   C     C_R   0.501919 0.499435 0.741291 1.003889
C12   C     C_3   0.503186 0.503127 0.120959 -0.271694
C13   C     C_3   0.455057 0.619317 0.038129 -0.135930
C14   C     C_3   0.433021 0.397416 0.044563 -0.150315
C15   C     C_3   0.386256 0.513496 0.962714 -0.291753
C16   C     C_3   0.503387 0.498900 0.874338 -0.150699
C17   C     C_3   0.572005 0.602729 0.948903 0.395282
C18   C     C_3   0.551220 0.384531 0.955173 0.369585
C19   C     C_3   0.622496 0.488385 0.030300 -0.178341
C20   C     C_2   0.256398 0.538538 0.923781 1.030772
C21   C     C_2   0.626536 0.132976 0.292294 0.913761
C22   C     C_2   0.673418 0.854874 0.318939 0.919368
C23   C     C_3   0.068640 0.642107 0.547436 0.200454
C24   C     C_2   0.391811 0.751872 0.067112 1.083053
C25   C     C_2   0.347845 0.283950 0.088359 1.107832
C26   C     C_2   0.759930 0.486556 0.050663 0.994223
C27   C     C_3   0.065951 0.384245 0.595668 0.213903
C28   C     C_3   0.924939 0.643547 0.544797 0.234992
C29   C     C_3   0.920790 0.391606 0.603911 0.236427
C30   C     C_3   0.079837 0.470531 0.374962 -0.582418
C31   C     C_3   0.121099 0.499749 0.507559 -0.030485
C32   C     C_3   0.877981 0.500418 0.509021 -0.018341
H1    H     H_    0.903905 0.541793 0.308892 0.252418
H2    H     H_    0.093594 0.284992 0.552645 0.069946
H3    H     H_    0.901352 0.716095 0.470058 0.136833
H4    H     H_    0.885238 0.290424 0.576948 0.113649
H5    H     H_    0.117296 0.549466 0.307311 0.243758
H6    H     H_    0.117121 0.370991 0.342720 0.272097
H7    H     H_    0.073135 0.487748 0.939085 0.383563
H8    H     H_    0.266784 0.116798 0.322015 0.340928
H9    H     H_    0.339725 0.793369 0.317331 0.363070
H10   H     H_    0.727264 0.234944 0.158606 0.349974
H11   H     H_    0.827245 0.820742 0.203577 0.381486
H12   H     H_    0.904830 0.364512 0.348171 0.269823
H13   H     H_    0.798933 0.119643 0.433838 0.325626
H14   H     H_    0.799183 0.915585 0.500412 0.343700
H15   H     H_    0.230464 0.846829 0.121690 0.346983
H16   H     H_    0.301998 0.086659 0.077032 0.360163
H17   H     H_    0.674952 0.761049 0.963955 0.385885
H18   H     H_    0.615374 0.205055 0.979109 0.379114
H19   H     H_    0.909435 0.592925 0.099661 0.349335
H20   H     H_    0.064161 0.628353 0.729066 0.440845
H21   H     H_    0.102288 0.298650 0.752898 0.352108
H22   H     H_    0.886066 0.783057 0.668316 0.370223
H23   H     H_    0.302834 0.105238 0.517768 0.048298
H24   H     H_    0.865660 0.333998 0.772345 0.376076
H25   H     H_    0.301278 0.883135 0.489770 0.085820
H26   H     H_    0.584775 0.108156 0.673176 0.283545
H27   H     H_    0.553629 0.871997 0.688954 0.292675
H28   H     H_    0.420253 0.123013 0.686847 0.184067
H29   H     H_    0.392461 0.888067 0.673555 0.180428
H30   H     H_    0.105436 0.718742 0.477069 0.109466
N1    N     N_3   0.499750 0.138610 0.497240 -0.123773
N2    N     N_3   0.499750 0.861390 0.497240 -0.137359
O1    O     O_R   0.314910 0.616040 0.499970 -0.643411
O2    O     O_R   0.157149 0.453283 0.964615 -0.744446
O3    O     O_3   0.353620 0.145253 0.337754 -0.655258
O4    O     O_3   0.383902 0.881854 0.314155 -0.673172
O5    O     O_2   0.556288 0.090504 0.216241 -0.512793
O6    O     O_R   0.721778 0.223507 0.252201 -0.818026
O7    O     O_2   0.605017 0.831090 0.235541 -0.524171
O8    O     O_R   0.803013 0.841055 0.294129 -0.869049
O9    O     O_3   0.720501 0.137974 0.485869 -0.749218
O10   O     O_3   0.713762 0.885602 0.529891 -0.732029
O11   O     O_2   0.445916 0.858517 0.040089 -0.506386
O12   O     O_R   0.314910 0.383960 0.499970 -0.619206
O13   O     O_R   0.266564 0.752086 0.114161 -0.834469
O14   O     O_2   0.256028 0.308181 0.158055 -0.624250
O15   O     O_R   0.369086 0.152989 0.043892 -0.712231
O16   O     O_3   0.644185 0.708764 0.893728 -0.679134
O17   O     O_3   0.600755 0.263674 0.906095 -0.703405
O18   O     O_2   0.825472 0.393181 0.011051 -0.606925
O19   O     O_R   0.814434 0.598126 0.104440 -0.830448
O20   O     O_3   0.109758 0.683202 0.662831 -0.686744
O21   O     O_3   0.114984 0.389775 0.713708 -0.737443
O22   O     O_3   0.865429 0.685639 0.658961 -0.628136
O23   O     O_R   0.500080 0.616020 0.313900 -0.609725
O24   O     O_3   0.872456 0.421407 0.725602 -0.650118
O25   O     O_R   0.500080 0.383980 0.313900 -0.576749
O26   O     O_R   0.685320 0.616040 0.499930 -0.574210
O27   O     O_R   0.685320 0.383960 0.499930 -0.570101
O28   O     O_R   0.500150 0.616060 0.686000 -0.584387
O29   O     O_R   0.500150 0.383940 0.686000 -0.608485
O30   O     O_2   0.237453 0.640056 0.862124 -0.585745
Zn1   Zn    Zn3+2 0.500150 0.654960 0.499940 1.033021
Zn2   Zn    Zn3+2 0.500150 0.345040 0.499940 1.038450

loop_
_geom_bond_atom_site_label_1
_geom_bond_atom_site_label_2
_ccdc_geom_bond_type
H11   O8    S    
C27   C29   S    
C14   C18   S    
C1    C31   S    
H13   O9    S    
C7    C8    S    
C29   H4    S    
C30   H6    S    
C26   O19   S    
H16   O15   S    
C20   O2    S    
C29   C32   S    
C8    H27   S    
C30   C31   S    
H24   O24   S    
C15   C16   S    
C6    C22   S    
H10   O6    S    
C18   O17   S    
C5    N1    S    
C2    C32   S    
C18   C19   S    
C6    N2    S    
C27   O21   S    
C19   C26   S    
C29   O24   S    
O27   Zn2   S    
C3    H23   S    
C11   O28   A    
C23   H30   S    
C28   H3    S    
C2    H12   S    
C16   C17   S    
H8    O3    S    
O23   Zn1   S    
C4    H25   S    
C1    O1    A    
C7    H26   S    
C8    H29   S    
C11   O29   A    
C26   O18   D    
C22   O8    S    
C6    O10   S    
H9    O4    S    
C27   H2    S    
C15   C20   S    
C23   O20   S    
C27   C31   S    
C25   O14   D    
C28   C32   S    
C9    O25   A    
C4    O4    S    
N1    Zn2   S    
O28   Zn1   S    
C30   H5    S    
C21   O5    D    
C23   C31   S    
C11   C16   S    
C23   C28   S    
C7    N1    S    
C8    N2    S    
C2    H1    S    
C12   C14   S    
C10   O27   A    
O29   Zn2   S    
C13   C15   S    
C28   O22   S    
C13   C24   S    
H7    O2    S    
H15   O13   S    
C3    C4    S    
H19   O19   S    
C7    H28   S    
H14   O10   S    
H22   O22   S    
C20   O30   D    
C25   O15   S    
C1    O12   A    
C3    O3    S    
N2    Zn1   S    
O26   Zn1   S    
C24   O11   D    
C3    N1    S    
C4    N2    S    
H17   O16   S    
C13   C17   S    
C21   O6    S    
C2    C30   S    
O25   Zn2   S    
H20   O20   S    
O12   Zn2   S    
C5    C6    S    
C12   C19   S    
C17   C19   S    
C17   O16   S    
C14   C25   S    
C5    O9    S    
C9    C12   S    
C10   C32   S    
C24   O13   S    
O1    Zn1   S    
C5    C21   S    
C12   C13   S    
C10   O26   A    
C16   C18   S    
C22   O7    D    
C14   C15   S    
H21   O21   S    
C9    O23   A    
H18   O17   S    
