data_mof_unit_32443.cif
_audit_creation_date              2012-12-10T18:29:33-0500
_audit_creation_method            fapswitch 2.2
_symmetry_space_group_name_H-M    P1
_symmetry_Int_Tables_number       1
_space_group_crystal_system       triclinic
_cell_length_a                    11.53386
_cell_length_b                    15.010427
_cell_length_c                    15.555945
_cell_angle_alpha                 81.952141
_cell_angle_beta                  89.330511
_cell_angle_gamma                 104.940648
_cell_volume                      2573.28287415

loop_
_atom_site_label
_atom_site_type_symbol
_atom_type_description
_atom_site_fract_x
_atom_site_fract_y
_atom_site_fract_z
_atom_type_partial_charge
C1    C     C_R   0.483529 0.441451 0.661859 0.850304
C2    C     C_R   0.534589 0.678640 0.978275 -0.241314
C3    C     C_R   0.706377 0.852108 0.610133 -0.388810
C4    C     C_R   0.303892 0.151338 0.378597 -0.392346
C5    C     C_R   0.660891 0.757971 0.602983 0.612652
C6    C     C_R   0.335203 0.241206 0.400286 0.624903
C7    C     C_R   0.508229 0.792684 0.513510 -0.141567
C8    C     C_R   0.500804 0.209378 0.476783 -0.144493
C9    C     C_R   0.546870 0.888353 0.521582 -0.033863
C10   C     C_R   0.469769 0.116230 0.459553 -0.028002
C11   C     C_R   0.651145 0.918162 0.568668 0.012849
C12   C     C_R   0.518364 0.558604 0.338093 0.862767
C13   C     C_R   0.366304 0.087129 0.411934 -0.009009
C14   C     C_R   0.487390 0.954829 0.483091 0.028206
C15   C     C_R   0.534216 0.050567 0.491517 0.037234
C16   C     C_R   0.718071 0.501191 0.500320 0.895736
C17   C     C_R   0.281894 0.498713 0.499930 0.901888
C18   C     C_R   0.644992 0.078319 0.530227 -0.339622
C19   C     C_R   0.382126 0.928542 0.437066 -0.320270
C20   C     C_R   0.701506 0.013269 0.571820 0.489802
C21   C     C_R   0.322671 0.993384 0.401491 0.492494
C22   C     C_1   0.839272 0.502914 0.501039 -0.178844
C23   C     C_R   0.547990 0.367118 0.925087 0.177941
C24   C     C_1   0.160615 0.496810 0.499634 -0.212145
C25   C     C_1   0.941035 0.501312 0.500797 -0.001370
C26   C     C_1   0.058771 0.498186 0.500022 -0.018063
C27   C     C_R   0.487005 0.406618 0.753712 -0.048221
C28   C     C_R   0.535006 0.595064 0.245585 -0.057561
C29   C     C_R   0.543871 0.301960 0.867849 -0.204696
C30   C     C_R   0.539664 0.716010 0.124574 -0.203884
C31   C     C_R   0.516345 0.322712 0.781583 -0.198231
C32   C     C_R   0.535249 0.687143 0.213926 -0.192342
C33   C     C_R   0.479314 0.466575 0.812726 -0.282683
C34   C     C_R   0.544025 0.652953 0.066749 0.179006
C35   C     C_R   0.547397 0.534434 0.188109 -0.252101
C36   C     C_R   0.519452 0.452532 0.896525 0.088645
C37   C     C_R   0.553181 0.561883 0.098370 0.092341
C38   C     C_3   0.819450 0.109398 0.661685 0.072448
C39   C     C_3   0.911379 0.200001 0.623040 -0.345797
C40   C     C_3   0.918058 0.276368 0.679456 -0.953537
C41   C     C_3   0.119952 0.933955 0.415965 0.054255
C42   C     C_3   0.005267 0.916265 0.365605 -0.327907
C43   C     C_3   0.893362 0.886925 0.426858 -0.919875
C44   C     C_3   0.146073 0.268373 0.400950 0.070886
C45   C     C_R   0.532807 0.521444 0.952017 0.067238
C46   C     C_3   0.066759 0.260078 0.322777 -0.354712
C47   C     C_3   0.933914 0.223583 0.351788 -0.950467
C48   C     C_3   0.724526 0.684969 0.727268 0.057311
C49   C     C_3   0.854141 0.699117 0.754289 -0.350650
C50   C     C_3   0.859702 0.682580 0.853090 -0.931112
C51   C     C_R   0.558065 0.498430 0.039886 0.068769
C52   C     C_R   0.587073 0.412880 0.066445 -0.224066
C53   C     C_R   0.525321 0.613360 0.922065 -0.237097
C54   C     C_R   0.582909 0.348812 0.009572 -0.235974
H1    H     H_    0.691320 0.150836 0.526707 0.150249
H2    H     H_    0.515329 0.638056 0.854921 0.133889
H3    H     H_    0.786563 0.873053 0.645801 0.198518
H4    H     H_    0.227601 0.131005 0.339192 0.194447
H5    H     H_    0.607002 0.284551 0.031948 0.147998
H6    H     H_    0.528801 0.748310 0.952846 0.142776
H7    H     H_    0.850934 0.083026 0.725084 0.158826
H8    H     H_    0.731231 0.122974 0.676674 0.120607
H9    H     H_    0.001424 0.186678 0.617448 0.222914
H10   H     H_    0.886967 0.224778 0.556835 0.218121
H11   H     H_    0.830152 0.293560 0.682800 0.263592
H12   H     H_    0.341588 0.857768 0.427793 0.154936
H13   H     H_    0.987456 0.340129 0.650840 0.270233
H14   H     H_    0.942754 0.253484 0.746173 0.263837
H15   H     H_    0.117096 0.987837 0.458103 0.139001
H16   H     H_    0.122865 0.867986 0.457732 0.148480
H17   H     H_    0.003571 0.981032 0.321662 0.226090
H18   H     H_    0.004336 0.860495 0.325329 0.232593
H19   H     H_    0.892508 0.821935 0.471240 0.278025
H20   H     H_    0.811617 0.873920 0.388534 0.264618
H21   H     H_    0.891209 0.943111 0.465865 0.281585
H22   H     H_    0.573328 0.235633 0.517079 0.151472
H23   H     H_    0.544760 0.463709 0.214743 0.166377
H24   H     H_    0.436483 0.764641 0.473569 0.155430
H25   H     H_    0.121148 0.318528 0.438874 0.181407
H26   H     H_    0.124932 0.200444 0.445467 0.106314
H27   H     H_    0.081712 0.329705 0.282508 0.237753
H28   H     H_    0.091102 0.211964 0.281967 0.217177
H29   H     H_    0.916593 0.153612 0.391746 0.275731
H30   H     H_    0.878733 0.217604 0.293827 0.268733
H31   H     H_    0.906334 0.272278 0.390390 0.262070
H32   H     H_    0.673679 0.613042 0.754291 0.184910
H33   H     H_    0.682777 0.733447 0.757188 0.104862
H34   H     H_    0.445892 0.526084 0.790276 0.150247
H35   H     H_    0.895331 0.649742 0.726028 0.237150
H36   H     H_    0.906639 0.771365 0.728882 0.214975
H37   H     H_    0.820281 0.731984 0.882756 0.267543
H38   H     H_    0.954761 0.693542 0.870877 0.263721
H39   H     H_    0.809656 0.609993 0.879629 0.271493
H40   H     H_    0.527289 0.735412 0.257912 0.160625
H41   H     H_    0.522500 0.275273 0.736314 0.150954
H42   H     H_    0.567026 0.237037 0.888798 0.133615
H43   H     H_    0.534889 0.786308 0.100778 0.138195
H44   H     H_    0.618106 0.395066 0.130088 0.149647
N1    N     N_R   0.566020 0.731700 0.552730 -0.132704
N2    N     N_R   0.433980 0.268300 0.447270 -0.134400
O1    O     O_R   0.466720 0.383110 0.605620 -0.625421
O2    O     O_3   0.220462 0.964090 0.356247 -0.644704
O3    O     O_3   0.269125 0.304022 0.372244 -0.611278
O4    O     O_3   0.721839 0.693400 0.635543 -0.615523
O5    O     O_R   0.533280 0.616890 0.394380 -0.625365
O6    O     O_R   0.509090 0.531900 0.639510 -0.600086
O7    O     O_R   0.490910 0.468100 0.360490 -0.581245
O8    O     O_R   0.644370 0.425610 0.483050 -0.628866
O9    O     O_R   0.355630 0.574390 0.516950 -0.620482
O10   O     O_R   0.686740 0.574390 0.516930 -0.553171
O11   O     O_R   0.313260 0.425610 0.483070 -0.580382
O12   O     O_3   0.813885 0.041182 0.606276 -0.666498
Zn1   Zn    Zn3+2 0.471710 0.400660 0.477370 0.969006
Zn2   Zn    Zn3+2 0.528290 0.599340 0.522630 0.972340

loop_
_geom_bond_atom_site_label_1
_geom_bond_atom_site_label_2
_ccdc_geom_bond_type
C43   H19   S    
C15   C18   A    
C32   H40   S    
C23   C29   A    
C34   C37   A    
O1    Zn1   S    
C41   C42   S    
C49   H36   S    
N1    Zn2   S    
C16   O10   A    
C27   C33   A    
C39   H10   S    
C30   H43   S    
C7    N1    A    
O6    Zn2   S    
C47   H31   S    
C35   C37   A    
C33   H34   S    
C24   C26   T    
C10   C15   A    
C12   O5    A    
C37   C51   A    
C2    H6    S    
C45   C51   A    
C48   O4    S    
C8    H22   S    
C33   C36   A    
C41   O2    S    
C19   H12   S    
C4    C13   A    
O7    Zn1   S    
C20   O12   S    
C5    N1    A    
C28   C35   A    
C52   C54   A    
C3    H3    S    
C40   H13   S    
C10   C13   A    
C47   H29   S    
O10   Zn2   S    
C1    O6    A    
C38   H7    S    
C2    C34   A    
C43   H20   S    
C5    O4    S    
C45   C53   A    
C46   H28   S    
C17   O11   A    
C44   O3    S    
C44   C46   S    
C54   H5    S    
C43   H21   S    
C11   C20   A    
C17   C24   S    
C30   C34   A    
C27   C31   A    
C51   C52   A    
O5    Zn2   S    
C44   H26   S    
C4    C6    A    
C39   C40   S    
C25   C26   S    
C47   H30   S    
C22   C25   T    
C6    N2    A    
O8    Zn1   S    
C9    C14   A    
C12   O7    A    
C46   H27   S    
C28   C32   A    
C42   H18   S    
C48   H33   S    
C13   C21   A    
C36   C45   A    
O11   Zn1   S    
C6    O3    S    
C9    C11   A    
O9    Zn2   S    
C7    H24   S    
C21   O2    S    
C18   H1    S    
C50   H38   S    
C48   C49   S    
C12   C28   S    
C23   C36   A    
C40   H11   S    
C48   H32   S    
C42   C43   S    
C38   O12   S    
C1    O1    A    
C23   C54   A    
C41   H15   S    
C53   H2    S    
C7    C9    A    
C46   C47   S    
C16   C22   S    
C19   C21   A    
C14   C19   A    
C44   H25   S    
N2    Zn1   S    
C49   H35   S    
C3    C5    A    
C2    C53   A    
C17   O9    A    
C29   H42   S    
C50   H39   S    
C39   H9    S    
C8    N2    A    
C29   C31   A    
C30   C32   A    
C38   C39   S    
C31   H41   S    
C52   H44   S    
C42   H17   S    
C35   H23   S    
C18   C20   A    
C3    C11   A    
C16   O8    A    
C50   H37   S    
C8    C10   A    
C49   C50   S    
C40   H14   S    
C4    H4    S    
C1    C27   S    
C14   C15   A    
C41   H16   S    
C38   H8    S    
