data_mof_unit_61635.cif
_audit_creation_date              2012-12-10T18:30:08-0500
_audit_creation_method            fapswitch 2.2
_symmetry_space_group_name_H-M    P1
_symmetry_Int_Tables_number       1
_space_group_crystal_system       triclinic
_cell_length_a                    21.320677
_cell_length_b                    24.952339
_cell_length_c                    24.989276
_cell_angle_alpha                 100.623657
_cell_angle_beta                  115.349331
_cell_angle_gamma                 64.519604
_cell_volume                      10845.6640599

loop_
_atom_site_label
_atom_site_type_symbol
_atom_type_description
_atom_site_fract_x
_atom_site_fract_y
_atom_site_fract_z
_atom_type_partial_charge
C1    C     C_R   0.000099 0.918744 0.418846 0.913647
C2    C     C_3   0.722366 0.046332 0.532446 -0.170332
C3    C     C_3   0.732729 0.051658 0.476432 -0.166342
C4    C     C_3   0.810383 0.000427 0.499883 0.010358
C5    C     C_3   0.980513 0.740312 0.307986 0.317756
C6    C     C_3   0.075984 0.760051 0.289306 -0.504142
C7    C     C_3   0.076626 0.712575 0.239869 -0.387885
C8    C     C_1   0.000063 0.625135 0.125902 -0.168915
C9    C     C_3   0.997032 0.789736 0.292584 0.184873
C10   C     C_3   0.981322 0.691297 0.258841 -0.224408
C11   C     C_3   0.999324 0.706857 0.210736 0.225664
C12   C     C_R   0.878043 0.000180 0.500019 0.879623
C13   C     C_3   0.937344 0.767798 0.183328 -0.408551
C14   C     C_3   0.938302 0.817010 0.231053 -0.351156
C15   C     C_1   0.999887 0.662008 0.164021 -0.077317
C16   C     C_1   0.998062 0.836171 0.337574 -0.021117
C17   C     C_1   0.999134 0.874121 0.374604 -0.136674
C18   C     C_3   0.202572 0.056160 0.502892 -0.163647
C19   C     C_3   0.232062 0.029930 0.453063 -0.153643
C20   C     C_3   0.311045 0.999774 0.500581 0.023180
C21   C     C_3   0.282779 0.026005 0.550397 -0.170776
C22   C     C_3   0.268803 0.969658 0.548096 -0.164856
C23   C     C_R   0.999968 0.081273 0.581190 0.908348
C24   C     C_3   0.298225 0.943460 0.498321 -0.159734
C25   C     C_3   0.217900 0.973653 0.450764 -0.157629
C26   C     C_3   0.189705 0.999858 0.500552 0.022774
C27   C     C_3   0.009053 0.185468 0.765959 -0.392063
C28   C     C_3   0.924639 0.264529 0.687315 -0.390970
C29   C     C_3   0.924659 0.313079 0.735869 -0.392541
C30   C     C_1   0.999940 0.374556 0.874263 -0.180875
C31   C     C_3   0.999900 0.209148 0.708800 0.355940
C32   C     C_3   0.009075 0.234016 0.814512 -0.394031
C33   C     C_3   0.999934 0.291328 0.790988 0.354866
C34   C     C_R   0.121972 0.000009 0.500193 0.860936
C35   C     C_3   0.066047 0.276441 0.772129 -0.389935
C36   C     C_3   0.066028 0.227891 0.723574 -0.394826
C37   C     C_1   0.999948 0.337041 0.836718 -0.122362
C38   C     C_1   0.999889 0.163420 0.663091 -0.122821
C39   C     C_1   0.999908 0.125852 0.625602 -0.187417
C40   C     C_R   0.418783 0.081255 0.418874 0.911126
C41   C     C_R   0.621823 0.000068 0.499931 0.869962
C42   C     C_R   0.581307 0.918656 0.581225 0.912261
C43   C     C_R   0.378350 0.999808 0.500281 0.866665
C44   C     C_R   0.081100 0.418993 0.080925 0.907983
C45   C     C_3   0.777275 0.954418 0.467313 -0.132408
C46   C     C_R   0.999834 0.581180 0.080949 0.907187
C47   C     C_R   0.918658 0.581247 0.918835 0.903811
C48   C     C_R   0.999901 0.419038 0.918784 0.903455
C49   C     C_3   0.315190 0.265468 0.314364 -0.163189
C50   C     C_3   0.208562 0.231269 0.279699 -0.430853
C51   C     C_3   0.159535 0.279623 0.231082 -0.387152
C52   C     C_1   0.125884 0.375028 0.125870 -0.170800
C53   C     C_3   0.293503 0.210551 0.292688 0.284259
C54   C     C_3   0.267229 0.314070 0.264862 -0.169511
C55   C     C_3   0.210405 0.293344 0.210766 0.282303
C56   C     C_3   0.698351 0.005668 0.443873 -0.157083
C57   C     C_3   0.256518 0.235217 0.186283 -0.429292
C58   C     C_3   0.304928 0.186273 0.234308 -0.389475
C59   C     C_1   0.163858 0.338164 0.164000 -0.096561
C60   C     C_1   0.338142 0.163895 0.337615 -0.097951
C61   C     C_1   0.374900 0.125915 0.374629 -0.181753
C62   C     C_3   0.719992 0.819530 0.770968 -0.388589
C63   C     C_3   0.784788 0.753546 0.705247 -0.424665
C64   C     C_3   0.833640 0.704994 0.753703 -0.393416
C65   C     C_1   0.873886 0.625617 0.874314 -0.180616
C66   C     C_3   0.706640 0.790700 0.708619 0.301512
C67   C     C_3   0.689143 0.000311 0.499854 0.016213
C68   C     C_3   0.768132 0.770966 0.819416 -0.396566
C69   C     C_3   0.789615 0.708545 0.790901 0.331414
C70   C     C_3   0.716109 0.699743 0.749335 -0.422097
C71   C     C_3   0.667043 0.747788 0.699841 -0.122052
C72   C     C_1   0.835946 0.663014 0.836720 -0.109383
C73   C     C_1   0.661975 0.836553 0.662951 -0.109589
C74   C     C_1   0.625193 0.874124 0.625552 -0.179071
C75   C     C_3   0.766708 0.949099 0.523265 -0.152507
C76   C     C_3   0.801112 0.995131 0.555860 -0.171435
H1    H     H_    0.654504 0.009973 0.398220 0.144882
H2    H     H_    0.119954 0.738959 0.332504 0.179906
H3    H     H_    0.123065 0.669259 0.258701 0.185096
H4    H     H_    0.088497 0.725379 0.205915 0.183705
H5    H     H_    0.881084 0.841868 0.231522 0.234446
H6    H     H_    0.953106 0.849754 0.219417 0.160862
H7    H     H_    0.880716 0.765681 0.163514 0.204362
H8    H     H_    0.924900 0.688848 0.236538 0.200306
H9    H     H_    0.946604 0.779251 0.147052 0.171872
H10   H     H_    0.219106 0.054506 0.414347 0.125865
H11   H     H_    0.801670 0.916979 0.440748 0.172570
H12   H     H_    0.161664 0.102116 0.504776 0.136616
H13   H     H_    0.310955 0.047344 0.591140 0.147557
H14   H     H_    0.282244 0.945060 0.586969 0.153333
H15   H     H_    0.339144 0.897495 0.496487 0.142306
H16   H     H_    0.189460 0.952298 0.410171 0.126197
H17   H     H_    0.962115 0.243580 0.828345 0.168247
H18   H     H_    0.962084 0.171715 0.756471 0.166259
H19   H     H_    0.916778 0.282417 0.646220 0.169660
H20   H     H_    0.876172 0.252179 0.676430 0.167239
H21   H     H_    0.876199 0.324050 0.748303 0.169128
H22   H     H_    0.778563 0.907307 0.542365 0.136775
H23   H     H_    0.916807 0.354287 0.718095 0.167511
H24   H     H_    0.120844 0.188777 0.739175 0.167263
H25   H     H_    0.060678 0.245128 0.683123 0.167748
H26   H     H_    0.120873 0.260645 0.811051 0.168175
H27   H     H_    0.062857 0.145600 0.782315 0.168499
H28   H     H_    0.062889 0.217465 0.854188 0.166390
H29   H     H_    0.060706 0.316998 0.754999 0.168695
H30   H     H_    0.303563 0.282983 0.355008 0.135761
H31   H     H_    0.191365 0.192963 0.264989 0.178515
H32   H     H_    0.844866 0.990871 0.601550 0.140835
H33   H     H_    0.198224 0.249238 0.320720 0.173714
H34   H     H_    0.124622 0.320478 0.248289 0.183167
H35   H     H_    0.119771 0.264009 0.192745 0.173949
H36   H     H_    0.365512 0.170136 0.241875 0.179844
H37   H     H_    0.288419 0.147694 0.218343 0.174196
H38   H     H_    0.294011 0.243397 0.171468 0.173692
H39   H     H_    0.304561 0.321310 0.249022 0.136483
H40   H     H_    0.217754 0.219621 0.146984 0.178085
H41   H     H_    0.820117 0.778042 0.850171 0.169047
H42   H     H_    0.698358 0.083940 0.559048 0.149855
H43   H     H_    0.749636 0.849199 0.777874 0.169104
H44   H     H_    0.777453 0.732361 0.660886 0.172757
H45   H     H_    0.814634 0.782819 0.711173 0.177992
H46   H     H_    0.886923 0.710937 0.782812 0.174435
H47   H     H_    0.849476 0.660481 0.732615 0.170736
H48   H     H_    0.661546 0.725190 0.656249 0.125595
H49   H     H_    0.684740 0.701144 0.775942 0.176260
H50   H     H_    0.665147 0.847548 0.775000 0.178444
H51   H     H_    0.735687 0.774701 0.845906 0.173025
H52   H     H_    0.720511 0.093584 0.457355 0.152873
H53   H     H_    0.730452 0.654928 0.728622 0.157691
H54   H     H_    0.026431 0.720803 0.351283 0.084394
H55   H     H_    0.091158 0.794030 0.280404 0.193902
O1    O     O_R   0.034680 0.903860 0.473250 -0.608514
O2    O     O_R   0.438620 0.026720 0.403950 -0.619202
O3    O     O_R   0.593070 0.034630 0.534720 -0.629756
O4    O     O_R   0.593090 0.965250 0.465380 -0.620965
O5    O     O_R   0.561490 0.973170 0.596160 -0.619478
O6    O     O_R   0.561500 0.903790 0.526820 -0.616890
O7    O     O_R   0.407020 0.034640 0.534730 -0.628958
O8    O     O_R   0.407040 0.965260 0.465390 -0.626486
O9    O     O_R   0.113850 0.438650 0.061280 -0.617473
O10   O     O_R   0.008840 0.438630 0.061310 -0.615328
O11   O     O_R   0.052380 0.561560 0.061290 -0.618167
O12   O     O_R   0.965310 0.973280 0.403900 -0.620867
O13   O     O_R   0.947370 0.561540 0.061320 -0.612239
O14   O     O_R   0.990910 0.561610 0.938440 -0.618853
O15   O     O_R   0.885900 0.561600 0.938470 -0.616952
O16   O     O_R   0.052380 0.438700 0.938430 -0.618455
O17   O     O_R   0.947370 0.438690 0.938460 -0.618557
O18   O     O_R   0.941660 0.965300 0.534680 -0.621296
O19   O     O_R   0.872290 0.034710 0.465330 -0.626381
O20   O     O_R   0.034690 0.026720 0.596100 -0.620739
O21   O     O_R   0.965320 0.096140 0.526750 -0.619801
O22   O     O_R   0.127710 0.965290 0.534670 -0.629445
O23   O     O_R   0.058340 0.034700 0.465320 -0.627273
O24   O     O_R   0.438600 0.096100 0.473280 -0.616426
Zn1   Zn    Zn3+2 0.046320 0.953650 0.546300 0.964786
Zn2   Zn    Zn3+2 0.953680 0.046350 0.453700 0.955308
Zn3   Zn    Zn3+2 0.500040 0.046270 0.546350 0.950058
Zn4   Zn    Zn3+2 0.500070 0.953620 0.453760 0.962311
Zn5   Zn    Zn3+2 0.069990 0.500130 0.999860 0.960226
Zn6   Zn    Zn3+2 0.929760 0.500110 0.999900 0.967898
S1    S     S_3+6 0.893616 0.766965 0.319339 -0.011020
O25   O     O_2   0.891882 0.716558 0.342840 -0.287522
O26   O     O_2   0.889591 0.816845 0.363527 -0.317642
O27   O     O_3   0.818242 0.790314 0.255115 -0.596046
H56   H     H_    0.773864 0.802577 0.265265 0.387156
C77   C     C_1   0.228531 0.371760 0.288626 0.146950
N1    N     N_1   0.198223 0.416908 0.307181 -0.180665
C78   C     C_1   0.396811 0.249128 0.332016 0.145164
N2    N     N_1   0.460682 0.236307 0.345836 -0.208931
C79   C     C_1   0.589775 0.779675 0.698586 0.154194
N3    N     N_1   0.529276 0.804676 0.697580 -0.215240
C80   C     C_1   0.035216 0.632095 0.285255 0.159404
N4    N     N_1   0.077378 0.585765 0.305895 -0.168851

loop_
_geom_bond_atom_site_label_1
_geom_bond_atom_site_label_2
_ccdc_geom_bond_type
C79   N3    T    
C47   O14   A    
O10   Zn6   S    
O27   H56   S    
O19   Zn2   S    
C55   C59   S    
O13   Zn6   S    
C18   C21   S    
C73   C74   T    
C19   C20   S    
C18   C26   S    
C54   C77   S    
C23   O21   A    
C19   H10   S    
C6    C9    S    
C2    H42   S    
C46   O11   A    
C56   C67   S    
C21   H13   S    
C80   N4    T    
C71   C79   S    
C7    C11   S    
C28   H19   S    
C58   H36   S    
O17   Zn6   S    
C30   C48   S    
C28   C29   S    
C45   H11   S    
C9    C16   S    
C38   C39   T    
C49   C53   S    
C6    H2    S    
C49   C54   S    
C48   O16   A    
C29   C33   S    
C43   O7    A    
C42   O5    A    
C18   C19   S    
C78   N2    T    
C27   H27   S    
C20   C24   S    
O1    Zn1   S    
O21   Zn2   S    
C11   C15   S    
C26   C34   S    
C35   C36   S    
C45   C56   S    
C68   C69   S    
C58   H37   S    
C32   H28   S    
C40   O24   A    
C43   O8    A    
C70   C71   S    
C45   C75   S    
C4    C12   S    
O5    Zn3   S    
C1    O1    A    
C10   C80   S    
C32   H17   S    
C47   O15   A    
O8    Zn4   S    
C76   H32   S    
C63   C66   S    
C21   C22   S    
O24   Zn3   S    
O16   Zn5   S    
C41   O3    A    
C63   H45   S    
C53   C60   S    
O12   Zn2   S    
C57   H40   S    
S1    O26   D    
C4    C45   S    
C34   O23   A    
O15   Zn6   S    
C42   C74   S    
C50   C53   S    
O4    Zn4   S    
C62   C66   S    
C27   C31   S    
C12   O19   A    
C71   H48   S    
C24   C25   S    
O23   Zn2   S    
C41   C67   S    
C2    C67   S    
C77   N1    T    
C62   H50   S    
O14   Zn5   S    
C29   H23   S    
C3    H52   S    
C16   C17   T    
C46   O13   A    
C70   H53   S    
C25   C26   S    
O20   Zn1   S    
C66   C73   S    
C50   H33   S    
C33   C37   S    
C40   C61   S    
C30   C37   T    
C36   H25   S    
O2    Zn4   S    
C69   C72   S    
C75   C76   S    
C5    C9    S    
C35   H29   S    
C52   C59   T    
C68   H41   S    
S1    O27   S    
C3    C56   S    
O7    Zn3   S    
C66   C71   S    
C54   H39   S    
C50   C51   S    
C22   H14   S    
C9    C14   S    
C36   H24   S    
C64   C69   S    
O22   Zn1   S    
C68   H51   S    
C62   H43   S    
C49   H30   S    
C70   H49   S    
C5    H54   S    
O3    Zn3   S    
C51   H34   S    
C55   C57   S    
C50   H31   S    
C22   C24   S    
C67   C75   S    
C14   H6    S    
O6    Zn4   S    
C64   H47   S    
C24   H15   S    
C41   O4    A    
C20   C43   S    
C2    C76   S    
C7    H3    S    
S1    O25   D    
C44   O10   A    
C34   O22   A    
C23   O20   A    
C54   C55   S    
C25   H16   S    
C51   H35   S    
C27   C32   S    
C12   O18   A    
O18   Zn1   S    
C28   C31   S    
O11   Zn5   S    
C6    H55   S    
C53   C58   S    
C6    C7    S    
C62   C68   S    
C1    O12   A    
C8    C15   T    
C65   C72   T    
C40   O2    A    
C13   H7    S    
C1    C17   S    
C31   C38   S    
C29   H21   S    
C28   H20   S    
C5    S1    S    
C2    C3    S    
C5    C10   S    
C32   C33   S    
C49   C78   S    
C63   H44   S    
C11   C13   S    
C44   C52   S    
C57   C58   S    
C57   H38   S    
C64   H46   S    
C48   O17   A    
C10   H8    S    
C33   C35   S    
C47   C65   S    
C51   C55   S    
C75   H22   S    
C69   C70   S    
C19   C25   S    
C8    C46   S    
C4    C76   S    
C18   H12   S    
C10   C11   S    
C56   H1    S    
C63   C64   S    
C35   H26   S    
C20   C21   S    
C44   O9    A    
C22   C26   S    
C13   H9    S    
C31   C36   S    
C60   C61   T    
C27   H18   S    
C14   H5    S    
C13   C14   S    
C23   C39   S    
O9    Zn5   S    
C3    C4    S    
C7    H4    S    
C42   O6    A    
