data_mof_unit_53260.cif
_audit_creation_date              2012-12-10T17:47:42-0500
_audit_creation_method            fapswitch 2.2
_symmetry_space_group_name_H-M    P1
_symmetry_Int_Tables_number       1
_space_group_crystal_system       triclinic
_cell_length_a                    10.69658
_cell_length_b                    10.703561
_cell_length_c                    9.878227
_cell_angle_alpha                 88.743177
_cell_angle_beta                  88.782812
_cell_angle_gamma                 92.469616
_cell_volume                      1129.37198438

loop_
_atom_site_label
_atom_site_type_symbol
_atom_type_description
_atom_site_fract_x
_atom_site_fract_y
_atom_site_fract_z
_atom_type_partial_charge
C1    C     C_R   0.514403 0.260995 0.501814 0.943465
C2    C     C_3   0.877171 0.492560 0.497262 0.011915
C3    C     C_3   0.929587 0.611580 0.569098 -0.390330
C4    C     C_3   0.931311 0.497766 0.350359 -0.482284
C5    C     C_R   0.525463 0.106361 0.761308 -0.152853
C6    C     C_R   0.478534 0.040735 0.876191 -0.167248
C7    C     C_R   0.408772 0.928917 0.862768 0.240615
C8    C     C_R   0.398567 0.877302 0.734334 -0.128318
C9    C     C_R   0.461197 0.935739 0.620200 0.050604
C10   C     C_R   0.507142 0.058886 0.630044 0.075241
C11   C     C_R   0.534674 0.127943 0.507748 -0.107000
C12   C     C_R   0.257188 0.499131 0.501483 0.913046
C13   C     C_R   0.560045 0.065168 0.386582 0.173187
C14   C     C_R   0.536134 0.937743 0.384276 -0.205980
C15   C     C_R   0.486137 0.873337 0.498750 -0.157451
C16   C     C_R   0.340136 0.329385 0.148048 -0.167764
C17   C     C_R   0.266365 0.241191 0.081511 -0.219713
C18   C     C_R   0.269673 0.238722 0.941617 -0.180489
C19   C     C_R   0.345359 0.325631 0.867543 -0.175984
C20   C     C_R   0.423331 0.414276 0.931540 0.138902
C21   C     C_R   0.422090 0.415226 0.076228 0.169091
C22   C     C_R   0.573967 0.581746 0.067928 -0.126292
C23   C     C_R   0.490626 0.739589 0.499233 0.878424
C24   C     C_R   0.573586 0.582021 0.924550 -0.074134
C25   C     C_R   0.741731 0.496446 0.498645 0.906768
C26   C     C_3   0.061601 0.383686 0.598022 0.445223
C27   C     C_3   0.920715 0.367091 0.563605 0.188916
C28   C     C_3   0.073229 0.620872 0.556907 -0.473500
C29   C     C_3   0.072379 0.482252 0.355495 -0.440585
C30   C     C_3   0.119601 0.495312 0.504463 0.056093
H1    H     H_    0.911832 0.588788 0.299905 0.210378
H2    H     H_    0.103207 0.698440 0.484832 0.192960
H3    H     H_    0.891858 0.697195 0.521918 0.176253
H4    H     H_    0.579932 0.191569 0.777982 0.223871
H5    H     H_    0.493295 0.079252 0.975308 0.161806
H6    H     H_    0.343759 0.790668 0.724713 0.148403
H7    H     H_    0.559806 0.888194 0.293265 0.165463
H8    H     H_    0.634292 0.648407 0.119039 0.139366
H9    H     H_    0.329609 0.327319 0.255344 0.226988
H10   H     H_    0.205553 0.175095 0.138931 0.172251
H11   H     H_    0.211892 0.170193 0.889864 0.197196
H12   H     H_    0.337473 0.323277 0.760437 0.246057
H13   H     H_    0.633555 0.648974 0.867467 0.148503
H14   H     H_    0.911003 0.294138 0.485344 0.146472
H15   H     H_    0.113610 0.644833 0.656332 0.182783
H16   H     H_    0.898822 0.610554 0.677208 0.196326
H17   H     H_    0.118465 0.554597 0.286174 0.208691
H18   H     H_    0.095123 0.389070 0.316180 0.210032
H19   H     H_    0.888490 0.422144 0.288407 0.195513
N1    N     N_R   0.498810 0.498800 0.142780 -0.122080
N2    N     N_R   0.498760 0.498720 0.857170 -0.122388
O1    O     O_R   0.500000 0.316780 0.614690 -0.634995
O2    O     O_R   0.499990 0.316750 0.385360 -0.634670
O3    O     O_R   0.314800 0.499990 0.614670 -0.650025
O4    O     O_R   0.314790 0.499970 0.385330 -0.644181
O5    O     O_R   0.500010 0.683250 0.614640 -0.629792
O6    O     O_R   0.500000 0.683220 0.385310 -0.623565
O7    O     O_R   0.685210 0.500030 0.614670 -0.571980
O8    O     O_R   0.685200 0.500010 0.385330 -0.639301
Zn1   Zn    Zn3+2 0.500010 0.500020 0.653130 0.953453
Zn2   Zn    Zn3+2 0.499990 0.499980 0.346870 0.930333
C31   C     C_3   0.074053 0.407814 0.752479 -0.754878
H20   H     H_    0.001682 0.469406 0.791351 0.230712
H21   H     H_    0.061990 0.318680 0.811538 0.281703
H22   H     H_    0.163389 0.453864 0.779506 0.224758
C32   C     C_3   0.620111 0.129085 0.261983 -0.844305
H23   H     H_    0.669373 0.061713 0.198082 0.222741
H24   H     H_    0.547742 0.171703 0.199322 0.254255
H25   H     H_    0.691136 0.201752 0.291349 0.242290
C33   C     C_3   0.350666 0.863366 0.985995 -0.922135
H26   H     H_    0.283315 0.925080 0.035333 0.246798
H27   H     H_    0.300060 0.774636 0.959815 0.236770
H28   H     H_    0.424711 0.841177 0.058784 0.243190
Cl1   Cl    Cl    0.137277 0.240262 0.562231 -0.702502
Cl2   Cl    Cl    0.824173 0.298015 0.700529 -0.661084

loop_
_geom_bond_atom_site_label_1
_geom_bond_atom_site_label_2
_ccdc_geom_bond_type
C32   H24   S    
C16   C21   A    
C19   C20   A    
C1    C11   S    
C7    C33   S    
C7    C8    A    
O3    Zn1   S    
C26   C27   S    
C31   H20   S    
C29   H17   S    
C3    C28   S    
C20   N2    A    
C5    C6    A    
C32   H25   S    
C3    H3    S    
O7    Zn1   S    
C22   H8    S    
C6    H5    S    
C18   C19   A    
C8    H6    S    
C1    O2    A    
C31   H21   S    
O1    Zn1   S    
O2    Zn2   S    
C27   H14   S    
C8    C9    A    
C2    C27   S    
C9    C10   A    
C4    C29   S    
C19   H12   S    
C22   N1    A    
C24   N2    A    
C15   C23   S    
C32   H23   S    
C13   C14   A    
C27   Cl2   S    
C21   N1    A    
C13   C32   S    
C28   H15   S    
O8    Zn2   S    
C29   H18   S    
C12   O4    A    
C28   H2    S    
C18   H11   S    
C16   C17   A    
O5    Zn1   S    
C17   H10   S    
C2    C4    S    
C29   C30   S    
C5    H4    S    
C33   H28   S    
C17   C18   A    
C23   O5    A    
C33   H26   S    
C26   C30   S    
C22   C24   A    
C25   O7    A    
C23   O6    A    
C31   H22   S    
C12   C30   S    
O6    Zn2   S    
C6    C7    A    
C3    H16   S    
C4    H19   S    
C28   C30   S    
C2    C3    S    
C9    C15   A    
C5    C10   A    
C14   H7    S    
C11   C13   A    
O4    Zn2   S    
C26   Cl1   S    
C2    C25   S    
C26   C31   S    
C1    O1    A    
C4    H1    S    
C10   C11   A    
C16   H9    S    
N1    Zn2   S    
C20   C21   A    
C24   H13   S    
C14   C15   A    
C33   H27   S    
N2    Zn1   S    
C25   O8    A    
C12   O3    A    
