data_mof_unit_29819.cif
_audit_creation_date              2012-12-10T21:28:11-0500
_audit_creation_method            fapswitch 2.2
_symmetry_space_group_name_H-M    P1
_symmetry_Int_Tables_number       1
_space_group_crystal_system       triclinic
_cell_length_a                    12.874192
_cell_length_b                    16.079441
_cell_length_c                    16.625027
_cell_angle_alpha                 86.17787
_cell_angle_beta                  90.707966
_cell_angle_gamma                 99.476099
_cell_volume                      3387.02806608

loop_
_atom_site_label
_atom_site_type_symbol
_atom_type_description
_atom_site_fract_x
_atom_site_fract_y
_atom_site_fract_z
_atom_type_partial_charge
C1    C     C_R   0.500677 0.487580 0.653643 0.898612
C2    C     C_R   0.502850 0.512749 0.346347 0.902404
C3    C     C_R   0.623411 0.541164 0.850918 0.056007
C4    C     C_R   0.458530 0.460982 0.132457 0.038802
C5    C     C_R   0.585806 0.467754 0.900399 0.123535
C6    C     C_R   0.537276 0.520455 0.092947 0.159229
C7    C     C_R   0.523863 0.397481 0.867611 0.437075
C8    C     C_R   0.601950 0.581101 0.135853 0.419919
C9    C     C_R   0.484565 0.404770 0.788517 -0.005431
C10   C     C_R   0.583173 0.587872 0.218085 -0.053178
C11   C     C_R   0.444481 0.757608 0.464304 0.598049
C12   C     C_R   0.547302 0.240159 0.541430 0.591014
C13   C     C_R   0.445910 0.845107 0.469485 -0.415713
C14   C     C_R   0.539858 0.151767 0.539957 -0.410668
C15   C     C_R   0.521207 0.892479 0.517950 0.223379
C16   C     C_R   0.473479 0.106677 0.483981 0.220967
C17   C     C_R   0.592634 0.849719 0.563091 0.008307
C18   C     C_R   0.411515 0.151840 0.431851 0.003346
C19   C     C_R   0.586061 0.761433 0.557601 -0.152821
C20   C     C_R   0.420601 0.240447 0.436573 -0.135557
C21   C     C_R   0.702902 0.516251 0.500910 0.878256
C22   C     C_R   0.297144 0.483821 0.499020 0.894862
C23   C     C_R   0.184802 0.474553 0.495281 -0.086410
C24   C     C_R   0.815484 0.526882 0.500201 -0.079778
C25   C     C_R   0.984514 0.608760 0.530221 0.100855
C26   C     C_R   0.016706 0.395241 0.458965 0.106046
C27   C     C_R   0.875107 0.599921 0.527420 -0.221282
C28   C     C_R   0.125577 0.401828 0.467256 -0.221311
C29   C     C_R   0.862159 0.462130 0.473451 -0.331970
C30   C     C_R   0.138435 0.541653 0.516586 -0.286861
C31   C     C_R   0.969714 0.465061 0.479816 0.115516
C32   C     C_R   0.031242 0.539095 0.508897 0.106025
C33   C     C_R   0.522614 0.478883 0.739589 -0.146263
C34   C     C_R   0.510860 0.522957 0.258812 -0.157278
C35   C     C_R   0.593326 0.544436 0.770638 -0.298045
C36   C     C_R   0.449767 0.460784 0.215714 -0.297072
H1    H     H_    0.187631 0.596012 0.539563 0.177111
H2    H     H_    0.812708 0.408402 0.449533 0.155548
H3    H     H_    0.638489 0.726216 0.591354 0.149464
H4    H     H_    0.374665 0.277280 0.398104 0.150759
H5    H     H_    0.165948 0.351631 0.450872 0.149615
H6    H     H_    0.834833 0.648900 0.546967 0.148897
H7    H     H_    0.393130 0.412678 0.247423 0.159379
H8    H     H_    0.625473 0.599423 0.731925 0.169504
H9    H     H_    0.585263 0.118878 0.582781 0.172038
H10   H     H_    0.387899 0.875417 0.436559 0.169960
N1    N     N_2   0.591191 0.467975 0.984998 -0.192004
N2    N     N_2   0.545955 0.524380 0.008800 -0.164642
N3    N     N_R   0.512890 0.717880 0.509760 -0.133562
N4    N     N_R   0.487110 0.282120 0.490240 -0.132971
N5    N     N_2   0.527499 0.982145 0.523518 -0.177564
N6    N     N_2   0.465907 0.016828 0.478763 -0.177023
O1    O     O_R   0.495390 0.422190 0.612650 -0.572345
O2    O     O_R   0.504610 0.577810 0.387350 -0.595974
O3    O     O_R   0.503660 0.562120 0.618910 -0.629699
O4    O     O_R   0.496340 0.437880 0.381090 -0.627239
O5    O     O_R   0.650190 0.441600 0.497400 -0.602058
O6    O     O_R   0.349810 0.558400 0.502600 -0.567064
O7    O     O_R   0.658460 0.581530 0.503670 -0.637026
O8    O     O_R   0.341540 0.418470 0.496330 -0.640128
Zn1   Zn    Zn3+2 0.494480 0.406570 0.495820 0.959844
Zn2   Zn    Zn3+2 0.505520 0.593430 0.504180 0.957958
C37   C     C_3   0.673090 0.900414 0.616391 -0.383210
C38   C     C_3   0.749664 0.850198 0.661920 -0.381235
C39   C     C_3   0.827582 0.907290 0.712295 -0.880108
H11   H     H_    0.873490 0.958811 0.673222 0.260784
H12   H     H_    0.785135 0.935284 0.758705 0.264109
H13   H     H_    0.883159 0.869615 0.743075 0.249228
H14   H     H_    0.705200 0.799622 0.702884 0.222463
H15   H     H_    0.794546 0.821167 0.617902 0.217559
H16   H     H_    0.720038 0.951962 0.577805 0.208008
H17   H     H_    0.629838 0.930083 0.661177 0.207986
C40   C     C_3   0.336874 0.103197 0.373170 -0.383014
C41   C     C_3   0.267266 0.155608 0.322337 -0.381349
C42   C     C_3   0.192652 0.100042 0.268364 -0.879077
H18   H     H_    0.238074 0.069116 0.226155 0.262166
H19   H     H_    0.140090 0.050783 0.305449 0.259547
H20   H     H_    0.143242 0.139532 0.232680 0.250187
H21   H     H_    0.219343 0.186509 0.362748 0.217361
H22   H     H_    0.317452 0.204878 0.283458 0.217643
H23   H     H_    0.384379 0.072895 0.331838 0.206500
H24   H     H_    0.284402 0.052118 0.408441 0.208836
C43   C     C_3   0.051831 0.690344 0.555911 -0.429791
C44   C     C_3   0.992685 0.762921 0.572832 -0.371392
C45   C     C_3   0.069144 0.842131 0.592329 -0.864121
H25   H     H_    0.116262 0.829119 0.646771 0.261843
H26   H     H_    0.123051 0.863897 0.540735 0.258928
H27   H     H_    0.024294 0.893382 0.604181 0.252729
H28   H     H_    0.945603 0.778737 0.519141 0.222167
H29   H     H_    0.939582 0.743553 0.625348 0.218647
H30   H     H_    0.095703 0.675207 0.611560 0.201126
H31   H     H_    0.109595 0.713861 0.507019 0.213351
C46   C     C_3   0.950297 0.315292 0.429165 -0.435071
C47   C     C_3   0.009823 0.243426 0.410371 -0.356545
C48   C     C_3   0.934192 0.166626 0.384065 -0.879463
H32   H     H_    0.876719 0.142123 0.432773 0.257978
H33   H     H_    0.891015 0.183662 0.328741 0.260665
H34   H     H_    0.979328 0.115934 0.370875 0.253329
H35   H     H_    0.066971 0.265417 0.360812 0.217801
H36   H     H_    0.052603 0.223574 0.464987 0.223760
H37   H     H_    0.891222 0.289833 0.476318 0.196612
H38   H     H_    0.908271 0.333111 0.373435 0.200802
C49   C     C_3   0.385771 0.395553 0.087922 -0.363632
C50   C     C_3   0.306312 0.435556 0.034896 -0.315732
C51   C     C_3   0.232811 0.368558 0.991442 -0.883694
H39   H     H_    0.278686 0.334721 0.952176 0.292998
H40   H     H_    0.187298 0.322299 0.035776 0.257110
H41   H     H_    0.176674 0.399232 0.953254 0.240414
H42   H     H_    0.258510 0.469036 0.073100 0.214979
H43   H     H_    0.347571 0.482134 0.988867 0.235738
H44   H     H_    0.433202 0.360712 0.051364 0.252835
H45   H     H_    0.341091 0.347596 0.131409 0.181407
C52   C     C_3   0.695464 0.616823 0.881026 -0.382279
C53   C     C_3   0.638477 0.693468 0.883022 -0.289098
C54   C     C_3   0.711591 0.770713 0.911024 -0.886015
H46   H     H_    0.735837 0.759225 0.974502 0.289261
H47   H     H_    0.782626 0.785755 0.872148 0.256147
H48   H     H_    0.669727 0.825958 0.907295 0.248228
H49   H     H_    0.608794 0.709708 0.821906 0.204011
H50   H     H_    0.569931 0.678245 0.924462 0.243525
H51   H     H_    0.726207 0.601975 0.941571 0.232367
H52   H     H_    0.764947 0.632785 0.840454 0.179277
O9    O     O_3   0.489700 0.325413 0.916718 -0.675543
C55   C     C_3   0.573133 0.278750 0.930639 0.068041
H53   H     H_    0.561581 0.245789 0.991533 0.165364
H54   H     H_    0.652632 0.318863 0.931323 0.128063
C56   C     C_3   0.569952 0.212239 0.868436 -0.373349
H55   H     H_    0.492521 0.169773 0.871691 0.227673
H56   H     H_    0.579088 0.243898 0.806922 0.223024
C57   C     C_3   0.657438 0.159507 0.883295 -0.968533
H57   H     H_    0.735753 0.200454 0.877867 0.265275
H58   H     H_    0.652124 0.111370 0.837894 0.263799
H59   H     H_    0.649557 0.126565 0.944330 0.265840
O10   O     O_3   0.685635 0.632873 0.097439 -0.653916
C58   C     C_3   0.775371 0.592298 0.105533 0.070079
H60   H     H_    0.782185 0.560969 0.166791 0.127770
H61   H     H_    0.771090 0.542447 0.061877 0.145161
C59   C     C_3   0.874608 0.657505 0.089008 -0.342749
H62   H     H_    0.873823 0.683836 0.025569 0.220051
H63   H     H_    0.876007 0.710056 0.129407 0.228448
C60   C     C_3   0.974120 0.618414 0.103129 -0.976348
H64   H     H_    0.978337 0.593744 0.166919 0.265486
H65   H     H_    0.044532 0.667218 0.089975 0.267957
H66   H     H_    0.974907 0.566088 0.062862 0.263091
C61   C     C_3   0.400430 0.335085 0.758986 -0.373107
C62   C     C_3   0.295472 0.366703 0.741644 -0.349397
C63   C     C_3   0.213952 0.298065 0.707486 -0.873294
H67   H     H_    0.242210 0.279121 0.649622 0.268091
H68   H     H_    0.198635 0.241914 0.750930 0.258348
H69   H     H_    0.138998 0.322582 0.696029 0.251570
H70   H     H_    0.264635 0.386127 0.798418 0.225337
H71   H     H_    0.306143 0.422330 0.697588 0.212171
H72   H     H_    0.428553 0.308267 0.705179 0.234896
H73   H     H_    0.384301 0.280877 0.804440 0.228728
C64   C     C_3   0.636779 0.666047 0.258335 -0.365848
C65   C     C_3   0.732230 0.650355 0.309759 -0.311512
C66   C     C_3   0.768640 0.724039 0.362256 -0.869046
H74   H     H_    0.787031 0.784044 0.324228 0.248504
H75   H     H_    0.706577 0.729792 0.406368 0.273788
H76   H     H_    0.840971 0.713375 0.395539 0.248824
H77   H     H_    0.713147 0.591168 0.348376 0.218827
H78   H     H_    0.798733 0.643840 0.270329 0.212163
H79   H     H_    0.663889 0.718088 0.212166 0.219901
H80   H     H_    0.578351 0.691148 0.294341 0.205731
O11   O     O_3   0.607875 0.284567 0.598945 -0.627755
C67   C     C_3   0.714787 0.273841 0.595125 0.065479
H81   H     H_    0.763142 0.337285 0.584636 0.180176
H82   H     H_    0.733172 0.235549 0.545153 0.108538
C68   C     C_3   0.748599 0.235190 0.675732 -0.360925
H83   H     H_    0.739559 0.278109 0.723945 0.232260
H84   H     H_    0.697654 0.173456 0.690503 0.221766
C69   C     C_3   0.863221 0.221973 0.673256 -0.964621
H85   H     H_    0.873707 0.177454 0.626834 0.265452
H86   H     H_    0.885890 0.194983 0.732862 0.267956
H87   H     H_    0.915858 0.283119 0.659167 0.266580
O12   O     O_3   0.367617 0.708527 0.420938 -0.618132
C70   C     C_3   0.358519 0.741521 0.340521 0.055411
H88   H     H_    0.370240 0.691518 0.300102 0.169405
H89   H     H_    0.418702 0.797694 0.322426 0.109205
C71   C     C_3   0.247349 0.761835 0.326918 -0.344492
H90   H     H_    0.188774 0.703919 0.341337 0.233523
H91   H     H_    0.233073 0.810688 0.367775 0.210389
C72   C     C_3   0.231480 0.793792 0.239886 -0.962486
H92   H     H_    0.287659 0.852823 0.224725 0.262946
H93   H     H_    0.150003 0.807367 0.232050 0.266975
H94   H     H_    0.243448 0.745231 0.197955 0.264064

loop_
_geom_bond_atom_site_label_1
_geom_bond_atom_site_label_2
_ccdc_geom_bond_type
O6    Zn2   S    
C58   C59   S    
C9    C33   A    
C4    C36   A    
C46   C47   S    
C54   H47   S    
C68   H83   S    
C48   H32   S    
C24   C27   A    
C72   H92   S    
C53   C54   S    
C48   H34   S    
C1    C33   S    
O9    C55   S    
C45   H25   S    
C69   H85   S    
C43   H31   S    
C51   H40   S    
C11   O12   S    
O11   C67   S    
C6    N2    S    
C65   C66   S    
C63   H68   S    
C21   O7    A    
C60   H65   S    
C22   O8    A    
C50   H42   S    
C20   H4    S    
C4    C49   S    
C54   H46   S    
O3    Zn2   S    
C28   H5    S    
C49   H44   S    
C40   C41   S    
C1    O1    A    
C24   C29   A    
C20   N4    A    
C63   H67   S    
C17   C19   A    
O1    Zn1   S    
C66   H74   S    
C52   H52   S    
C43   C44   S    
C71   H91   S    
C70   H89   S    
C29   H2    S    
C38   H15   S    
C18   C20   A    
C53   H49   S    
C69   H87   S    
C61   H72   S    
C54   H48   S    
C26   C46   S    
C65   H78   S    
C26   C31   A    
C66   H75   S    
C41   H22   S    
C67   H82   S    
C68   H84   S    
C44   H29   S    
C40   H23   S    
C50   C51   S    
C69   H86   S    
C61   C62   S    
C14   H9    S    
C45   H26   S    
C51   H41   S    
C41   C42   S    
C62   C63   S    
C8    O10   S    
N5    N6    D    
C23   C30   A    
C58   H60   S    
C63   H69   S    
C44   C45   S    
C4    C6    A    
C2    O2    A    
C60   H66   S    
C46   H37   S    
C12   O11   S    
C5    C7    A    
C6    C8    A    
O2    Zn2   S    
C39   H12   S    
C23   C28   A    
C37   C38   S    
C30   H1    S    
C49   H45   S    
C46   H38   S    
C57   H58   S    
C42   H18   S    
C56   H56   S    
C21   O5    A    
C11   N3    A    
C5    N1    S    
C47   H36   S    
C19   N3    A    
N1    N2    D    
C3    C35   A    
C70   C71   S    
C48   H33   S    
C10   C34   A    
C38   H14   S    
C35   H8    S    
C42   H19   S    
C19   H3    S    
C55   C56   S    
C62   H71   S    
C61   H73   S    
C16   C18   A    
O12   C70   S    
C37   H16   S    
C65   H77   S    
C39   H11   S    
C66   H76   S    
C15   N5    S    
C41   H21   S    
C13   C15   A    
C3    C52   S    
C67   H81   S    
C68   C69   S    
C14   C16   A    
C72   H94   S    
C57   H59   S    
C44   H28   S    
C39   H13   S    
C56   H55   S    
C40   H24   S    
C49   C50   S    
C71   H90   S    
C50   H43   S    
C55   H54   S    
C52   C53   S    
C45   H27   S    
C58   H61   S    
O7    Zn2   S    
N3    Zn2   S    
C22   C23   S    
C31   C32   A    
C16   N6    S    
C7    O9    S    
C3    C5    A    
C59   C60   S    
C10   C64   S    
C22   O6    A    
C12   N4    A    
C71   C72   S    
O5    Zn1   S    
O10   C58   S    
C59   H63   S    
C64   H80   S    
C25   C27   A    
C43   H30   S    
C51   H39   S    
C26   C28   A    
C64   H79   S    
C18   C40   S    
C72   H93   S    
C57   H57   S    
C1    O3    A    
C56   C57   S    
C29   C31   A    
C2    O4    A    
C60   H64   S    
C38   C39   S    
C30   C32   A    
C11   C13   A    
C27   H6    S    
C2    C34   S    
C13   H10   S    
C47   H35   S    
C25   C32   A    
C9    C61   S    
C33   C35   A    
C34   C36   A    
C47   C48   S    
C42   H20   S    
C53   H50   S    
C59   H62   S    
C62   H70   S    
C7    C9    A    
C12   C14   A    
C52   H51   S    
C37   H17   S    
C67   C68   S    
C8    C10   A    
C70   H88   S    
C21   C24   S    
C64   C65   S    
C25   C43   S    
N4    Zn1   S    
O4    Zn1   S    
O8    Zn1   S    
C36   H7    S    
C15   C17   A    
C17   C37   S    
C55   H53   S    
