data_mof_unit_48863.cif
_audit_creation_date              2012-12-10T18:19:13-0500
_audit_creation_method            fapswitch 2.2
_symmetry_space_group_name_H-M    P1
_symmetry_Int_Tables_number       1
_space_group_crystal_system       triclinic
_cell_length_a                    15.011178
_cell_length_b                    14.008722
_cell_length_c                    11.544539
_cell_angle_alpha                 90.000013
_cell_angle_beta                  90.349833
_cell_angle_gamma                 90.0
_cell_volume                      2427.62606387

loop_
_atom_site_label
_atom_site_type_symbol
_atom_type_description
_atom_site_fract_x
_atom_site_fract_y
_atom_site_fract_z
_atom_type_partial_charge
C1    C     C_R   0.326454 0.499957 0.500515 0.896733
C2    C     C_R   0.448723 0.202086 0.577724 -0.002412
C3    C     C_R   0.450550 0.797964 0.579743 -0.007645
C4    C     C_R   0.551276 0.202086 0.422276 -0.002411
C5    C     C_R   0.449319 0.898773 0.582151 -0.115803
C6    C     C_R   0.552616 0.101296 0.419994 -0.114967
C7    C     C_R   0.550681 0.898773 0.417849 -0.115802
C8    C     C_R   0.447384 0.101296 0.580006 -0.114969
C9    C     C_R   0.500000 0.949440 0.500000 -0.048687
C10   C     C_R   0.500000 0.050609 0.500000 -0.051164
C11   C     C_R   0.399036 0.949715 0.664678 0.345062
C12   C     C_R   0.673546 0.499957 0.499485 0.896733
C13   C     C_R   0.605256 0.050458 0.340004 0.351168
C14   C     C_R   0.600964 0.949715 0.335322 0.345062
C15   C     C_R   0.394744 0.050458 0.659996 0.351169
C16   C     C_R   0.500048 0.500017 0.281714 0.913782
C17   C     C_R   0.499952 0.500017 0.718286 0.913781
C18   C     C_1   0.500068 0.500113 0.161370 -0.188369
C19   C     C_1   0.499932 0.500113 0.838630 -0.188369
C20   C     C_1   0.500035 0.500228 0.059269 0.003148
C21   C     C_1   0.499965 0.500228 0.940731 0.003148
C22   C     C_R   0.815241 0.586686 0.498699 -0.252671
C23   C     C_R   0.907352 0.587269 0.499127 0.116115
C24   C     C_R   0.184852 0.412732 0.502054 -0.259111
C25   C     C_R   0.769420 0.499780 0.498575 -0.076520
C26   C     C_R   0.230580 0.499780 0.501425 -0.076519
C27   C     C_R   0.815148 0.412732 0.497946 -0.259110
C28   C     C_R   0.184759 0.586686 0.501301 -0.252671
C29   C     C_R   0.907306 0.412011 0.498707 0.122208
C30   C     C_R   0.092648 0.587269 0.500873 0.116114
C31   C     C_R   0.953661 0.499624 0.499447 0.061172
C32   C     C_R   0.046339 0.499624 0.500553 0.061172
C33   C     C_3   0.403876 0.892763 0.848297 0.116829
C34   C     C_R   0.092694 0.412011 0.501293 0.122208
C35   C     C_3   0.355175 0.832185 0.936967 -0.816572
C36   C     C_3   0.743897 0.109477 0.310684 0.111814
C37   C     C_3   0.798950 0.174936 0.234216 -0.817086
C38   C     C_3   0.596124 0.892764 0.151702 0.116829
C39   C     C_3   0.644826 0.832186 0.063032 -0.816573
C40   C     C_3   0.256103 0.109478 0.689315 0.111813
C41   C     C_3   0.201050 0.174937 0.765783 -0.817086
C42   C     C_R   0.953708 0.325309 0.499208 -0.221207
C43   C     C_R   0.046265 0.673945 0.500410 -0.212488
C44   C     C_R   0.046292 0.325309 0.500793 -0.221207
C45   C     C_R   0.953735 0.673945 0.499590 -0.212488
C46   C     C_R   0.549450 0.797964 0.420257 -0.007644
H1    H     H_    0.779417 0.653935 0.498790 0.167311
H2    H     H_    0.409103 0.243012 0.637964 0.171039
H3    H     H_    0.412000 0.757099 0.641208 0.170544
H4    H     H_    0.590897 0.243012 0.362036 0.171039
H5    H     H_    0.416924 0.964232 0.887153 0.174206
H6    H     H_    0.468633 0.857245 0.829168 0.119614
H7    H     H_    0.342346 0.759858 0.901117 0.256487
H8    H     H_    0.396486 0.825282 0.016667 0.197677
H9    H     H_    0.290741 0.866171 0.959596 0.263476
H10   H     H_    0.777870 0.038939 0.316144 0.174578
H11   H     H_    0.741334 0.142041 0.398809 0.110982
H12   H     H_    0.220758 0.345522 0.502653 0.161055
H13   H     H_    0.767010 0.246337 0.228631 0.254715
H14   H     H_    0.866856 0.183246 0.271608 0.203556
H15   H     H_    0.804348 0.144206 0.145852 0.265043
H16   H     H_    0.583078 0.964233 0.112846 0.174208
H17   H     H_    0.531367 0.857246 0.170831 0.119614
H18   H     H_    0.657654 0.759859 0.098882 0.256487
H19   H     H_    0.603515 0.825283 0.983332 0.197677
H20   H     H_    0.709260 0.866171 0.040404 0.263476
H21   H     H_    0.222130 0.038940 0.683854 0.174577
H22   H     H_    0.258666 0.142043 0.601191 0.110982
H23   H     H_    0.779242 0.345522 0.497347 0.161055
H24   H     H_    0.232991 0.246338 0.771369 0.254714
H25   H     H_    0.133144 0.183248 0.728392 0.203556
H26   H     H_    0.195652 0.144207 0.854148 0.265043
H27   H     H_    0.220583 0.653935 0.501209 0.167311
H28   H     H_    0.918442 0.257786 0.498581 0.140727
H29   H     H_    0.081505 0.741475 0.500670 0.149039
H30   H     H_    0.081559 0.257786 0.501419 0.140727
H31   H     H_    0.918495 0.741475 0.499330 0.149039
H32   H     H_    0.588000 0.757099 0.358791 0.170545
N1    N     N_R   0.500000 0.750030 0.500000 -0.122582
N2    N     N_R   0.500000 0.249970 0.500000 -0.124035
O1    O     O_R   0.367850 0.580280 0.500030 -0.627126
O2    O     O_3   0.657915 0.099148 0.261889 -0.603248
O3    O     O_3   0.649369 0.901223 0.252504 -0.608029
O4    O     O_3   0.342085 0.099148 0.738111 -0.603247
O5    O     O_R   0.632150 0.419720 0.499970 -0.630400
O6    O     O_R   0.632150 0.580280 0.499970 -0.627126
O7    O     O_R   0.367850 0.419720 0.500030 -0.630400
O8    O     O_R   0.500010 0.580270 0.334450 -0.621784
O9    O     O_R   0.499990 0.419730 0.665550 -0.613702
O10   O     O_R   0.499990 0.580270 0.665550 -0.621784
O11   O     O_R   0.500010 0.419730 0.334450 -0.613701
O12   O     O_3   0.350631 0.901223 0.747496 -0.608028
Zn1   Zn    Zn3+2 0.500000 0.607200 0.500000 0.942051
Zn2   Zn    Zn3+2 0.500000 0.392800 0.500000 0.946531

loop_
_geom_bond_atom_site_label_1
_geom_bond_atom_site_label_2
_ccdc_geom_bond_type
C1    O7    A    
C23   C45   A    
C38   O3    S    
C35   H7    S    
C40   O4    S    
C3    N1    A    
C3    H3    S    
C33   H6    S    
C39   H18   S    
C12   O5    A    
C36   C37   S    
C19   C21   T    
C24   C26   A    
C4    N2    A    
C46   N1    A    
C29   C42   A    
C27   C29   A    
C1    O1    A    
O7    Zn2   S    
O9    Zn2   S    
C44   H30   S    
C33   C35   S    
C11   C15   A    
C11   O12   S    
C7    C14   A    
C36   O2    S    
C22   C25   A    
C9    C10   A    
C27   H23   S    
C41   H25   S    
C22   H1    S    
C13   C14   A    
C35   H8    S    
C39   H19   S    
C42   C44   A    
C14   O3    S    
C28   H27   S    
C43   H29   S    
C42   H28   S    
C35   H9    S    
C7    C46   A    
C17   O9    A    
C4    C6    A    
C36   H11   S    
C33   O12   S    
C46   H32   S    
C2    H2    S    
C13   O2    S    
C40   H21   S    
C24   C34   A    
C4    H4    S    
C32   C34   A    
C5    C9    A    
C36   H10   S    
O6    Zn1   S    
O1    Zn1   S    
O5    Zn2   S    
C31   C32   A    
C34   C44   A    
C16   C18   S    
C43   C45   A    
C37   H13   S    
C41   H26   S    
C24   H12   S    
C40   C41   S    
C8    C15   A    
C5    C11   A    
C1    C26   S    
C39   H20   S    
C30   C43   A    
C25   C27   A    
N2    Zn2   S    
O10   Zn1   S    
C38   H17   S    
C7    C9    A    
O8    Zn1   S    
C2    C8    A    
C17   O10   A    
C3    C5    A    
C6    C10   A    
C37   H15   S    
N1    Zn1   S    
C15   O4    S    
C33   H5    S    
C26   C28   A    
C12   O6    A    
C12   C25   S    
C28   C30   A    
C29   C31   A    
C6    C13   A    
C30   C32   A    
C38   C39   S    
C17   C19   S    
C18   C20   T    
C37   H14   S    
C2    N2    A    
C20   C21   S    
C16   O11   A    
C8    C10   A    
C40   H22   S    
C16   O8    A    
C22   C23   A    
C45   H31   S    
C38   H16   S    
C23   C31   A    
C41   H24   S    
O11   Zn2   S    
