data_mof_unit_8857.cif
_audit_creation_date              2012-12-11T15:13:48-0500
_audit_creation_method            fapswitch 2.2
_symmetry_space_group_name_H-M    P1
_symmetry_Int_Tables_number       1
_space_group_crystal_system       triclinic
_cell_length_a                    6.981183
_cell_length_b                    13.694155
_cell_length_c                    20.115715
_cell_angle_alpha                 104.446012
_cell_angle_beta                  90.955443
_cell_angle_gamma                 89.747044
_cell_volume                      1862.02947681

loop_
_atom_site_label
_atom_site_type_symbol
_atom_type_description
_atom_site_fract_x
_atom_site_fract_y
_atom_site_fract_z
_atom_type_partial_charge
O1    O     O_R   0.506780 0.600060 0.449950 -0.525647
O2    O     O_R   0.179840 0.597110 0.589410 -0.530279
O3    O     O_R   0.004570 0.399940 0.550050 -0.544883
C1    C     C_R   0.349055 0.616737 0.617550 0.780951
O4    O     O_R   0.177380 0.612160 0.452890 -0.539710
O5    O     O_R   0.002100 0.415100 0.412560 -0.528379
C2    C     C_R   0.344807 0.636366 0.435063 0.787826
O6    O     O_R   0.509250 0.584900 0.587440 -0.547735
O7    O     O_3   0.337570 0.435330 0.486930 -0.368078
V1    V     V_3+5 0.064650 0.512000 0.502430 1.634396
O8    O     O_R   0.672090 0.402890 0.410590 -0.534356
C3    C     C_R   0.839661 0.383217 0.382802 0.835841
O9    O     O_R   0.674540 0.387840 0.547110 -0.536974
C4    C     C_R   0.844220 0.363122 0.564237 0.685313
V2    V     V_3+5 0.564040 0.488000 0.497570 1.626666
O10   O     O_3   0.840990 0.564670 0.513070 -0.369943
C5    C     C_R   0.848042 0.108377 0.600945 0.482446
C6    C     C_R   0.854706 0.284722 0.601522 -0.295091
C7    C     C_R   0.835145 0.312428 0.929938 0.266764
C8    C     C_R   0.789551 0.386557 0.894758 0.421583
C9    C     C_R   0.777681 0.359624 0.823445 -0.034514
C10   C     C_R   0.818937 0.261004 0.784390 -0.013673
C11   C     C_R   0.833618 0.183190 0.819756 -0.092601
C12   C     C_R   0.835129 0.236977 0.711024 -0.021416
C13   C     C_R   0.825986 0.134199 0.673422 -0.228252
C14   C     C_R   0.791853 0.059990 0.709045 0.420570
C15   C     C_R   0.817824 0.081319 0.780931 0.256459
C16   C     C_R   0.864621 0.311780 0.674157 0.332959
C17   C     C_R   0.850176 0.182802 0.564901 0.295008
C18   C     C_R   0.851174 0.210739 0.893194 -0.191635
H1    H     H_    0.724681 0.417224 0.799862 0.228315
C19   C     C_3   0.805503 0.160671 0.249348 -0.234830
C20   C     C_3   0.976032 0.221472 0.289743 0.309384
H2    H     H_    0.774501 0.081024 0.247753 0.219578
C21   C     C_3   0.847622 0.315851 0.311720 -0.287681
C22   C     C_3   0.679591 0.256337 0.270827 0.333454
C23   C     C_3   0.734622 0.289611 0.205936 0.335298
C24   C     C_3   0.905142 0.348091 0.246670 0.290633
C25   C     C_3   0.032628 0.254481 0.225036 0.291325
C26   C     C_3   0.863779 0.194919 0.184481 -0.353349
C27   C     C_3   0.528942 0.748325 0.724862 -0.102113
C28   C     C_3   0.391040 0.839251 0.749919 -0.150234
H3    H     H_    0.407041 0.920262 0.751829 0.205230
H4    H     H_    0.671642 0.750714 0.701978 0.242958
C29   C     C_3   0.353821 0.804331 0.815543 -0.220865
C30   C     C_3   0.490714 0.714073 0.791556 -0.123297
C31   C     C_3   0.319904 0.650033 0.755419 0.341278
C32   C     C_3   0.184014 0.740047 0.780430 0.347899
C33   C     C_3   0.221493 0.773854 0.714457 0.314785
C34   C     C_3   0.357661 0.683928 0.689329 -0.241364
H5    H     H_    0.592065 0.686223 0.825530 0.243721
C35   C     C_R   0.322038 0.891282 0.395810 0.505126
C36   C     C_R   0.350865 0.715389 0.398067 -0.253030
C37   C     C_R   0.331228 0.686878 0.069407 0.270966
C38   C     C_R   0.301251 0.613443 0.105227 0.420081
C39   C     C_R   0.302679 0.639483 0.176581 -0.137739
C40   C     C_R   0.354616 0.737025 0.214958 0.012375
C41   C     C_R   0.378019 0.814008 0.179248 -0.068154
C42   C     C_R   0.366706 0.761437 0.288303 -0.080770
C43   C     C_R   0.364673 0.864098 0.324882 -0.160991
C44   C     C_R   0.414737 0.937548 0.290470 0.426458
C45   C     C_R   0.415655 0.914282 0.218008 0.230563
C46   C     C_R   0.386836 0.688388 0.327184 0.321960
C47   C     C_R   0.312066 0.816433 0.432458 0.247544
C48   C     C_R   0.362447 0.787647 0.105714 -0.208514
H6    H     H_    0.254649 0.582713 0.201173 0.224019
O11   O     O_R   0.203580 0.914920 0.912610 -0.526463
O12   O     O_R   0.535710 0.887810 0.047120 -0.533178
O13   O     O_R   0.710730 0.084950 0.087430 -0.525026
C49   C     C_R   0.368599 0.863690 0.065484 0.874668
O14   O     O_R   0.533010 0.902850 0.910600 -0.527932
O15   O     O_R   0.708010 0.100090 0.949930 -0.533005
C50   C     C_R   0.363207 0.877595 0.884729 0.801396
O16   O     O_R   0.206300 0.899780 0.050100 -0.549777
O17   O     O_3   0.375170 0.064580 0.013100 -0.372901
V3    V     V_3+5 0.648200 0.988020 0.997570 1.654323
O18   O     O_R   0.038030 0.112330 0.952840 -0.538917
C51   C     C_R   0.867903 0.134920 0.933536 0.898938
O19   O     O_R   0.040730 0.097300 0.089360 -0.546662
C52   C     C_R   0.872387 0.121915 0.115373 0.822707
V4    V     V_3+5 0.148780 0.012220 0.002360 1.631489
O20   O     O_3   0.871930 0.935430 0.986900 -0.366905
O21   O     O_3   0.853604 0.151884 0.493801 -0.548651
H7    H     H_    0.863211 0.210136 0.473336 0.327547
O22   O     O_3   0.494958 0.257158 0.296347 -0.557750
H8    H     H_    0.449685 0.327700 0.303671 0.360173
Cl1   Cl    Cl    0.575622 0.338648 0.152266 -0.411674
O23   O     O_3   0.960065 0.445845 0.245867 -0.581684
H9    H     H_    0.988520 0.442707 0.197264 0.370816
O24   O     O_3   0.216002 0.257000 0.199348 -0.560288
H10   H     H_    0.262532 0.186567 0.189283 0.333458
Cl2   Cl    Cl    0.285276 0.523943 0.761369 -0.531086
Cl3   Cl    Cl    0.961166 0.734126 0.819875 -0.578294
Cl4   Cl    Cl    0.668804 0.948839 0.666986 -0.558437
Cl5   Cl    Cl    0.050972 0.814538 0.660894 -0.541848
O25   O     O_3   0.272253 0.845808 0.501903 -0.575100
H11   H     H_    0.295178 0.790069 0.524162 0.329411
Cl6   Cl    Cl    0.522895 0.050710 0.338316 -0.474826
O26   O     O_3   0.279138 0.990932 0.426892 -0.538977
H12   H     H_    0.263756 0.000870 0.476912 0.387912
Cl7   Cl    Cl    0.497016 0.569495 0.292821 -0.585546
Cl8   Cl    Cl    0.322227 0.652700 0.978465 -0.496954
Cl9   Cl    Cl    0.258229 0.487079 0.061764 -0.411816
O27   O     O_3   0.456108 0.988153 0.184520 -0.658814
H13   H     H_    0.429998 0.055180 0.215166 0.331462
Cl10  Cl    Cl    0.899585 0.984574 0.552167 -0.396065
O28   O     O_3   0.913516 0.408797 0.709862 -0.602496
H14   H     H_    0.938956 0.452681 0.678828 0.322677
Cl11  Cl    Cl    0.860025 0.344396 0.020499 -0.523571
O29   O     O_3   0.753050 0.486209 0.927272 -0.565914
H15   H     H_    0.756494 0.495994 0.977601 0.380022
O30   O     O_3   0.811862 0.004269 0.814044 -0.645145
H16   H     H_    0.838498 0.939068 0.781037 0.355776
Cl12  Cl    Cl    0.124312 0.175458 0.347566 -0.480711

loop_
_geom_bond_atom_site_label_1
_geom_bond_atom_site_label_2
_ccdc_geom_bond_type
C14   Cl4   S    
C38   C39   A    
C41   C45   A    
C5    C17   A    
C27   C28   S    
C4    C6    S    
C21   C22   S    
C1    O6    A    
V4    O20   S    
O24   H10   S    
C37   C48   A    
O18   C51   A    
C9    H1    S    
C14   C15   A    
C20   C25   S    
C19   C22   S    
C22   C23   S    
C17   O21   S    
C23   C26   S    
O5    C3    A    
O14   V3    S    
C36   C47   A    
C40   C42   A    
C16   O28   S    
V2    O10   S    
C38   Cl9   S    
C39   C40   A    
O13   V3    S    
C29   C50   S    
C31   Cl2   S    
O29   H15   S    
O30   H16   S    
O15   C51   A    
C35   C43   A    
C30   C31   S    
O8    V2    S    
C31   C32   S    
C49   O16   A    
C27   C30   S    
C26   C52   S    
O1    V2    S    
C11   C15   A    
O7    V1    S    
C25   O24   S    
C46   Cl7   S    
C42   C43   A    
O9    C4    A    
O27   H13   S    
C37   Cl8   S    
C31   C34   S    
C45   O27   S    
C7    Cl11  S    
C32   Cl3   S    
C11   C18   A    
C21   C24   S    
C6    C16   A    
C12   C13   A    
C47   O25   S    
C35   C47   A    
V3    O20   S    
C25   C26   S    
O4    C2    A    
O17   V4    S    
C13   C14   A    
O22   H8    S    
C30   H5    S    
C1    C34   S    
C43   C44   A    
C28   C29   S    
C19   H2    S    
O2    C1    A    
O17   V3    S    
C23   C24   S    
C41   C48   A    
O21   H7    S    
O18   V4    S    
O28   H14   S    
O25   H11   S    
C8    C9    A    
C20   Cl12  S    
O15   V3    S    
C6    C17   A    
C33   Cl5   S    
C3    C21   S    
O3    C4    A    
O11   C50   A    
C32   C33   S    
C15   O30   S    
O11   V4    S    
O6    V2    S    
O9    V2    S    
C27   H4    S    
C8    O29   S    
C28   H3    S    
C2    C36   S    
O16   V4    S    
O2    V1    S    
C27   C34   S    
O14   C50   A    
C29   C32   S    
C37   C38   A    
O1    C2    A    
C42   C46   A    
C23   Cl1   S    
C12   C16   A    
O5    V1    S    
O8    C3    A    
C22   O22   S    
O12   V3    S    
C35   O26   S    
O19   V4    S    
O26   H12   S    
C5    C13   A    
C19   C20   S    
C7    C8    A    
O7    V2    S    
O4    V1    S    
O3    V1    S    
V1    O10   S    
C5    Cl10  S    
C36   C46   A    
C44   Cl6   S    
C40   C41   A    
C24   C25   S    
C39   H6    S    
C20   C21   S    
C10   C12   A    
C19   C26   S    
C44   C45   A    
C28   C33   S    
O19   C52   A    
C18   C51   S    
C29   C30   S    
O23   H9    S    
O12   C49   A    
C33   C34   S    
C24   O23   S    
C10   C11   A    
O13   C52   A    
C9    C10   A    
C7    C18   A    
C48   C49   S    
