data_mof_unit_31935.cif
_audit_creation_date              2012-12-10T16:54:04-0500
_audit_creation_method            fapswitch 2.2
_symmetry_space_group_name_H-M    P1
_symmetry_Int_Tables_number       1
_space_group_crystal_system       triclinic
_cell_length_a                    9.675971
_cell_length_b                    10.935801
_cell_length_c                    13.434606
_cell_angle_alpha                 90.17844
_cell_angle_beta                  72.314161
_cell_angle_gamma                 90.52804
_cell_volume                      1354.32991357

loop_
_atom_site_label
_atom_site_type_symbol
_atom_type_description
_atom_site_fract_x
_atom_site_fract_y
_atom_site_fract_z
_atom_type_partial_charge
C1    C     C_R   0.500558 0.734891 0.500828 0.868588
C2    C     C_R   0.434657 0.519266 0.980486 0.082288
C3    C     C_R   0.468678 0.547618 0.873037 -0.037586
C4    C     C_R   0.542700 0.536064 0.031342 0.050757
C5    C     C_R   0.676680 0.594782 0.978308 0.143613
C6    C     C_R   0.699140 0.640488 0.876555 0.153152
C7    C     C_R   0.595258 0.616919 0.825694 -0.169995
C8    C     C_R   0.521198 0.494927 0.133860 -0.227500
C9    C     C_R   0.755602 0.572910 0.133230 -0.210302
C10   C     C_R   0.372662 0.509411 0.816581 -0.138159
C11   C     C_2   0.606766 0.068865 0.514538 -0.262092
C12   C     C_R   0.421838 0.505116 0.700634 0.816152
C13   C     C_2   0.490867 0.133436 0.512273 -0.362270
C14   C     C_2   0.602580 0.934672 0.526104 0.442449
C15   C     C_2   0.504005 0.867392 0.496861 -0.333313
C16   C     C_2   0.055705 0.576610 0.554481 -0.033530
C17   C     C_2   0.902752 0.581894 0.548393 -0.046852
C18   C     C_R   0.498225 0.265265 0.502506 0.887303
C19   C     C_R   0.577824 0.501813 0.299840 0.791235
C20   C     C_R   0.783259 0.609433 0.029785 -0.197964
C21   C     C_R   0.622458 0.518881 0.186407 -0.046593
C22   C     C_R   0.231942 0.465951 0.871981 0.416285
C23   C     C_R   0.192635 0.454480 0.980659 -0.253320
C24   C     C_R   0.292642 0.477622 0.033702 -0.220949
Cu1   Cu    Cu3+1 0.361370 0.499980 0.499980 0.967584
Cu2   Cu    Cu3+1 0.638630 0.500020 0.500020 0.959932
H1    H     H_    0.835925 0.591464 0.172708 0.160222
H2    H     H_    0.385896 0.090887 0.522435 0.152466
H3    H     H_    0.425025 0.908907 0.465370 0.103095
H4    H     H_    0.086303 0.641879 0.605158 0.156555
H5    H     H_    0.127096 0.444570 0.448238 0.188012
H6    H     H_    0.835775 0.657049 0.587324 0.182757
H7    H     H_    0.906542 0.426295 0.468920 0.190519
H8    H     H_    0.887184 0.652110 0.991888 0.159202
H9    H     H_    0.425239 0.444392 0.175773 0.143951
H10   H     H_    0.253183 0.465934 0.117208 0.145070
H11   H     H_    0.084639 0.423695 0.024638 0.141828
H12   H     H_    0.612135 0.657607 0.749716 0.178112
H13   H     H_    0.708029 0.115526 0.510319 0.171469
N1    N     N_2   0.152660 0.501340 0.501130 -0.276391
N2    N     N_2   0.846520 0.501370 0.501160 -0.285854
O1    O     O_R   0.382960 0.678040 0.499980 -0.597975
O2    O     O_R   0.617100 0.678080 0.500020 -0.523974
O3    O     O_R   0.325800 0.499940 0.650950 -0.511327
O4    O     O_R   0.559930 0.499980 0.650990 -0.588013
O5    O     O_R   0.382900 0.321920 0.499980 -0.575431
O6    O     O_R   0.617040 0.321960 0.500020 -0.579526
O7    O     O_R   0.440070 0.500020 0.349010 -0.585004
O8    O     O_R   0.674200 0.500060 0.349050 -0.582228
O9    O     O_3   0.702568 0.877769 0.564989 -0.739592
H14   H     H_    0.763714 0.941199 0.584284 0.312252
C25   C     C_3   0.831804 0.715745 0.821313 -0.892547
H15   H     H_    0.826660 0.752022 0.745551 0.230722
H16   H     H_    0.840777 0.795653 0.870235 0.237358
H17   H     H_    0.930518 0.658844 0.806180 0.246725
O10   O     O_3   0.134892 0.433801 0.818926 -0.720634
H18   H     H_    0.041767 0.407125 0.869594 0.319263

loop_
_geom_bond_atom_site_label_1
_geom_bond_atom_site_label_2
_ccdc_geom_bond_type
Cu1   O1    S    
C2    C4    A    
C23   C24   A    
C13   H2    S    
C6    C7    A    
C1    C15   S    
C19   O8    A    
C9    C20   A    
C3    C7    A    
C14   C15   D    
C25   H17   S    
C4    C8    A    
H7    N2    S    
C18   O6    A    
O9    H14   S    
Cu1   Cu2   S    
C20   H8    S    
C12   O3    A    
C3    C10   A    
C14   O9    S    
C10   C22   A    
C11   H13   S    
C11   C13   D    
Cu1   O7    S    
C9    C21   A    
C24   H10   S    
C10   C12   S    
Cu2   O6    S    
C16   N1    D    
C18   O5    A    
Cu1   O3    S    
C19   C21   S    
C7    H12   S    
C25   H16   S    
Cu2   O2    S    
C15   H3    S    
C2    C3    A    
Cu1   N1    S    
C2    C24   A    
C5    C6    A    
C11   C14   S    
C17   N2    D    
O10   H18   S    
C16   H4    S    
C12   O4    A    
C1    O1    A    
C25   H15   S    
C9    H1    S    
C13   C18   S    
Cu2   O8    S    
C5    C20   A    
C17   H6    S    
C22   C23   A    
C16   C17   S    
C22   O10   S    
C19   O7    A    
Cu2   O4    S    
C6    C25   S    
H5    N1    S    
C23   H11   S    
Cu1   O5    S    
C1    O2    A    
Cu2   N2    S    
C4    C5    A    
C8    H9    S    
C8    C21   A    
