data_mof_unit_58709.cif
_audit_creation_date              2012-12-10T19:05:17-0500
_audit_creation_method            fapswitch 2.2
_symmetry_space_group_name_H-M    P1
_symmetry_Int_Tables_number       1
_space_group_crystal_system       triclinic
_cell_length_a                    9.557676
_cell_length_b                    10.817494
_cell_length_c                    17.302972
_cell_angle_alpha                 90.475518
_cell_angle_beta                  85.804016
_cell_angle_gamma                 89.891427
_cell_volume                      1784.09388935

loop_
_atom_site_label
_atom_site_type_symbol
_atom_type_description
_atom_site_fract_x
_atom_site_fract_y
_atom_site_fract_z
_atom_type_partial_charge
C1    C     C_R   0.499574 0.737498 0.501936 0.820578
C2    C     C_R   0.355964 0.552123 0.775592 -0.275892
C3    C     C_R   0.452757 0.591167 0.147792 -0.143963
C4    C     C_R   0.441512 0.585295 0.228158 -0.231170
C5    C     C_R   0.638313 0.442801 0.223862 -0.195474
C6    C     C_R   0.650768 0.449708 0.143475 -0.159806
C7    C     C_R   0.555886 0.521299 0.105099 0.183638
C8    C     C_2   0.449141 0.517934 0.981004 -0.195096
C9    C     C_2   0.564743 0.518983 0.020426 -0.235908
C10   C     C_R   0.531966 0.508846 0.266288 -0.023528
C11   C     C_R   0.375804 0.936691 0.500446 0.129293
C12   C     C_R   0.481576 0.498243 0.649839 0.833571
C13   C     C_R   0.497676 0.870370 0.510682 -0.161303
C14   C     C_R   0.615319 0.933561 0.534669 -0.326070
C15   C     C_R   0.618729 0.064036 0.534661 0.497871
C16   C     C_R   0.499399 0.128996 0.512087 -0.206777
C17   C     C_R   0.376670 0.063484 0.501101 0.075269
C18   C     C_3   0.278818 0.070336 0.437760 -0.467014
C19   C     C_3   0.278072 0.929936 0.437122 -0.461684
C20   C     C_R   0.930221 0.403826 0.467443 0.241913
C21   C     C_R   0.920093 0.586508 0.540491 -0.088560
C22   C     C_R   0.068887 0.585845 0.541065 -0.099267
C23   C     C_R   0.500029 0.262315 0.502773 0.840552
C24   C     C_R   0.077450 0.407265 0.464113 0.207617
C25   C     C_3   0.084825 0.367842 0.379940 0.022145
C26   C     C_3   0.926075 0.355165 0.387042 -0.508143
C27   C     C_R   0.518866 0.501697 0.350316 0.772943
C28   C     C_R   0.471545 0.496397 0.734390 -0.123129
C29   C     C_R   0.578899 0.442151 0.774415 0.475962
C30   C     C_R   0.568160 0.444419 0.855315 -0.236674
C31   C     C_R   0.456554 0.506644 0.896248 0.124206
C32   C     C_R   0.348927 0.557654 0.856091 -0.171279
Cu1   Cu    Cu3+1 0.359330 0.500020 0.500000 0.934892
Cu2   Cu    Cu3+1 0.640670 0.499980 0.500000 0.972858
H1    H     H_    0.731472 0.396151 0.111096 0.125591
H2    H     H_    0.704638 0.881422 0.551568 0.162937
H3    H     H_    0.175866 0.110997 0.458407 0.183046
H4    H     H_    0.328678 0.110857 0.383686 0.187468
H5    H     H_    0.174740 0.890090 0.457276 0.189733
H6    H     H_    0.327751 0.888556 0.382763 0.188699
H7    H     H_    0.860160 0.658133 0.571902 0.129705
H8    H     H_    0.120205 0.656713 0.573101 0.138140
H9    H     H_    0.363458 0.641293 0.260583 0.143548
H10   H     H_    0.139159 0.277993 0.368684 0.106913
H11   H     H_    0.870858 0.416641 0.348390 0.230426
H12   H     H_    0.890459 0.257477 0.386274 0.157490
H13   H     H_    0.709423 0.383830 0.252676 0.133899
H14   H     H_    0.668323 0.510539 0.990664 0.143386
H15   H     H_    0.260717 0.603789 0.887011 0.134955
H16   H     H_    0.381737 0.650675 0.119221 0.126251
H17   H     H_    0.272874 0.594267 0.745436 0.164241
H18   H     H_    0.346064 0.526656 0.011511 0.144444
H19   H     H_    0.646254 0.395744 0.885626 0.139346
N1    N     N_R   0.852130 0.499070 0.499500 -0.175706
N2    N     N_R   0.148040 0.499110 0.499500 -0.179568
O1    O     O_R   0.381190 0.680360 0.500000 -0.591126
O2    O     O_R   0.618770 0.680320 0.499990 -0.595229
O3    O     O_R   0.367430 0.500040 0.613600 -0.595826
O4    O     O_R   0.605020 0.500000 0.613590 -0.543328
O5    O     O_R   0.381230 0.319680 0.500010 -0.591361
O6    O     O_R   0.618810 0.319640 0.500000 -0.525059
O7    O     O_R   0.394980 0.500000 0.386410 -0.581050
O8    O     O_R   0.632570 0.499960 0.386400 -0.593691
O9    O     O_3   0.686227 0.376551 0.734414 -0.550413
C33   C     C_3   0.814422 0.438720 0.741497 -0.257730
H20   H     H_    0.849881 0.429907 0.800958 0.136052
H21   H     H_    0.807522 0.537973 0.725415 0.140816
H22   H     H_    0.895609 0.395181 0.700879 0.196951
O10   O     O_3   0.731609 0.129842 0.560522 -0.533601
C34   C     C_3   0.861407 0.082116 0.529126 -0.307686
H23   H     H_    0.942052 0.154958 0.533121 0.176181
H24   H     H_    0.859153 0.055970 0.466803 0.135988
H25   H     H_    0.894877 0.002726 0.563681 0.157423
N3    N     N_2   0.129942 0.461469 0.323248 -0.390510
H26   H     H_    0.221928 0.442751 0.290562 0.268288
C35   C     C_3   0.093919 0.591130 0.334958 -0.616503
H27   H     H_    0.101172 0.638347 0.278119 0.195598
H28   H     H_    0.168097 0.636361 0.372589 0.239973
H29   H     H_    0.985263 0.603165 0.360976 0.228329

loop_
_geom_bond_atom_site_label_1
_geom_bond_atom_site_label_2
_ccdc_geom_bond_type
C10   C27   S    
Cu1   N2    S    
Cu1   O3    S    
C35   H29   S    
C24   N2    A    
C5    H13   S    
C11   C19   S    
N3    C35   S    
C12   C28   S    
C5    C6    A    
C19   H5    S    
C28   C29   A    
C1    O1    A    
C35   H28   S    
C25   N3    S    
C3    C7    A    
C14   H2    S    
C30   C31   A    
C15   C16   A    
C6    H1    S    
C2    C32   A    
C18   C19   S    
C26   H11   S    
C12   O4    A    
C20   C24   A    
C8    C9    D    
C33   H21   S    
Cu2   O2    S    
C34   H23   S    
C8    H18   S    
C12   O3    A    
Cu1   O1    S    
C29   O9    S    
C21   C22   A    
C25   H10   S    
C3    H16   S    
C17   C18   S    
C23   O5    A    
C15   O10   S    
C30   H19   S    
N3    H26   S    
C24   C25   S    
C20   N1    A    
C2    H17   S    
C16   C17   A    
C25   C26   S    
Cu1   O7    S    
Cu2   O6    S    
C29   C30   A    
C27   O7    A    
C1    O2    A    
C31   C32   A    
C33   H22   S    
C34   H25   S    
Cu1   Cu2   S    
C35   H27   S    
C22   N2    A    
C27   O8    A    
C21   H7    S    
Cu2   N1    S    
C16   C23   S    
Cu2   O4    S    
C1    C13   S    
C4    C10   A    
C3    C4    A    
C7    C9    S    
C11   C17   A    
C8    C31   S    
C18   H3    S    
C2    C28   A    
C6    C7    A    
C4    H9    S    
Cu1   O5    S    
C21   N1    A    
O9    C33   S    
C18   H4    S    
C5    C10   A    
C11   C13   A    
C22   H8    S    
C20   C26   S    
Cu2   O8    S    
O10   C34   S    
C32   H15   S    
C19   H6    S    
C26   H12   S    
C23   O6    A    
C9    H14   S    
C33   H20   S    
C14   C15   A    
C34   H24   S    
C13   C14   A    
