data_mof_unit_52936.cif
_audit_creation_date              2012-12-10T17:08:44-0500
_audit_creation_method            fapswitch 2.2
_symmetry_space_group_name_H-M    P1
_symmetry_Int_Tables_number       1
_space_group_crystal_system       triclinic
_cell_length_a                    27.73777
_cell_length_b                    10.996926
_cell_length_c                    9.898158
_cell_angle_alpha                 111.465766
_cell_angle_beta                  95.672268
_cell_angle_gamma                 94.200896
_cell_volume                      2776.46708966

loop_
_atom_site_label
_atom_site_type_symbol
_atom_type_description
_atom_site_fract_x
_atom_site_fract_y
_atom_site_fract_z
_atom_type_partial_charge
C1    C     C_R   0.496598 0.253570 0.439438 0.730261
C2    C     C_R   0.505041 0.746771 0.560087 0.751094
C3    C     C_R   0.103200 0.508717 0.533461 -0.177138
C4    C     C_R   0.896854 0.488046 0.479345 -0.178330
C5    C     C_R   0.125871 0.399183 0.539524 -0.027717
C6    C     C_R   0.874206 0.597358 0.472483 -0.028192
C7    C     C_R   0.097592 0.292857 0.551645 0.422563
C8    C     C_R   0.902581 0.703828 0.460874 0.423063
C9    C     C_R   0.132179 0.622032 0.538445 -0.135040
C10   C     C_R   0.867831 0.374779 0.474285 -0.130711
C11   C     C_R   0.355088 0.502291 0.512235 -0.042848
C12   C     C_R   0.644558 0.496690 0.490206 -0.035631
C13   C     C_R   0.970903 0.379995 0.489789 -0.027317
C14   C     C_R   0.029174 0.616941 0.524053 -0.028030
C15   C     C_R   0.977297 0.607099 0.498814 0.076700
C16   C     C_R   0.022801 0.389800 0.514850 0.076796
C17   C     C_R   0.948508 0.492125 0.491041 -0.016116
C18   C     C_R   0.051566 0.504753 0.522463 -0.016270
C19   C     C_R   0.940532 0.259722 0.454900 0.361601
C20   C     C_R   0.059532 0.737225 0.558963 0.363084
C21   C     C_R   0.890268 0.260915 0.464179 0.317069
C22   C     C_R   0.109738 0.735966 0.548916 0.319535
C23   C     C_R   0.407721 0.500336 0.503498 0.801177
C24   C     C_R   0.592134 0.499402 0.496825 0.799235
C25   C     C_R   0.046966 0.292206 0.544773 -0.227430
C26   C     C_R   0.953211 0.704643 0.468603 -0.228012
C27   C     C_2   0.494892 0.111328 0.402938 0.203290
C28   C     C_2   0.511964 0.889362 0.593575 0.195211
C29   C     C_2   0.514418 0.069421 0.504632 -0.128010
C30   C     C_2   0.509064 0.930142 0.481300 -0.109515
C31   C     C_2   0.511896 0.464514 0.057856 0.138540
C32   C     C_2   0.495944 0.476009 0.912803 0.189092
C33   C     C_R   0.176605 0.401068 0.537090 0.583027
C34   C     C_R   0.823379 0.594903 0.472876 0.580709
C35   C     C_R   0.183170 0.620079 0.542232 0.578947
C36   C     C_R   0.816825 0.376772 0.470543 0.580208
C37   C     C_R   0.286867 0.515609 0.651148 -0.085328
C38   C     C_R   0.711321 0.409447 0.358492 -0.087437
C39   C     C_R   0.336728 0.513601 0.643249 -0.215084
C40   C     C_R   0.661394 0.412770 0.364222 -0.237456
C41   C     C_R   0.322670 0.493421 0.389602 -0.197250
C42   C     C_R   0.678173 0.575297 0.612144 -0.200870
C43   C     C_R   0.272900 0.496089 0.398043 -0.103958
C44   C     C_R   0.728074 0.571884 0.606624 -0.098776
C45   C     C_R   0.254878 0.507014 0.528621 0.338042
C46   C     C_R   0.744838 0.489311 0.479638 0.330578
Cu1   Cu    Cu3+1 0.508480 0.521810 0.644910 0.931406
Cu2   Cu    Cu3+1 0.491520 0.478190 0.355090 0.931521
H1    H     H_    0.335704 0.484916 0.287299 0.161381
H2    H     H_    0.665838 0.640011 0.711035 0.156900
H3    H     H_    0.550592 0.616182 0.931800 0.184626
H4    H     H_    0.444041 0.462697 0.108430 0.201654
H5    H     H_    0.248226 0.489324 0.303019 0.141748
H6    H     H_    0.753789 0.633251 0.700949 0.149944
H7    H     H_    0.635877 0.347658 0.272166 0.153115
H8    H     H_    0.360785 0.520933 0.739571 0.153250
H9    H     H_    0.723997 0.344570 0.260404 0.151836
H10   H     H_    0.273056 0.524346 0.752470 0.143136
H11   H     H_    0.027271 0.216888 0.570223 0.198131
H12   H     H_    0.972988 0.780030 0.443451 0.198093
H13   H     H_    0.500751 0.859731 0.369045 0.191452
H14   H     H_    0.533043 0.139183 0.608902 0.167433
N1    N     N_R   0.203618 0.509416 0.536264 -0.487975
N2    N     N_R   0.796277 0.486856 0.474314 -0.487650
N3    N     N_2   0.478780 0.445430 0.137360 -0.315139
N4    N     N_2   0.521220 0.554570 0.862640 -0.304121
O1    O     O_R   0.504520 0.332330 0.577400 -0.605290
O2    O     O_R   0.495480 0.667670 0.422600 -0.586227
O3    O     O_R   0.490210 0.295500 0.332650 -0.567300
O4    O     O_R   0.509790 0.704500 0.667350 -0.562340
O5    O     O_R   0.437420 0.518430 0.622370 -0.597642
O6    O     O_R   0.562580 0.481570 0.377630 -0.595596
O7    O     O_R   0.423110 0.481600 0.377610 -0.575831
O8    O     O_R   0.576890 0.518400 0.622390 -0.573534
O9    O     O_2   0.198970 0.295173 0.533353 -0.449181
O10   O     O_2   0.800867 0.699365 0.471916 -0.449336
O11   O     O_2   0.787637 0.270107 0.462674 -0.498522
O12   O     O_2   0.212571 0.727885 0.554423 -0.492717
O13   O     O_3   0.521830 0.980782 0.735957 -0.754830
H15   H     H_    0.521879 0.934415 0.804828 0.347490
O14   O     O_3   0.472474 0.021023 0.268633 -0.731994
H16   H     H_    0.457496 0.068817 0.210863 0.341837
C47   C     C_3   0.449829 0.382348 0.826707 -0.375457
C48   C     C_3   0.449993 0.240906 0.823646 -0.396448
C49   C     C_3   0.409005 0.146170 0.711916 -0.767560
H17   H     H_    0.373020 0.179244 0.738662 0.258332
H18   H     H_    0.413467 0.140704 0.599646 0.249518
H19   H     H_    0.410008 0.046171 0.714201 0.263646
H20   H     H_    0.485238 0.205085 0.795358 0.262989
H21   H     H_    0.445075 0.237306 0.931899 0.236385
H22   H     H_    0.417322 0.423947 0.874404 0.151009
H23   H     H_    0.443393 0.369650 0.713497 0.272632
C50   C     C_3   0.563765 0.433257 0.084861 -0.354569
C51   C     C_3   0.589711 0.380104 0.946953 -0.396661
C52   C     C_3   0.636529 0.324199 0.976666 -0.815780
H24   H     H_    0.662348 0.401496 0.063899 0.257100
H25   H     H_    0.628358 0.239266 0.009374 0.256831
H26   H     H_    0.654178 0.289466 0.875418 0.261809
H27   H     H_    0.565360 0.300886 0.857667 0.241490
H28   H     H_    0.600015 0.459727 0.908151 0.234194
H29   H     H_    0.586238 0.523004 0.165260 0.208573
H30   H     H_    0.561472 0.353562 0.128397 0.239974
O15   O     O_3   0.119879 0.192286 0.574682 -0.642545
H31   H     H_    0.094757 0.124483 0.577174 0.335415
O16   O     O_3   0.880411 0.804540 0.437751 -0.642071
H32   H     H_    0.905598 0.872500 0.435909 0.334699
O17   O     O_3   0.863890 0.147964 0.459031 -0.671061
H33   H     H_    0.850376 0.171521 0.553217 0.364667
O18   O     O_3   0.135962 0.848686 0.552799 -0.670446
H34   H     H_    0.150232 0.824071 0.459759 0.363873
O19   O     O_3   0.959936 0.141329 0.402504 -0.736158
H35   H     H_    0.933673 0.066572 0.364737 0.372103
O20   O     O_3   0.040166 0.855639 0.611864 -0.735907
H36   H     H_    0.066456 0.930330 0.649477 0.372338

loop_
_geom_bond_atom_site_label_1
_geom_bond_atom_site_label_2
_ccdc_geom_bond_type
C50   C51   S    
C27   C29   D    
C8    C26   A    
C14   C18   A    
C52   H24   S    
Cu2   O3    S    
C8    O16   S    
O14   H16   S    
C52   H26   S    
C49   H17   S    
C47   H23   S    
C48   H21   S    
C19   C21   A    
C23   O7    A    
C2    O2    A    
C36   O11   S    
C20   O20   S    
C9    C22   A    
C3    C18   A    
C31   N3    D    
Cu1   O1    S    
C28   O13   S    
C12   C42   A    
C43   H5    S    
Cu1   Cu2   S    
C5    C33   A    
O17   H33   S    
Cu2   N3    S    
Cu1   N4    S    
C37   H10   S    
C1    C27   S    
C22   O18   S    
C35   N1    A    
C7    O15   S    
C41   C43   A    
C42   C44   A    
Cu2   O6    S    
C41   H1    S    
C44   C46   A    
C49   H18   S    
C10   C21   A    
C13   C19   A    
C14   C20   A    
C27   O14   S    
C48   C49   S    
C4    C6    A    
C50   H29   S    
C5    C7    A    
C15   C26   A    
C6    C8    A    
C31   C50   S    
C45   N1    S    
C1    O3    A    
C6    C34   A    
C46   N2    S    
H3    N4    S    
C12   C40   A    
Cu1   O4    S    
C29   C30   S    
C3    C9    A    
C23   O5    A    
C38   H9    S    
C47   C48   S    
C51   H28   S    
C33   N1    A    
C40   H7    S    
C34   N2    A    
C39   H8    S    
Cu2   O2    S    
C11   C39   A    
C43   C45   A    
Cu1   O5    S    
C21   O17   S    
C42   H2    S    
C4    C17   A    
C20   C22   A    
C13   C16   A    
C33   O9    S    
C48   H20   S    
C37   C45   A    
C24   O6    A    
C32   N4    D    
O20   H36   S    
C49   H19   S    
C16   C25   A    
C15   C17   A    
C32   C47   S    
C29   H14   S    
O19   H35   S    
Cu2   O7    S    
C31   C32   S    
Cu1   O8    S    
C3    C5    A    
C50   H30   S    
C10   C36   A    
C52   H25   S    
C19   O19   S    
C47   H22   S    
O16   H32   S    
C12   C24   S    
C35   O12   S    
C7    C25   A    
C13   C17   A    
C28   C30   D    
C37   C39   A    
C36   N2    A    
O18   H34   S    
C38   C40   A    
C24   O8    A    
C26   H12   S    
C51   H27   S    
C11   C23   S    
C1    O1    A    
C11   C41   A    
C51   C52   S    
C38   C46   A    
O13   H15   S    
C44   H6    S    
C16   C18   A    
C30   H13   S    
O15   H31   S    
C9    C35   A    
C14   C15   A    
C2    C28   S    
C25   H11   S    
C2    O4    A    
C4    C10   A    
H4    N3    S    
C34   O10   S    
