data_mof_unit_25960.cif
_audit_creation_date              2012-12-10T17:02:45-0500
_audit_creation_method            fapswitch 2.2
_symmetry_space_group_name_H-M    P1
_symmetry_Int_Tables_number       1
_space_group_crystal_system       triclinic
_cell_length_a                    19.04664
_cell_length_b                    18.654766
_cell_length_c                    18.69383
_cell_angle_alpha                 108.737513
_cell_angle_beta                  109.595846
_cell_angle_gamma                 109.459241
_cell_volume                      5151.67079929

loop_
_atom_site_label
_atom_site_type_symbol
_atom_type_description
_atom_site_fract_x
_atom_site_fract_y
_atom_site_fract_z
_atom_type_partial_charge
C1    C     C_R   0.389119 0.381197 0.508266 0.912592
C2    C     C_3   0.810837 0.496955 0.804936 -0.063101
C3    C     C_3   0.846764 0.546959 0.761824 -0.314226
C4    C     C_3   0.772670 0.546250 0.849095 -0.503004
C5    C     C_R   0.355522 0.418467 0.661327 -0.060450
C6    C     C_R   0.336568 0.434157 0.728607 -0.220394
C7    C     C_R   0.269770 0.368554 0.723221 0.429474
C8    C     C_R   0.218623 0.287899 0.647595 -0.199359
C9    C     C_R   0.235778 0.270496 0.577538 0.031104
C10   C     C_R   0.307312 0.335864 0.585041 0.127893
C11   C     C_R   0.181690 0.189736 0.499403 -0.068590
C12   C     C_R   0.619050 0.499746 0.619720 0.806951
C13   C     C_R   0.201497 0.173693 0.431342 -0.064282
C14   C     C_R   0.286445 0.225181 0.453813 -0.065791
C15   C     C_R   0.330683 0.313719 0.518897 -0.077708
C16   C     C_R   0.144941 0.103684 0.344844 0.321798
C17   C     C_R   0.179600 0.070058 0.296468 -0.257132
C18   C     C_R   0.267947 0.106431 0.332151 -0.260798
C19   C     C_R   0.322623 0.183920 0.411464 0.416682
C20   C     C_R   0.247056 0.536171 0.405181 0.322446
C21   C     C_R   0.219500 0.595179 0.435885 0.331033
C22   C     C_R   0.176136 0.618999 0.379728 -0.253075
C23   C     C_R   0.618994 0.619360 0.500461 0.818051
C24   C     C_R   0.159780 0.584019 0.294459 -0.209795
C25   C     C_R   0.198119 0.535540 0.267966 0.043077
C26   C     C_R   0.253495 0.523446 0.328947 -0.084582
C27   C     C_R   0.180992 0.497261 0.181786 -0.062058
C28   C     C_R   0.228874 0.460287 0.159302 0.036188
C29   C     C_R   0.302962 0.473694 0.225918 -0.069447
C30   C     C_R   0.312011 0.499188 0.310991 -0.103347
C31   C     C_R   0.206126 0.412928 0.071736 -0.214887
C32   C     C_R   0.255994 0.379835 0.050780 -0.179370
C33   C     C_R   0.335798 0.404202 0.115915 0.295444
C34   C     C_R   0.380548 0.500145 0.379860 0.922775
C35   C     C_R   0.364271 0.461460 0.203344 0.317262
C36   C     C_R   0.622246 0.784301 0.520470 -0.133467
C37   C     C_R   0.630238 0.866627 0.542967 -0.229545
C38   C     C_R   0.703376 0.934552 0.559134 0.402135
C39   C     C_R   0.766193 0.918259 0.547837 -0.221093
C40   C     C_R   0.757938 0.834254 0.522149 -0.004548
C41   C     C_R   0.688547 0.767857 0.515143 0.088776
C42   C     C_R   0.817864 0.815906 0.503616 -0.123416
C43   C     C_R   0.816578 0.736393 0.489687 0.071630
C44   C     C_R   0.755834 0.675432 0.497160 0.010439
C45   C     C_3   0.669468 0.404520 0.661290 -0.293900
C46   C     C_R   0.688111 0.688143 0.503579 -0.111453
C47   C     C_R   0.875680 0.716717 0.469771 -0.221467
C48   C     C_R   0.879230 0.642115 0.464955 -0.173637
C49   C     C_R   0.825515 0.586441 0.481565 0.420416
C50   C     C_R   0.765476 0.603748 0.499059 -0.216078
C51   C     C_R   0.998977 0.381075 0.880451 0.794948
C52   C     C_R   0.878749 0.497214 0.874477 0.822539
C53   C     C_R   0.996932 0.619083 0.115737 0.756794
C54   C     C_R   0.115547 0.499055 0.115833 0.747751
C55   C     C_R   0.000759 0.882073 0.382154 0.749747
C56   C     C_3   0.736372 0.401615 0.733054 0.240711
C57   C     C_R   0.117538 0.117491 0.497395 0.742273
C58   C     C_R   0.998738 0.117648 0.617977 0.729457
C59   C     C_R   0.882482 0.880883 0.500024 0.731968
C60   C     C_R   0.996246 0.392286 0.728321 -0.110409
C61   C     C_R   0.009009 0.406012 0.663751 -0.190029
C62   C     C_R   0.024126 0.349749 0.609442 0.377804
C63   C     C_R   0.022120 0.277454 0.617090 -0.186804
C64   C     C_R   0.006459 0.260604 0.680451 0.056521
C65   C     C_R   0.000113 0.322452 0.741311 0.145085
C66   C     C_R   0.998008 0.184021 0.684516 -0.090576
C67   C     C_3   0.774720 0.550777 0.695977 -0.472198
C68   C     C_R   0.988813 0.171007 0.751990 0.114692
C69   C     C_R   0.994887 0.238509 0.820006 0.086147
C70   C     C_R   0.998250 0.313230 0.813229 -0.098882
C71   C     C_R   0.973859 0.091838 0.753390 -0.122125
C72   C     C_R   0.972513 0.082715 0.823975 -0.103947
C73   C     C_R   0.986347 0.151874 0.894589 -0.090731
C74   C     C_R   0.997523 0.228933 0.893082 -0.135411
C75   C     C_R   0.158057 0.772651 0.262113 -0.154482
C76   C     C_R   0.233608 0.851324 0.323096 -0.128150
C77   C     C_R   0.231142 0.921060 0.376227 -0.107128
C78   C     C_3   0.694226 0.539896 0.779944 0.306106
C79   C     C_R   0.153865 0.910778 0.371974 -0.151877
C80   C     C_R   0.076853 0.829988 0.313188 0.058890
C81   C     C_R   0.077376 0.762282 0.252147 0.068014
C82   C     C_R   0.000159 0.815238 0.315302 -0.153666
C83   C     C_R   0.922746 0.736398 0.253927 0.072509
C84   C     C_R   0.919786 0.674886 0.183646 0.013134
C85   C     C_R   0.997929 0.686525 0.184186 -0.159950
C86   C     C_R   0.847758 0.717560 0.261291 -0.220290
C87   C     C_R   0.770683 0.641775 0.198171 -0.165662
C88   C     C_R   0.765279 0.584616 0.124574 0.455248
C89   C     C_3   0.687148 0.498870 0.688408 -0.089163
C90   C     C_R   0.838302 0.602862 0.115581 -0.224341
Cu1   Cu    Cu3+1 0.500360 0.438220 0.438540 1.148688
Cu2   Cu    Cu3+1 0.499640 0.561780 0.561460 1.080259
Cu3   Cu    Cu3+1 0.935530 0.438290 0.997340 1.086747
Cu4   Cu    Cu3+1 0.059130 0.561800 0.997250 1.003078
Cu5   Cu    Cu3+1 0.937870 0.000030 0.437890 1.118338
Cu6   Cu    Cu3+1 0.062130 0.000000 0.562130 1.031297
H1    H     H_    0.822359 0.616111 0.893929 0.158677
H2    H     H_    0.790755 0.619807 0.716872 0.166161
H3    H     H_    0.898721 0.614684 0.812061 0.185537
H4    H     H_    0.293642 0.074273 0.297762 0.177555
H5    H     H_    0.411516 0.471882 0.674490 0.213792
H6    H     H_    0.376046 0.497450 0.786536 0.175400
H7    H     H_    0.138049 0.015584 0.230975 0.186798
H8    H     H_    0.119406 0.597629 0.250625 0.145145
H9    H     H_    0.148734 0.399334 0.018849 0.143862
H10   H     H_    0.234531 0.339648 0.983020 0.236441
H11   H     H_    0.579529 0.877432 0.548849 0.186533
H12   H     H_    0.822041 0.972467 0.560699 0.161499
H13   H     H_    0.987582 0.145571 0.950523 0.161569
H14   H     H_    0.982145 0.436701 0.766430 0.186914
H15   H     H_    0.034505 0.235883 0.573601 0.165710
H16   H     H_    0.962567 0.035856 0.700129 0.133926
H17   H     H_    0.008941 0.280335 0.950495 0.143174
H18   H     H_    0.165077 0.720515 0.224954 0.158331
H19   H     H_    0.771078 0.523705 0.631650 0.241320
H20   H     H_    0.847931 0.760050 0.316627 0.156212
H21   H     H_    0.714801 0.628222 0.206292 0.193344
H22   H     H_    0.875849 0.515845 0.729201 0.246255
H23   H     H_    0.705468 0.607280 0.798216 0.130261
O1    O     O_R   0.410140 0.357660 0.448100 -0.553876
O2    O     O_R   0.049980 0.462000 0.907580 -0.583509
O3    O     O_R   0.854480 0.447890 0.906670 -0.551162
O4    O     O_R   0.958860 0.552200 0.906600 -0.602122
O5    O     O_R   0.944670 0.538090 0.087010 -0.575531
O6    O     O_R   0.049050 0.642400 0.086940 -0.592141
O7    O     O_R   0.035800 0.447890 0.088000 -0.579494
O8    O     O_R   0.140170 0.552200 0.087920 -0.574909
O9    O     O_R   0.948030 0.909890 0.357850 -0.536359
O10   O     O_R   0.052970 0.909860 0.462770 -0.586449
O11   O     O_R   0.037700 0.090200 0.447550 -0.494677
O12   O     O_R   0.409530 0.462000 0.551910 -0.557387
O13   O     O_R   0.142640 0.090170 0.552470 -0.579646
O14   O     O_R   0.947030 0.090160 0.537260 -0.565496
O15   O     O_R   0.051970 0.090130 0.642170 -0.566357
O16   O     O_R   0.857360 0.909860 0.447560 -0.573902
O17   O     O_R   0.962300 0.909830 0.552480 -0.589229
O18   O     O_R   0.590960 0.447830 0.538760 -0.554423
O19   O     O_R   0.590350 0.552170 0.642570 -0.581526
O20   O     O_R   0.590470 0.538000 0.448090 -0.529462
O21   O     O_R   0.589860 0.642340 0.551900 -0.622248
O22   O     O_R   0.409650 0.447830 0.357430 -0.570067
O23   O     O_R   0.409040 0.552170 0.461240 -0.580170
O24   O     O_R   0.945600 0.357690 0.907660 -0.540415
H24   H     H_    0.669740 0.377282 0.599003 0.257574
S1    S     S_3+6 0.251738 0.387965 0.812462 0.019980
O25   O     O_2   0.199431 0.303342 0.806339 -0.281085
O26   O     O_2   0.336020 0.440123 0.895836 -0.226765
O27   O     O_3   0.198982 0.444407 0.813116 -0.519684
H25   H     H_    0.232970 0.495326 0.809775 0.357397
H26   H     H_    0.165620 0.239131 0.644431 0.153563
S2    S     S_3+6 0.039209 0.081698 0.284092 0.061209
O28   O     O_2   0.022972 0.149452 0.333830 -0.185459
O29   O     O_2   0.027315 0.083154 0.200992 -0.260817
O30   O     O_3   0.967801 0.982635 0.258472 -0.478038
H27   H     H_    0.983921 0.942260 0.228013 0.326216
H28   H     H_    0.605164 0.362460 0.648287 0.251150
S3    S     S_3+6 0.428762 0.206019 0.469866 0.020262
O31   O     O_2   0.487904 0.262760 0.450246 -0.280390
O32   O     O_2   0.458664 0.250250 0.565375 -0.242465
O33   O     O_3   0.431466 0.112159 0.442891 -0.507064
H29   H     H_    0.438772 0.099787 0.391018 0.357006
S4    S     S_3+6 0.399797 0.365233 0.085148 0.129669
O34   O     O_2   0.345137 0.285702 0.996659 -0.248385
O35   O     O_2   0.465559 0.434403 0.082085 -0.122589
O36   O     O_3   0.450084 0.339564 0.157454 -0.442378
H30   H     H_    0.403974 0.299504 0.161593 0.329881
S5    S     S_3+6 0.221861 0.447858 0.427104 0.077098
O37   O     O_2   0.238964 0.380699 0.377665 -0.364683
O38   O     O_2   0.271397 0.479693 0.522688 -0.195476
O39   O     O_3   0.116658 0.401079 0.394913 -0.418416
H31   H     H_    0.097164 0.338322 0.374103 0.417092
S6    S     S_3+6 0.235231 0.637693 0.542570 0.102493
O40   O     O_2   0.166441 0.572599 0.546320 -0.090915
O41   O     O_2   0.321315 0.656429 0.605742 -0.258054
O42   O     O_3   0.229910 0.730113 0.571106 -0.505305
H32   H     H_    0.278856 0.771557 0.571355 0.345726
H33   H     H_    0.150457 0.660494 0.400189 0.201250
S7    S     S_3+6 0.472446 0.546814 0.264948 0.042126
O43   O     O_2   0.488545 0.616346 0.346427 -0.380359
O44   O     O_2   0.532051 0.511469 0.286836 -0.221492
O45   O     O_3   0.492079 0.592070 0.204286 -0.463281
H34   H     H_    0.554273 0.634647 0.238904 0.376852
S8    S     S_3+6 0.833219 0.494494 0.479676 0.021100
O46   O     O_2   0.907304 0.522596 0.564618 -0.260368
O47   O     O_2   0.752458 0.427946 0.467118 -0.267989
O48   O     O_3   0.850881 0.450252 0.398367 -0.483807
H35   H     H_    0.800598 0.434188 0.344856 0.366285
H36   H     H_    0.704229 0.372441 0.764413 0.177698
H37   H     H_    0.562831 0.734803 0.506936 0.202199
S9    S     S_3+6 0.717021 0.040383 0.593932 0.060891
O49   O     O_2   0.767898 0.090756 0.691541 -0.213871
O50   O     O_2   0.765083 0.086271 0.558450 -0.273343
O51   O     O_3   0.621346 0.036205 0.561070 -0.442339
H38   H     H_    0.593170 0.006848 0.496772 0.352007
H39   H     H_    0.919968 0.758515 0.457885 0.163039
H40   H     H_    0.925422 0.628931 0.450260 0.199569
H41   H     H_    0.728236 0.561420 0.515865 0.163669
H42   H     H_    0.008044 0.461228 0.657010 0.216512
S10   S     S_3+6 0.766264 0.326151 0.681961 0.030557
O52   O     O_2   0.824537 0.313701 0.747736 -0.276285
O53   O     O_2   0.685978 0.239860 0.617227 -0.165633
O54   O     O_3   0.813563 0.360503 0.628959 -0.550175
H43   H     H_    0.812066 0.308804 0.589779 0.398465
S11   S     S_3+6 0.047142 0.369710 0.532267 0.078199
O55   O     O_2   0.142776 0.417964 0.571397 -0.190776
O56   O     O_2   0.010247 0.285029 0.452495 -0.254471
O57   O     O_3   0.006381 0.430086 0.504899 -0.397282
H44   H     H_    0.943618 0.392892 0.477235 0.394859
H45   H     H_    0.961895 0.022134 0.824352 0.146907
S12   S     S_3+6 0.667440 0.488197 0.045958 0.078730
O58   O     O_2   0.679762 0.428108 0.981550 -0.243631
O59   O     O_2   0.633543 0.443628 0.090706 -0.206777
O60   O     O_3   0.596759 0.513713 0.994236 -0.471329
H46   H     H_    0.542340 0.457695 0.954424 0.409693
H47   H     H_    0.294256 0.858277 0.328727 0.160435
H48   H     H_    0.289523 0.982736 0.422361 0.201788
H49   H     H_    0.155516 0.966814 0.415405 0.143226
H50   H     H_    0.829699 0.560067 0.054809 0.182857
S13   S     S_3+6 0.597824 0.482231 0.782106 0.003822
O61   O     O_2   0.521583 0.429932 0.692438 -0.346724
O62   O     O_2   0.604761 0.421071 0.816781 -0.224390
O63   O     O_3   0.583230 0.555910 0.846274 -0.495091
H51   H     H_    0.528276 0.521410 0.842096 0.380263
H52   H     H_    0.756482 0.521774 0.891452 0.235124

loop_
_geom_bond_atom_site_label_1
_geom_bond_atom_site_label_2
_ccdc_geom_bond_type
C8    C9    A    
C66   C68   A    
C87   C88   A    
C34   O22   A    
O36   H30   S    
C73   C74   A    
C57   O13   A    
C8    H26   S    
Cu5   Cu6   S    
Cu3   O5    S    
Cu5   O14   S    
C75   C76   A    
Cu2   O19   S    
S1    O25   D    
C27   C54   S    
C7    C8    A    
S5    O38   D    
Cu4   O8    S    
C58   O15   A    
O51   H38   S    
C54   O7    A    
Cu3   Cu4   S    
C18   H4    S    
C47   H39   S    
C28   C29   A    
C37   C38   A    
C37   H11   S    
C2    C3    S    
C10   C15   A    
S8    O47   D    
S12   O58   D    
C5    C6    A    
C52   O4    A    
C79   H49   S    
O39   H31   S    
C44   C50   A    
C65   C70   A    
S10   O54   S    
C59   O17   A    
C67   C89   S    
C3    C67   S    
C86   H20   S    
C18   C19   A    
S2    O30   S    
C67   H19   S    
Cu3   O7    S    
C67   H2    S    
C49   S8    S    
C52   O3    A    
C84   C85   A    
C58   C66   S    
S3    O31   D    
C34   O23   A    
C83   C84   A    
C45   C56   S    
C44   C46   A    
C68   C69   A    
C55   O10   A    
C45   H24   S    
S2    O28   D    
C1    C15   S    
C51   C70   S    
Cu2   O23   S    
C9    C10   A    
S9    O51   S    
S6    O42   S    
Cu6   O13   S    
C56   S10   S    
Cu4   O4    S    
C35   S7    S    
C40   C42   A    
S10   O52   D    
S3    O32   D    
C23   C46   S    
C32   H10   S    
C13   C14   A    
C48   H40   S    
S2    O29   D    
C31   H9    S    
C36   C41   A    
C61   C62   A    
C84   C90   A    
Cu1   O1    S    
C22   H33   S    
Cu5   O9    S    
S1    O26   D    
C50   H41   S    
S6    O41   D    
S7    O43   D    
S5    O39   S    
S4    O35   D    
C76   C77   A    
C77   C79   A    
C78   C89   S    
C39   H12   S    
C5    H5    S    
O54   H43   S    
C30   C34   S    
C63   C64   A    
O57   H44   S    
C19   S3    S    
C47   C48   A    
C56   H36   S    
C57   O11   A    
Cu2   O12   S    
C24   C25   A    
C72   C73   A    
Cu6   O17   S    
S8    O48   S    
Cu1   Cu2   S    
C45   H28   S    
C86   C87   A    
C16   C17   A    
Cu6   O15   S    
C38   S9    S    
C25   C26   A    
O45   H34   S    
C74   H17   S    
C36   H37   S    
C60   C61   A    
C24   H8    S    
C1    O1    A    
C64   C66   A    
C61   H42   S    
C2    C4    S    
C43   C44   A    
S8    O46   D    
C4    C78   S    
C29   C30   A    
Cu5   O11   S    
C3    H22   S    
C4    H1    S    
C78   S13   S    
S13   O62   D    
S4    O36   S    
C12   C89   S    
C31   C32   A    
S11   O57   S    
O60   H46   S    
C41   C46   A    
C71   H16   S    
C20   C21   A    
C62   C63   A    
Cu5   O16   S    
C17   C18   A    
C69   C74   A    
C75   H18   S    
C11   C57   S    
S11   O55   D    
C55   C82   S    
C23   O21   A    
C9    C11   A    
C62   S11   S    
O30   H27   S    
C53   O6    A    
Cu1   O20   S    
C80   C82   A    
C40   C41   A    
S11   O56   D    
C60   C65   A    
C49   C50   A    
S3    O33   S    
S12   O59   D    
C51   O2    A    
C22   C24   A    
S9    O49   D    
C42   C43   A    
Cu2   O21   S    
S5    O37   D    
S1    O27   S    
C45   C89   S    
S6    O40   D    
S4    O34   D    
Cu4   O6    S    
C23   O20   A    
S13   O61   D    
C20   S5    S    
Cu1   O18   S    
C36   C37   A    
S9    O50   D    
C12   O18   A    
C14   C19   A    
C28   C31   A    
C75   C81   A    
C88   C90   A    
C80   C81   A    
C1    O12   A    
C53   O5    A    
Cu3   O24   S    
C42   C59   S    
S7    O44   D    
C58   O14   A    
C73   H13   S    
C6    C7    A    
C51   O24   A    
C25   C27   A    
S12   O60   S    
C54   O8    A    
C29   C35   A    
C2    C52   S    
C32   C33   A    
C53   C85   S    
C78   H23   S    
C17   H7    S    
C5    C10   A    
O42   H32   S    
C4    H52   S    
C64   C65   A    
S13   O63   S    
C11   C13   A    
C76   H47   S    
C38   C39   A    
C20   C26   A    
C68   C71   A    
C48   C49   A    
C59   O16   A    
C33   C35   A    
C33   S4    S    
C16   S2    S    
C12   O19   A    
O27   H25   S    
C6    H6    S    
C87   H21   S    
C63   H15   S    
C69   C70   A    
O63   H51   S    
O33   H29   S    
C90   H50   S    
S7    O45   S    
C60   H14   S    
C79   C80   A    
C39   C40   A    
Cu4   O2    S    
C3    H3    S    
C71   C72   A    
C83   C86   A    
C55   O9    A    
C88   S12   S    
C82   C83   A    
C13   C16   A    
C27   C28   A    
S10   O53   D    
C14   C15   A    
C2    C56   S    
C7    S1    S    
O48   H35   S    
C21   C22   A    
C43   C47   A    
Cu3   O3    S    
C21   S6    S    
C81   C85   A    
C72   H45   S    
C77   H48   S    
Cu6   O10   S    
Cu1   O22   S    
C26   C30   A    
