data_mof_unit_22642.cif
_audit_creation_date              2012-12-11T14:41:15-0500
_audit_creation_method            fapswitch 2.2
_symmetry_space_group_name_H-M    P1
_symmetry_Int_Tables_number       1
_space_group_crystal_system       triclinic
_cell_length_a                    6.932155
_cell_length_b                    17.757209
_cell_length_c                    18.998625
_cell_angle_alpha                 89.941848
_cell_angle_beta                  91.199691
_cell_angle_gamma                 91.537587
_cell_volume                      2337.29476494

loop_
_atom_site_label
_atom_site_type_symbol
_atom_type_description
_atom_site_fract_x
_atom_site_fract_y
_atom_site_fract_z
_atom_type_partial_charge
O1    O     O_R   0.377350 0.828520 0.186660 -0.540807
O2    O     O_R   0.622650 0.171480 0.813340 -0.539204
O3    O     O_R   0.122650 0.171480 0.686660 -0.541271
O4    O     O_R   0.877350 0.828520 0.313340 -0.539830
O5    O     O_R   0.877350 0.671480 0.313340 -0.539337
O6    O     O_R   0.122650 0.328520 0.686660 -0.539524
O7    O     O_R   0.622650 0.328520 0.813340 -0.540519
O8    O     O_R   0.377350 0.671480 0.186660 -0.540764
O9    O     O_R   0.707090 0.671930 0.178410 -0.539834
O10   O     O_R   0.292910 0.328070 0.821590 -0.539635
O11   O     O_R   0.792910 0.328070 0.678410 -0.539996
O12   O     O_R   0.207090 0.671930 0.321590 -0.539614
O13   O     O_R   0.207090 0.828070 0.321590 -0.539931
O14   O     O_R   0.792910 0.171930 0.678410 -0.540432
O15   O     O_R   0.292910 0.171930 0.821590 -0.540038
O16   O     O_R   0.707090 0.828070 0.178410 -0.540486
C1    C     C_R   0.533814 0.645608 0.161614 0.727710
C2    C     C_R   0.466179 0.354419 0.838360 0.728545
C3    C     C_R   0.960688 0.354513 0.661482 0.726116
C4    C     C_R   0.039306 0.645442 0.338473 0.727287
C5    C     C_R   0.042173 0.854108 0.339158 0.723957
C6    C     C_R   0.957770 0.145852 0.660859 0.723195
C7    C     C_R   0.459573 0.145575 0.838558 0.725054
C8    C     C_R   0.540497 0.854510 0.161503 0.724066
O17   O     O_3   0.543850 0.750000 0.294270 -0.367686
O18   O     O_3   0.456150 0.250000 0.705730 -0.369117
O19   O     O_3   0.956150 0.250000 0.794270 -0.366970
O20   O     O_3   0.043850 0.750000 0.205730 -0.368407
V1    V     V_3+5 0.818700 0.750000 0.241790 1.411713
V2    V     V_3+5 0.181300 0.250000 0.758210 1.412440
V3    V     V_3+5 0.681300 0.250000 0.741790 1.414138
V4    V     V_3+5 0.318700 0.750000 0.258210 1.414587
C9    C     C_R   0.958251 0.416118 0.608191 -0.160426
C10   C     C_R   0.041651 0.583755 0.391688 -0.161332
C11   C     C_R   0.503354 0.584480 0.108602 -0.161713
C12   C     C_R   0.496602 0.415594 0.891330 -0.161982
C13   C     C_R   0.455299 0.084174 0.892129 -0.167958
C14   C     C_R   0.545300 0.916253 0.108204 -0.153339
C15   C     C_R   0.048404 0.914788 0.393637 -0.169416
C16   C     C_R   0.951018 0.084896 0.606586 -0.153297
C17   C     C_R   0.224172 0.484231 0.450411 0.535646
C18   C     C_R   0.775365 0.515471 0.549321 0.533566
C19   C     C_R   0.717944 0.510469 0.944884 0.525585
C20   C     C_R   0.281890 0.489676 0.054993 0.524420
C21   C     C_R   0.736038 0.015893 0.048650 0.534094
C22   C     C_R   0.267197 0.984941 0.951721 0.534932
C23   C     C_R   0.764585 0.983408 0.545316 0.538065
C24   C     C_R   0.232097 0.015922 0.454848 0.537649
C25   C     C_R   0.204386 0.538084 0.396827 -0.234588
C26   C     C_R   0.795271 0.461643 0.602939 -0.235239
C27   C     C_R   0.672225 0.457512 0.892041 -0.245918
C28   C     C_R   0.327647 0.542623 0.107847 -0.246338
C29   C     C_R   0.714799 0.961205 0.102298 -0.248253
C30   C     C_R   0.286817 0.038748 0.898025 -0.231523
C31   C     C_R   0.782907 0.039226 0.598414 -0.240944
C32   C     C_R   0.215316 0.961057 0.401672 -0.223142
C33   C     C_R   0.896322 0.574455 0.441433 -0.196482
C34   C     C_R   0.103553 0.425403 0.558437 -0.198499
C35   C     C_R   0.364590 0.428106 0.944651 -0.184488
C36   C     C_R   0.635355 0.571981 0.055275 -0.185950
C37   C     C_R   0.394347 0.926145 0.059231 -0.218835
C38   C     C_R   0.606316 0.074796 0.941335 -0.191231
C39   C     C_R   0.102355 0.075254 0.559844 -0.223812
C40   C     C_R   0.897041 0.923905 0.440631 -0.196154
C41   C     C_R   0.916675 0.522380 0.497398 -0.012368
C42   C     C_R   0.083036 0.477392 0.502411 -0.013026
C43   C     C_R   0.410386 0.479562 0.999664 -0.010999
C44   C     C_R   0.589501 0.520561 0.000237 -0.011296
C45   C     C_R   0.414790 0.978038 0.003202 -0.019672
C46   C     C_R   0.587100 0.022758 0.997536 -0.004109
C47   C     C_R   0.084122 0.022636 0.504071 -0.025000
C48   C     C_R   0.913932 0.976732 0.496501 -0.006378
H1    H     H_    0.228043 0.389855 0.561788 0.174492
H2    H     H_    0.771942 0.610064 0.438128 0.175273
H3    H     H_    0.769787 0.604551 0.055240 0.178321
H4    H     H_    0.230197 0.395510 0.944706 0.178885
H5    H     H_    0.735091 0.110336 0.937249 0.178980
H6    H     H_    0.264793 0.891000 0.063127 0.176336
H7    H     H_    0.769112 0.887859 0.434884 0.178697
H8    H     H_    0.231164 0.110846 0.565466 0.176109
H9    H     H_    0.680049 0.454848 0.640280 0.138374
H10   H     H_    0.319419 0.544713 0.359384 0.138765
H11   H     H_    0.222255 0.551728 0.148074 0.141029
H12   H     H_    0.777559 0.448465 0.851780 0.141099
H13   H     H_    0.167337 0.045476 0.861065 0.139444
H14   H     H_    0.833039 0.952274 0.139130 0.131054
H15   H     H_    0.334726 0.954755 0.366443 0.139988
H16   H     H_    0.664384 0.047950 0.633346 0.131124
O21   O     O_3   0.389843 0.442639 0.455087 -0.535456
C49   C     C_3   0.375094 0.383821 0.405344 -0.299376
H17   H     H_    0.373768 0.406057 0.350570 0.129371
H18   H     H_    0.245058 0.347062 0.414126 0.124998
H19   H     H_    0.503526 0.348286 0.411666 0.168445
O22   O     O_3   0.609303 0.556829 0.544343 -0.536285
C50   C     C_3   0.620085 0.614375 0.595430 -0.292496
H20   H     H_    0.751016 0.651262 0.588884 0.127859
H21   H     H_    0.616614 0.590786 0.649667 0.127645
H22   H     H_    0.492280 0.650129 0.588452 0.170412
O23   O     O_3   0.895970 0.547625 0.945517 -0.534277
C51   C     C_3   0.891768 0.605930 0.895156 -0.294456
H23   H     H_    0.774470 0.645823 0.905673 0.124627
H24   H     H_    0.876506 0.583097 0.840759 0.128357
H25   H     H_    0.030761 0.638293 0.898662 0.167786
O24   O     O_3   0.103752 0.452593 0.054267 -0.534750
C52   C     C_3   0.106806 0.394797 0.105154 -0.289246
H26   H     H_    0.120565 0.418167 0.159384 0.127046
H27   H     H_    0.224498 0.354839 0.095416 0.125853
H28   H     H_    0.967953 0.362363 0.101447 0.170572
O25   O     O_3   0.905963 0.058551 0.040413 -0.540755
C53   C     C_3   0.988689 0.082690 0.105338 -0.271444
H29   H     H_    0.079631 0.038056 0.128502 0.147207
H30   H     H_    0.878248 0.100800 0.143119 0.112100
H31   H     H_    0.085337 0.132187 0.095381 0.161040
O26   O     O_3   0.096497 0.943346 0.957072 -0.536076
C54   C     C_3   0.093794 0.885488 0.906295 -0.296903
H32   H     H_    0.220837 0.848828 0.912942 0.126733
H33   H     H_    0.086790 0.908754 0.851935 0.128292
H34   H     H_    0.962263 0.849584 0.913564 0.167835
O27   O     O_3   0.597286 0.938967 0.535509 -0.542574
C55   C     C_3   0.517353 0.915020 0.599755 -0.273985
H35   H     H_    0.424163 0.959091 0.621145 0.149108
H36   H     H_    0.629755 0.898498 0.639174 0.111483
H37   H     H_    0.423445 0.864534 0.589309 0.161264
O28   O     O_3   0.400091 0.059339 0.461645 -0.537555
C56   C     C_3   0.395247 0.117449 0.411109 -0.300029
H38   H     H_    0.266808 0.153003 0.417482 0.126536
H39   H     H_    0.398592 0.094557 0.356673 0.128831
H40   H     H_    0.525566 0.154356 0.418971 0.168642

loop_
_geom_bond_atom_site_label_1
_geom_bond_atom_site_label_2
_ccdc_geom_bond_type
C33   H2    S    
C17   O21   S    
C9    C34   A    
C28   H11   S    
C38   H5    S    
C50   H20   S    
O14   V3    S    
C12   C35   A    
C19   C27   A    
C13   C38   A    
C20   O24   S    
C50   H22   S    
O5    C4    A    
C15   C40   A    
C52   H27   S    
O11   C3    A    
C16   C39   A    
C49   H19   S    
O20   V1    S    
C19   O23   S    
C21   O25   S    
C54   H32   S    
C38   C46   A    
C31   H16   S    
C53   H29   S    
C22   C45   A    
O13   V4    S    
C35   C43   A    
C34   C42   A    
C15   C32   A    
C19   C44   A    
C54   H33   S    
C18   C41   A    
C8    C14   S    
C29   H14   S    
O4    V1    S    
C55   H37   S    
O9    V1    S    
C14   C37   A    
C4    C10   S    
C54   H34   S    
O17   V4    S    
O15   C7    A    
O11   V3    S    
O18   V3    S    
O16   C8    A    
O12   V4    S    
O19   V2    S    
C22   C30   A    
C45   C46   A    
C17   C25   A    
O24   C52   S    
C55   H36   S    
O26   C54   S    
O5    V1    S    
C39   H8    S    
O17   V1    S    
C52   H28   S    
O7    V3    S    
C22   O26   S    
O19   V3    S    
C43   C44   A    
O8    V4    S    
O20   V4    S    
C3    C9    S    
C32   H15   S    
C9    C26   A    
C7    C13   S    
C51   H25   S    
C11   C36   A    
C25   H10   S    
O3    V2    S    
O6    C3    A    
C56   H40   S    
O10   V2    S    
C49   H18   S    
O23   C51   S    
C5    C15   S    
C37   H6    S    
O7    C2    A    
C6    C16   S    
O12   C4    A    
C51   H24   S    
O13   C5    A    
C53   H31   S    
C12   C27   A    
C18   C26   A    
C13   C30   A    
O9    C1    A    
O6    V2    S    
C39   C47   A    
O18   V2    S    
C56   H38   S    
C40   H7    S    
C24   C47   A    
O2    C7    A    
C55   H35   S    
O15   V2    S    
C23   C31   A    
C26   H9    S    
C37   C45   A    
C24   C32   A    
C10   C25   A    
C21   C46   A    
C18   O22   S    
C33   C41   A    
C20   C43   A    
C16   C31   A    
C24   O28   S    
C30   H13   S    
O27   C55   S    
C50   H21   S    
C17   C42   A    
C52   H26   S    
C36   H3    S    
O8    C1    A    
O14   C6    A    
O16   V1    S    
C47   C48   A    
O25   C53   S    
O4    C5    A    
C20   C28   A    
C49   H17   S    
C14   C29   A    
O10   C2    A    
C10   C33   A    
C35   H4    S    
C23   O27   S    
C51   H23   S    
O1    V4    S    
O22   C50   S    
C53   H30   S    
C23   C48   A    
C40   C48   A    
C21   C29   A    
C36   C44   A    
O1    C8    A    
C41   C42   A    
C11   C28   A    
C56   H39   S    
O2    V3    S    
O3    C6    A    
C1    C11   S    
O21   C49   S    
C2    C12   S    
C27   H12   S    
C34   H1    S    
O28   C56   S    
