data_mof_unit_6072.cif
_audit_creation_date              2012-12-11T18:09:16-0500
_audit_creation_method            fapswitch 2.2
_symmetry_space_group_name_H-M    P1
_symmetry_Int_Tables_number       1
_space_group_crystal_system       triclinic
_cell_length_a                    8.265363
_cell_length_b                    12.659166
_cell_length_c                    19.066167
_cell_angle_alpha                 99.477195
_cell_angle_beta                  91.326535
_cell_angle_gamma                 98.635897
_cell_volume                      1943.05940841

loop_
_atom_site_label
_atom_site_type_symbol
_atom_type_description
_atom_site_fract_x
_atom_site_fract_y
_atom_site_fract_z
_atom_type_partial_charge
Ba1   Ba    Ba6+2 0.853180 0.547790 0.465300 1.688812
Ba2   Ba    Ba6+2 0.336650 0.452300 0.534710 1.668834
C1    C     C_3   0.751975 0.885162 0.205319 -0.296480
C2    C     C_R   0.016093 0.543799 0.726934 0.049549
C3    C     C_R   0.851175 0.409051 0.811602 -0.144662
C4    C     C_3   0.228194 0.838417 0.281382 0.308149
C5    C     C_R   0.782661 0.415910 0.745038 0.035300
C6    C     C_R   0.337343 0.588775 0.188376 -0.148789
C7    C     C_R   0.409102 0.573720 0.252740 -0.024606
C8    C     C_R   0.121454 0.441932 0.197919 -0.141057
C9    C     C_R   0.168479 0.453125 0.271036 0.057725
C10   C     C_R   0.978102 0.490862 0.845730 0.007977
C11   C     C_R   0.876222 0.472524 0.700020 -0.214581
C12   C     C_3   0.669793 0.807014 0.251228 0.473155
C13   C     C_R   0.201580 0.514691 0.154440 0.014918
C14   C     C_R   0.319444 0.510800 0.295133 -0.239232
C15   C     C_R   0.754462 0.429216 0.962111 -0.082930
C16   C     C_3   0.189061 0.841841 0.203520 -0.338771
C17   C     C_R   0.653455 0.387076 0.011723 0.163044
C18   C     C_R   0.702495 0.416006 0.083283 -0.072995
C19   C     C_R   0.856200 0.476189 0.102479 -0.116495
C20   C     C_R   0.977220 0.486141 0.052282 0.014637
C21   C     C_R   0.923122 0.470661 0.978551 0.014378
C22   C     C_R   0.145936 0.514047 0.075564 0.004039
C23   C     C_3   0.463621 0.273485 0.316940 0.297497
C24   C     C_R   0.258999 0.538255 0.022024 0.032973
C25   C     C_R   0.204447 0.530442 0.948702 -0.049484
C26   C     C_R   0.035175 0.497405 0.925023 -0.000721
C27   C     C_R   0.429700 0.567630 0.038425 -0.140930
C28   C     C_3   0.237734 0.788452 0.617766 0.268307
C29   C     C_R   0.536727 0.608834 0.991188 -0.144928
C30   C     C_R   0.486372 0.597443 0.920159 0.413888
C31   C     C_R   0.326194 0.549893 0.899379 -0.074915
C32   C     C_R   0.762820 0.183346 0.528646 -0.279564
C33   C     C_R   0.432532 0.806747 0.468802 0.131200
C34   C     C_3   0.444513 0.237799 0.236046 -0.124116
C35   C     C_R   0.399340 0.985536 0.449188 -0.138704
C36   C     C_R   0.338056 0.876231 0.443277 -0.085244
C37   C     C_R   0.577620 0.848668 0.509581 0.074165
C38   C     C_R   0.640225 0.961252 0.518145 -0.113814
C39   C     C_R   0.551369 0.029385 0.485266 -0.047998
C40   C     C_3   0.244783 0.910599 0.630697 -0.357566
C41   C     C_R   0.615607 0.140104 0.490295 0.056120
C42   C     C_R   0.854137 0.117230 0.558804 -0.009613
C43   C     C_R   0.791129 0.007478 0.555852 -0.086932
C44   C     C_3   0.956580 0.212125 0.382216 0.277229
C45   C     C_3   0.070255 0.225640 0.730219 0.365336
C46   C     C_3   0.917105 0.089607 0.364685 -0.387382
C47   C     C_3   0.777234 0.737343 0.684122 0.386542
C48   C     C_3   0.869655 0.814568 0.747209 -0.298123
C49   C     C_3   0.097997 0.194394 0.802784 -0.358368
C50   C     C_3   0.564910 0.161411 0.694628 0.346554
C51   C     C_3   0.614749 0.085469 0.742439 -0.403150
C52   C     C_R   0.049264 0.565451 0.801616 -0.144950
H1    H     H_    0.313135 0.946643 0.681744 0.128301
H2    H     H_    0.878158 0.918943 0.226702 0.132280
H3    H     H_    0.950723 0.880983 0.728148 0.105215
H4    H     H_    0.945326 0.770517 0.777552 0.084502
H5    H     H_    0.782115 0.851116 0.783507 0.111488
H6    H     H_    0.541117 0.785614 0.230917 -0.054080
H7    H     H_    0.681322 0.953057 0.204763 0.069249
H8    H     H_    0.345228 0.295153 0.336080 -0.014343
H9    H     H_    0.560049 0.346029 0.329235 0.072724
H10   H     H_    0.404538 0.303803 0.211349 0.051006
H11   H     H_    0.347976 0.165340 0.222935 0.113756
H12   H     H_    0.306419 0.945984 0.587213 0.070269
H13   H     H_    0.756637 0.842418 0.149804 0.089204
H14   H     H_    0.153250 0.921307 0.198188 0.101957
H15   H     H_    0.145215 0.306021 0.729243 0.075995
H16   H     H_    0.938494 0.230702 0.722830 -0.078929
H17   H     H_    0.228607 0.186819 0.811704 0.161650
H18   H     H_    0.065224 0.257388 0.845411 0.068430
H19   H     H_    0.020820 0.115654 0.805837 0.105428
H20   H     H_    0.676864 0.195688 0.670028 -0.083550
H21   H     H_    0.479885 0.114273 0.650847 0.067570
H22   H     H_    0.706591 0.131064 0.784185 0.109094
H23   H     H_    0.118916 0.930749 0.633120 0.131974
H24   H     H_    0.669308 0.019458 0.710369 0.096756
H25   H     H_    0.272453 0.760830 0.284758 -0.035469
H26   H     H_    0.506645 0.049566 0.768793 0.132064
H27   H     H_    0.137156 0.636037 0.823576 0.063060
H28   H     H_    0.801777 0.340605 0.835816 0.057656
H29   H     H_    0.392000 0.654587 0.163459 0.056633
H30   H     H_    0.020340 0.379405 0.176908 0.067428
H31   H     H_    0.834452 0.466349 0.645086 0.056110
H32   H     H_    0.370123 0.503546 0.346653 0.072326
H33   H     H_    0.691633 0.434049 0.913430 0.097232
H34   H     H_    0.846311 0.245240 0.401353 0.008077
H35   H     H_    0.618707 0.397263 0.123851 0.098967
H36   H     H_    0.326441 0.907523 0.301704 0.004699
H37   H     H_    0.882317 0.512665 0.157119 0.143626
H38   H     H_    0.488885 0.552535 0.085300 0.091298
H39   H     H_    0.663916 0.637499 0.008318 0.068189
H40   H     H_    0.301310 0.525852 0.843725 0.139267
H41   H     H_    0.324846 0.034725 0.425673 0.115374
H42   H     H_    0.863533 0.959642 0.581584 0.095558
H43   H     H_    0.811989 0.268183 0.531240 0.055415
H44   H     H_    0.298820 0.831905 0.172162 0.064470
H45   H     H_    0.056098 0.234317 0.424374 0.082721
H46   H     H_    0.087935 0.775519 0.181724 0.139795
H47   H     H_    0.361522 0.768824 0.607715 0.043257
H48   H     H_    0.153879 0.754352 0.570459 0.090940
H49   H     H_    0.581852 0.821202 0.350631 0.100918
H50   H     H_    0.785236 0.855896 0.350326 0.244056
H51   H     H_    0.619383 0.595036 0.666667 0.202055
H52   H     H_    0.577000 0.684009 0.737375 0.238688
H53   H     H_    0.688703 0.280236 0.219027 0.208777
H54   H     H_    0.634903 0.149411 0.228225 0.209215
H55   H     H_    0.429447 0.308012 0.032999 0.174897
H56   H     H_    0.809496 0.066695 0.326461 0.132908
H57   H     H_    0.430448 0.365441 0.959613 0.175995
H58   H     H_    0.702995 0.653778 0.892296 0.291084
H59   H     H_    0.366000 0.679063 0.401741 0.270452
H60   H     H_    0.888664 0.054943 0.413362 0.099372
H61   H     H_    0.023598 0.055897 0.340706 0.142705
H62   H     H_    0.868006 0.701787 0.649786 0.043203
N1    N     N_3   0.674920 0.862250 0.324962 -0.513339
N2    N     N_3   0.671804 0.651175 0.710601 -0.490075
N3    N     N_3   0.597811 0.212343 0.205705 -0.491883
N4    N     N_3   0.497154 0.322385 0.988924 -0.491910
O1    O     O_2   0.875110 0.423180 0.326290 -0.455702
O2    O     O_2   0.186430 0.122028 0.545162 -0.476026
O3    O     O_3   0.116769 0.146580 0.677417 -0.595243
O4    O     O_3   0.123410 0.433040 0.414950 -0.477527
O5    O     O_3   0.577950 0.634370 0.536140 -0.421301
O6    O     O_2   0.341900 0.231310 0.465740 -0.465648
O7    O     O_3   0.504743 0.188096 0.348781 -0.656101
O8    O     O_2   0.456734 0.445588 0.758491 -0.461886
O9    O     O_3   0.483330 0.239229 0.734722 -0.587610
O10   O     O_3   0.661010 0.625070 0.369680 -0.444111
O11   O     O_2   0.703877 0.508356 0.249871 -0.502703
O12   O     O_3   0.681503 0.796415 0.648494 -0.662064
O13   O     O_3   0.004619 0.250700 0.320197 -0.645022
O14   O     O_3   0.750483 0.715315 0.245002 -0.574882
O15   O     O_2   0.847800 0.768730 0.534310 -0.493678
O16   O     O_3   0.082250 0.684470 0.405440 -0.430433
O17   O     O_2   0.002824 0.878351 0.452214 -0.491485
O18   O     O_3   0.593420 0.623780 0.869014 -0.726911
O19   O     O_3   0.384259 0.696803 0.454021 -0.695583
O20   O     O_3   0.086972 0.846979 0.320120 -0.588698
O21   O     O_2   0.314600 0.576860 0.673750 -0.467666
O22   O     O_3   0.066300 0.567050 0.585060 -0.490952
O23   O     O_3   0.528700 0.375020 0.630330 -0.469618
O24   O     O_3   0.183201 0.749603 0.678997 -0.648074
O25   O     O_3   0.611760 0.365720 0.463870 -0.481174
O26   O     O_3   0.107460 0.315620 0.594570 -0.487970
P1    P     P_3+3 0.042930 0.392230 0.337410 0.978160
P2    P     P_3+3 0.672230 0.754900 0.555730 1.003904
P3    P     P_3+3 0.128532 0.823738 0.406208 0.977996
P4    P     P_3+3 0.146790 0.607860 0.662600 0.976107
P5    P     P_3+3 0.064249 0.175272 0.593903 0.949921
P6    P     P_3+3 0.628459 0.610274 0.277773 0.938295
P7    P     P_3+3 0.521509 0.229643 0.441191 0.935237
P8    P     P_3+3 0.564825 0.368331 0.719107 0.983461

loop_
_geom_bond_atom_site_label_1
_geom_bond_atom_site_label_2
_ccdc_geom_bond_type
Ba2   P4    S    
C46   H56   S    
C44   H45   S    
C7    P6    S    
C6    H29   S    
Ba1   O25   S    
C17   C18   A    
C50   H21   S    
C31   H40   S    
O7    P7    S    
O16   P3    S    
C25   C31   A    
Ba2   O25   S    
C24   C25   A    
C15   C21   A    
C16   H46   S    
C10   C26   S    
C50   O9    S    
C7    C14   A    
Ba1   O5    S    
C50   H20   S    
C8    C13   A    
O9    P8    S    
C16   H14   S    
C32   H43   S    
C28   O24   S    
C35   H41   S    
Ba1   Ba2   S    
C23   H9    S    
C2    C11   A    
C34   N3    S    
C45   H15   S    
O24   P4    S    
Ba1   O22   S    
C33   O19   S    
C29   C30   A    
C6    C7    A    
C37   P2    S    
H59   O19   S    
O13   P1    S    
Ba1   O16   S    
C36   P3    S    
O8    P8    D    
O25   P7    S    
C34   H10   S    
C19   C20   A    
H52   N2    S    
C14   H32   S    
Ba2   O23   S    
C39   C41   A    
H54   N3    S    
O17   P3    D    
O11   P6    D    
H49   N1    S    
C49   H17   S    
H53   N3    S    
C47   O12   S    
O21   P4    D    
C44   H34   S    
C1    H7    S    
C38   C43   A    
C4    C16   S    
O4    P1    S    
C44   C46   S    
C42   P5    S    
C32   C41   A    
O12   P2    S    
H58   O18   S    
C33   C36   A    
C32   C42   A    
C3    C10   A    
Ba1   O10   S    
C37   C38   A    
C3    C5    A    
C34   H11   S    
O23   P8    S    
C45   C49   S    
C12   O14   S    
C29   H39   S    
H57   N4    S    
C48   H4    S    
C33   C37   A    
O6    P7    D    
C45   H16   S    
C30   O18   S    
C35   C36   A    
C40   H1    S    
C1    H2    S    
C45   O3    S    
C47   N2    S    
C12   N1    S    
O14   P6    S    
C51   H26   S    
O1    P1    D    
C21   C26   A    
C1    C12   S    
C28   H48   S    
C40   H23   S    
C46   H61   S    
Ba2   O6    S    
C38   C39   A    
C17   N4    S    
O15   P2    D    
C6    C13   A    
C4    O20   S    
O10   P6    S    
Ba2   O22   S    
C20   C22   A    
H51   N2    S    
Ba1   P1    S    
C51   H22   S    
C49   H18   S    
C48   H5    S    
C2    P4    S    
C50   C51   S    
C46   H60   S    
H50   N1    S    
C19   H37   S    
C13   C22   S    
C2    C52   A    
C15   H33   S    
C48   H3    S    
O3    P5    S    
C1    H13   S    
C42   C43   A    
C49   H19   S    
C22   C24   A    
O5    P2    S    
Ba2   O4    S    
Ba2   O26   S    
C12   H6    S    
C18   H35   S    
C30   C31   A    
O22   P4    S    
C51   H24   S    
C23   O7    S    
Ba1   O4    S    
C27   C29   A    
C4    H36   S    
O2    P5    D    
C44   O13   S    
C3    H28   S    
C9    P1    S    
C4    H25   S    
C5    P8    S    
C28   H47   S    
C8    H30   S    
C15   C17   A    
C23   H8    S    
C52   H27   S    
C35   C39   A    
Ba1   O1    S    
C9    C14   A    
C8    C9    A    
C23   C34   S    
O26   P5    S    
Ba2   O5    S    
C5    C11   A    
C47   H62   S    
C18   C19   A    
C24   C27   A    
C47   C48   S    
C11   H31   S    
C25   C26   A    
C40   H12   S    
Ba2   O21   S    
C20   C21   A    
C28   C40   S    
Ba1   P2    S    
C16   H44   S    
Ba1   O15   S    
C43   H42   S    
C41   P7    S    
O20   P3    S    
C27   H38   S    
C10   C52   A    
H55   N4    S    
