data_mof_unit_35025.cif
_audit_creation_date              2012-12-10T18:11:36-0500
_audit_creation_method            fapswitch 2.2
_symmetry_space_group_name_H-M    P1
_symmetry_Int_Tables_number       1
_space_group_crystal_system       triclinic
_cell_length_a                    10.50172
_cell_length_b                    12.620977
_cell_length_c                    13.107642
_cell_angle_alpha                 82.305776
_cell_angle_beta                  90.238934
_cell_angle_gamma                 101.996104
_cell_volume                      1683.57118698

loop_
_atom_site_label
_atom_site_type_symbol
_atom_type_description
_atom_site_fract_x
_atom_site_fract_y
_atom_site_fract_z
_atom_type_partial_charge
C1    C     C_R   0.480695 0.438877 0.691146 0.861161
C2    C     C_R   0.465996 0.446539 0.973944 0.096483
C3    C     C_R   0.432861 0.466093 0.870014 0.078232
C4    C     C_R   0.741857 0.499886 0.500588 0.912922
C5    C     C_R   0.461949 0.528259 0.036879 0.086820
C6    C     C_R   0.403672 0.617961 0.001575 0.171109
C7    C     C_R   0.353600 0.626971 0.902975 -0.217768
C8    C     C_R   0.368645 0.552339 0.837537 -0.183187
C9    C     C_R   0.517138 0.524185 0.133478 -0.229897
C10   C     C_R   0.440049 0.684366 0.166432 -0.194286
C11   C     C_R   0.466829 0.399562 0.800920 -0.103127
C12   C     C_3   0.067127 0.602016 0.509851 -0.238767
C13   C     C_R   0.324923 0.091956 0.341332 0.111896
C14   C     C_R   0.651228 0.798427 0.631428 0.031430
C15   C     C_R   0.681658 0.902302 0.660543 -0.244320
C16   C     C_R   0.512216 0.560948 0.308847 0.868489
C17   C     C_R   0.624143 0.984212 0.610669 -0.200337
C18   C     C_R   0.535576 0.962296 0.530693 0.038173
C19   C     C_R   0.508520 0.855077 0.503790 0.241302
C20   C     C_R   0.473111 0.041915 0.476641 -0.051969
C21   C     C_R   0.387041 0.013535 0.395643 0.153717
C22   C     C_R   0.365547 0.907880 0.369671 -0.287679
C23   C     C_3   0.967229 0.528192 0.588906 0.178939
C24   C     C_R   0.423015 0.829668 0.424395 -0.235191
C25   C     C_R   0.493233 0.149511 0.499229 -0.065766
C26   C     C_R   0.351307 0.197276 0.367355 -0.055628
C27   C     C_R   0.258156 0.500175 0.498972 0.896317
C28   C     C_3   0.933723 0.398556 0.488852 -0.215787
C29   C     C_3   0.026124 0.427768 0.577894 -0.219544
C30   C     C_3   0.123240 0.500693 0.498040 -0.091860
C31   C     C_3   0.033545 0.471371 0.409075 0.184607
C32   C     C_3   0.975454 0.570416 0.422350 0.184924
C33   C     C_3   0.102577 0.028123 0.297028 -0.772560
C34   C     C_3   0.876862 0.499253 0.500504 -0.121300
C35   C     C_3   0.049722 0.717869 0.282249 -0.762179
C36   C     C_R   0.394987 0.696449 0.066231 -0.179384
C37   C     C_R   0.498277 0.596126 0.200340 -0.037727
C38   C     C_R   0.505265 0.301787 0.838113 -0.171483
C39   C     C_R   0.518254 0.273679 0.943057 -0.134141
C40   C     C_R   0.502016 0.346198 0.010620 -0.174519
H1    H     H_    0.051708 0.369427 0.641879 0.164248
H2    H     H_    0.694981 0.734177 0.670175 0.171526
H3    H     H_    0.876197 0.315811 0.480848 0.177210
H4    H     H_    0.651254 0.063275 0.636264 0.137499
H5    H     H_    0.749364 0.919269 0.721702 0.161440
H6    H     H_    0.399110 0.749712 0.402453 0.213651
H7    H     H_    0.124404 0.684916 0.517611 0.175805
H8    H     H_    0.423560 0.740243 0.218320 0.145488
H9    H     H_    0.305353 0.693043 0.875603 0.160218
H10   H     H_    0.349057 0.764418 0.040683 0.140173
H11   H     H_    0.246029 0.126938 0.199632 0.235909
H12   H     H_    0.571292 0.462443 0.160635 0.152729
H13   H     H_    0.065675 0.095888 0.324777 0.254168
H14   H     H_    0.093694 0.959075 0.360541 0.246799
H15   H     H_    0.041728 0.999470 0.232641 0.244731
H16   H     H_    0.872204 0.686846 0.360081 0.238668
H17   H     H_    0.014010 0.765412 0.214742 0.247631
H18   H     H_    0.117717 0.670940 0.254303 0.266991
H19   H     H_    0.102085 0.775375 0.332648 0.223009
H20   H     H_    0.529310 0.248822 0.785857 0.151295
H21   H     H_    0.514912 0.320540 0.091206 0.133625
H22   H     H_    0.546486 0.197601 0.971779 0.145464
H23   H     H_    0.327954 0.561994 0.761701 0.175481
H24   H     H_    0.306282 0.259731 0.326555 0.168925
H25   H     H_    0.304464 0.885091 0.306227 0.182795
H26   H     H_    0.556530 0.178783 0.558749 0.132317
I1    I     I_    0.089200 0.422310 0.268464 -0.408448
I2    I     I_    0.911872 0.570362 0.732417 -0.411683
N1    N     N_R   0.432930 0.222190 0.444670 -0.115200
N2    N     N_R   0.566370 0.776980 0.554790 -0.137284
N3    N     N_2   0.236586 0.065679 0.261434 -0.321130
N4    N     N_2   0.940666 0.645615 0.338729 -0.291746
O1    O     O_R   0.467970 0.366730 0.627150 -0.619481
O2    O     O_R   0.510820 0.544830 0.662520 -0.609453
O3    O     O_R   0.664630 0.410960 0.482340 -0.617965
O4    O     O_R   0.707470 0.589060 0.517710 -0.614182
O5    O     O_R   0.489180 0.455170 0.337480 -0.606516
O6    O     O_R   0.532030 0.633270 0.372850 -0.643463
O7    O     O_R   0.292530 0.410940 0.482290 -0.596903
O8    O     O_R   0.335370 0.589040 0.517660 -0.649001
Zn1   Zn    Zn3+2 0.471390 0.381080 0.476380 0.953379
Zn2   Zn    Zn3+2 0.528610 0.618920 0.523620 0.933165

loop_
_geom_bond_atom_site_label_1
_geom_bond_atom_site_label_2
_ccdc_geom_bond_type
C33   H15   S    
C1    C11   S    
C7    C8    A    
C32   N4    S    
C31   I1    S    
C12   C23   S    
C10   C37   A    
C1    O2    A    
C23   C29   S    
C28   C29   S    
C18   C19   A    
C27   O7    A    
C38   C39   A    
C20   C25   A    
C35   H19   S    
C16   O5    A    
C26   H24   S    
C4    O3    A    
H16   N4    S    
C18   C20   A    
C16   C37   S    
C14   H2    S    
C29   H1    S    
C28   C34   S    
C21   C22   A    
C12   C32   S    
C27   C30   S    
C14   N2    A    
C9    H12   S    
H11   N3    S    
O2    Zn2   S    
C12   H7    S    
O1    Zn1   S    
C33   H13   S    
C4    C34   S    
N1    Zn1   S    
C7    H9    S    
O8    Zn2   S    
C3    C8    A    
O4    Zn2   S    
C39   C40   A    
O7    Zn1   S    
O3    Zn1   S    
C13   N3    S    
C40   H21   S    
C32   C34   S    
C23   I2    S    
C11   C38   A    
C22   H25   S    
C5    C9    A    
C29   C30   S    
O6    Zn2   S    
C31   C32   S    
O5    Zn1   S    
C30   C31   S    
C23   C34   S    
C9    C37   A    
C17   C18   A    
C13   C21   A    
C38   H20   S    
C35   N4    S    
C27   O8    A    
C35   H18   S    
C10   H8    S    
C22   C24   A    
C13   C26   A    
C2    C5    A    
C25   N1    A    
C15   H5    S    
C36   H10   S    
C33   H14   S    
C15   C17   A    
C39   H22   S    
C12   C30   S    
C28   C31   S    
C25   H26   S    
C6    C7    A    
C28   H3    S    
C35   H17   S    
C1    O1    A    
C2    C3    A    
C17   H4    S    
C24   H6    S    
C5    C6    A    
C6    C36   A    
C19   C24   A    
C16   O6    A    
N2    Zn2   S    
C4    O4    A    
C3    C11   A    
C33   N3    S    
C8    H23   S    
C2    C40   A    
C20   C21   A    
C26   N1    A    
C14   C15   A    
C19   N2    A    
C10   C36   A    
