data_mof_unit_48858.cif
_audit_creation_date              2012-12-10T17:29:13-0500
_audit_creation_method            fapswitch 2.2
_symmetry_space_group_name_H-M    P1
_symmetry_Int_Tables_number       1
_space_group_crystal_system       triclinic
_cell_length_a                    12.06151
_cell_length_b                    12.799113
_cell_length_c                    13.091049
_cell_angle_alpha                 86.373577
_cell_angle_beta                  114.235706
_cell_angle_gamma                 93.448963
_cell_volume                      1837.84554581

loop_
_atom_site_label
_atom_site_type_symbol
_atom_type_description
_atom_site_fract_x
_atom_site_fract_y
_atom_site_fract_z
_atom_type_partial_charge
C1    C     C_R   0.476700 0.299981 0.496885 0.960618
C2    C     C_R   0.616233 0.526702 0.829563 -0.201863
C3    C     C_R   0.530503 0.811276 0.486618 -0.098526
C4    C     C_R   0.568885 0.506324 0.708710 0.882523
C5    C     C_R   0.462956 0.188884 0.498616 -0.173637
C6    C     C_R   0.438087 0.032039 0.600001 0.460713
C7    C     C_R   0.430961 0.139537 0.581029 -0.272398
C8    C     C_R   0.495705 0.133245 0.427689 0.104571
C9    C     C_R   0.507901 0.025520 0.447769 0.045744
C10   C     C_R   0.480161 0.974622 0.535069 -0.004496
C11   C     C_R   0.493784 0.867444 0.553700 -0.185365
C12   C     C_R   0.560964 0.540372 0.986959 0.133927
C13   C     C_R   0.558036 0.860412 0.400843 0.139955
C14   C     C_R   0.547917 0.967491 0.382844 -0.122532
C15   C     C_R   0.010588 0.607232 0.403626 -0.220366
C16   C     C_R   0.521144 0.700169 0.497594 0.888734
C17   C     C_R   0.130863 0.597883 0.414478 0.057387
C18   C     C_R   0.158913 0.454043 0.542795 0.067468
C19   C     C_R   0.041975 0.466233 0.542837 -0.091586
C20   C     C_R   0.964093 0.540085 0.467012 0.015871
C21   C     C_R   0.843050 0.546875 0.458362 -0.071217
C22   C     C_R   0.875488 0.408117 0.595804 0.242574
C23   C     C_R   0.536711 0.562595 0.873400 0.067277
C24   C     C_R   0.001140 0.407111 0.616097 0.296972
C25   C     C_R   0.432180 0.506960 0.289967 0.936316
C26   C     C_R   0.282362 0.641270 0.001337 0.321519
C27   C     C_R   0.392119 0.531145 0.168758 -0.165267
C28   C     C_R   0.736834 0.505308 0.904940 0.205778
C29   C     C_R   0.766080 0.495145 0.019464 -0.136555
C30   C     C_R   0.677985 0.507134 0.059940 -0.213874
C31   C     C_R   0.468983 0.556202 0.024322 0.070277
C32   C     C_R   0.367800 0.617171 0.958157 -0.014905
C33   C     C_R   0.354173 0.650967 0.849693 -0.057372
C34   C     C_R   0.436403 0.623536 0.807867 -0.128729
C35   C     C_R   0.475772 0.510957 0.125641 -0.236159
C36   C     C_R   0.289227 0.590418 0.103144 0.113132
H1    H     H_    0.569600 0.003363 0.316162 0.197493
H2    H     H_    0.858002 0.478469 0.077940 0.184432
H3    H     H_    0.422918 0.654565 0.724996 0.174409
H4    H     H_    0.472925 0.825149 0.618198 0.200868
H5    H     H_    0.342635 0.029863 0.831774 0.414045
H6    H     H_    0.135021 0.292085 0.906438 0.399439
H7    H     H_    0.322527 0.862033 0.960127 0.358992
H8    H     H_    0.405372 0.186230 0.633579 0.222941
H9    H     H_    0.784039 0.604306 0.400828 0.177258
H10   H     H_    0.955264 0.667794 0.347520 0.174916
H11   H     H_    0.167379 0.653450 0.369652 0.165428
H12   H     H_    0.277276 0.694675 0.793446 0.237246
H13   H     H_    0.216534 0.391749 0.591398 0.197156
H14   H     H_    0.546832 0.457575 0.172984 0.188173
H15   H     H_    0.706903 0.499051 0.149745 0.155669
I1    I     I_    0.136055 0.586917 0.145897 -0.227411
I2    I     I_    0.600782 0.778605 0.286124 -0.354905
I3    I     I_    0.521086 0.214182 0.288760 -0.317228
I4    I     I_    0.809693 0.282851 0.675568 -0.092107
I5    I     I_    0.886395 0.508692 0.859844 -0.111372
N1    N     N_R   0.798200 0.480260 0.519790 -0.139883
N2    N     N_R   0.201820 0.519740 0.480210 -0.126774
O1    O     O_R   0.579910 0.341070 0.505280 -0.581468
O2    O     O_2   0.505932 0.923324 0.796501 -0.305908
O3    O     O_3   0.348665 0.065519 0.764806 -0.488113
O4    O     O_2   0.124356 0.232188 0.704244 -0.236429
O5    O     O_2   0.230484 0.398069 0.778560 -0.324067
O6    O     O_3   0.066858 0.326719 0.844429 -0.492415
O7    O     O_2   0.074339 0.702611 0.833997 -0.220791
O8    O     O_2   0.130539 0.788253 0.011347 -0.227988
O9    O     O_3   0.250077 0.842915 0.891969 -0.497096
O10   O     O_R   0.388440 0.353740 0.492580 -0.615741
O11   O     O_R   0.643280 0.490550 0.663120 -0.577708
O12   O     O_R   0.451810 0.503220 0.650420 -0.615483
O13   O     O_R   0.611560 0.646260 0.507420 -0.586195
O14   O     O_R   0.420090 0.658930 0.494720 -0.633845
O15   O     O_R   0.548190 0.496780 0.349580 -0.609399
O16   O     O_R   0.356720 0.509450 0.336880 -0.592292
O17   O     O_2   0.296904 0.892596 0.658189 -0.277367
S1    S     S_3+6 0.397110 0.974205 0.707192 0.044184
S2    S     S_3+6 0.109431 0.339206 0.736916 0.052324
S3    S     S_3+6 0.178891 0.743995 0.934831 0.082128
Zn1   Zn    Zn3+2 0.627850 0.491540 0.508480 1.023127
Zn2   Zn    Zn3+2 0.372150 0.508460 0.491520 0.985249

loop_
_geom_bond_atom_site_label_1
_geom_bond_atom_site_label_2
_ccdc_geom_bond_type
O10   Zn2   S    
C30   H15   S    
C26   C32   A    
O6    S2    S    
N1    Zn1   S    
O4    S2    D    
C19   C20   A    
C16   O14   A    
H5    O3    S    
C9    C14   A    
C22   N1    A    
C4    O12   A    
C28   I5    S    
O9    S3    S    
C12   C23   A    
C26   S3    S    
C1    C5    S    
C28   C29   A    
C25   O15   A    
C18   C19   A    
C1    O1    A    
C1    O10   A    
C25   O16   A    
C18   N2    A    
C8    C9    A    
C29   H2    S    
C9    C10   A    
C21   H9    S    
C36   I1    S    
N2    Zn2   S    
C17   N2    A    
O16   Zn2   S    
C13   C14   A    
C16   O13   A    
O13   Zn1   S    
C4    O11   A    
C13   I2    S    
O3    S1    S    
C15   C20   A    
O8    S3    D    
O12   Zn2   S    
C34   H3    S    
C8    I3    S    
C5    C7    A    
C27   C35   A    
O2    S1    D    
C2    C4    S    
O17   S1    D    
C21   N1    A    
C29   C30   A    
C31   C32   A    
C23   C34   A    
C35   H14   S    
C33   C34   A    
O15   Zn1   S    
C7    H8    S    
C6    C7    A    
C26   C36   A    
C12   C31   A    
C31   C35   A    
O11   Zn1   S    
O1    Zn1   S    
H6    O6    S    
O5    S2    D    
C15   C17   A    
O7    S3    D    
C12   C30   A    
C17   H11   S    
C3    C13   A    
C6    C10   A    
C5    C8    A    
C6    S1    S    
C22   I4    S    
C27   C36   A    
C25   C27   S    
C32   C33   A    
C19   C24   A    
O14   Zn2   S    
C14   H1    S    
C22   C24   A    
C11   H4    S    
C3    C11   A    
C10   C11   A    
C24   S2    S    
C20   C21   A    
H7    O9    S    
C2    C23   A    
C33   H12   S    
C2    C28   A    
C15   H10   S    
C3    C16   S    
C18   H13   S    
