data_mof_unit_31197.cif
_audit_creation_date              2012-12-10T20:27:52-0500
_audit_creation_method            fapswitch 2.2
_symmetry_space_group_name_H-M    P1
_symmetry_Int_Tables_number       1
_space_group_crystal_system       triclinic
_cell_length_a                    12.805595
_cell_length_b                    10.679032
_cell_length_c                    9.904146
_cell_angle_alpha                 90.593289
_cell_angle_beta                  97.312778
_cell_angle_gamma                 89.602241
_cell_volume                      1343.29518006

loop_
_atom_site_label
_atom_site_type_symbol
_atom_type_description
_atom_site_fract_x
_atom_site_fract_y
_atom_site_fract_z
_atom_type_partial_charge
C1    C     C_R   0.503529 0.260137 0.500217 0.912068
C2    C     C_R   0.026865 0.443728 0.536527 0.095953
C3    C     C_R   0.972328 0.534306 0.449705 0.115960
C4    C     C_R   0.866295 0.553630 0.455551 -0.285605
C5    C     C_R   0.866461 0.391504 0.627487 0.038326
C6    C     C_R   0.973933 0.371898 0.624534 0.097326
C7    C     C_R   0.486854 0.065014 0.615171 0.066991
C8    C     C_R   0.517496 0.128107 0.504585 -0.271935
C9    C     C_R   0.567712 0.062243 0.406732 -0.010702
C10   C     C_R   0.567524 0.931926 0.408308 0.562592
C11   C     C_R   0.517506 0.870774 0.506900 -0.255904
C12   C     C_R   0.298513 0.500415 0.472749 0.868875
C13   C     C_R   0.486731 0.937555 0.616304 -0.016940
C14   C     C_3   0.386706 0.931819 0.679062 -0.509977
C15   C     C_3   0.386787 0.073900 0.677784 0.514616
C16   C     C_R   0.428860 0.569567 0.060774 0.184614
C17   C     C_R   0.577349 0.438902 0.083292 0.164965
C18   C     C_R   0.576773 0.439110 0.939398 -0.144635
C19   C     C_R   0.427612 0.567632 0.918303 0.188299
C20   C     C_3   0.310133 0.553392 0.898344 -0.134331
C21   C     C_3   0.312302 0.561223 0.052230 -0.568690
C22   C     C_R   0.502981 0.739607 0.501183 0.941129
C23   C     C_R   0.701637 0.496184 0.526919 0.889700
C24   C     C_R   0.813819 0.483248 0.542523 -0.115940
C25   C     C_R   0.186568 0.503989 0.454013 -0.072951
C26   C     C_R   0.025164 0.604204 0.359276 0.115645
C27   C     C_R   0.133421 0.588511 0.363067 -0.253761
C28   C     C_R   0.134003 0.428562 0.535536 -0.251238
H1    H     H_    0.822848 0.622748 0.390961 0.201681
H2    H     H_    0.399143 0.891627 0.783039 0.237082
H3    H     H_    0.320200 0.116938 0.610635 0.045124
H4    H     H_    0.636814 0.388315 0.894099 0.138421
H5    H     H_    0.268356 0.632561 0.842306 0.173771
H6    H     H_    0.277160 0.649471 0.086832 0.191947
H7    H     H_    0.285831 0.474957 0.099565 0.224160
H8    H     H_    0.176820 0.645206 0.299405 0.143795
H9    H     H_    0.178141 0.360382 0.600424 0.188156
H10   H     H_    0.320787 0.889985 0.609531 0.146508
N1    N     N_R   0.499290 0.499140 0.142710 -0.099940
N2    N     N_R   0.499290 0.499180 0.857070 -0.104395
O1    O     O_R   0.500010 0.316790 0.614690 -0.595556
O2    O     O_R   0.500000 0.316760 0.385350 -0.583098
O3    O     O_R   0.346360 0.499990 0.595720 -0.593891
O4    O     O_R   0.346350 0.499960 0.366370 -0.635925
O5    O     O_R   0.500000 0.683240 0.614650 -0.619540
O6    O     O_R   0.499990 0.683210 0.385310 -0.564109
O7    O     O_R   0.653650 0.500040 0.633630 -0.639172
O8    O     O_R   0.653640 0.500010 0.404280 -0.587146
Zn1   Zn    Zn3+2 0.500010 0.500020 0.653130 0.975784
Zn2   Zn    Zn3+2 0.499990 0.499980 0.346870 0.999404
F1    F     F_    0.403509 0.125442 0.807501 -0.651203
N3    N     N_3   0.659605 0.374325 0.165875 -0.381541
H11   H     H_    0.730238 0.419740 0.155835 0.167294
H12   H     H_    0.665383 0.284270 0.125223 0.171497
N4    N     N_3   0.276448 0.430470 0.842736 -0.386371
H13   H     H_    0.317767 0.359119 0.898687 0.243758
H14   H     H_    0.197000 0.420403 0.854493 0.192428
N5    N     N_3   0.812185 0.314464 0.713367 -0.468577
H15   H     H_    0.748349 0.271706 0.654661 0.194871
H16   H     H_    0.784847 0.371759 0.787423 0.197056
N6    N     N_3   0.969503 0.692563 0.267350 -0.452406
H17   H     H_    0.022072 0.742827 0.216341 0.183997
H18   H     H_    0.922225 0.641182 0.192942 0.183543
N7    N     N_3   0.029226 0.278435 0.709577 -0.476411
H19   H     H_    0.994251 0.191656 0.684638 0.210205
H20   H     H_    0.020534 0.299459 0.810905 0.196367
N8    N     N_3   0.615470 0.126345 0.304501 -0.407658
H21   H     H_    0.694774 0.099832 0.312972 0.207237
H22   H     H_    0.579066 0.096466 0.209206 0.233208
F2    F     F_    0.611460 0.866598 0.311097 -0.664806

loop_
_geom_bond_atom_site_label_1
_geom_bond_atom_site_label_2
_ccdc_geom_bond_type
C1    O1    A    
C2    C28   A    
C23   C24   S    
C9    N8    S    
C15   H3    S    
C16   C21   S    
C21   H7    S    
C15   F1    S    
C27   H8    S    
C25   C27   A    
C1    C8    S    
C9    C10   A    
O6    Zn2   S    
C11   C22   S    
C4    H1    S    
O2    Zn2   S    
O5    Zn1   S    
C12   C25   S    
N4    H13   S    
N7    H19   S    
N1    Zn2   S    
C7    C15   S    
C17   C18   A    
C23   O8    A    
C18   H4    S    
C7    C8    A    
O7    Zn1   S    
C13   C14   S    
N3    H11   S    
C25   C28   A    
C11   C13   A    
N2    Zn1   S    
C26   C27   A    
C2    C6    A    
C5    C24   A    
C5    N5    S    
C14   H2    S    
C20   N4    S    
C5    C6    A    
C20   H5    S    
C10   F2    S    
C17   N3    S    
O8    Zn2   S    
C22   O6    A    
C26   N6    S    
N3    H12   S    
C2    C3    A    
C12   O3    A    
N4    H14   S    
C16   C19   A    
N6    H17   S    
C4    C24   A    
C14   H10   S    
C19   N2    A    
C16   N1    A    
C6    N7    S    
N8    H21   S    
C1    O2    A    
C7    C13   A    
C22   O5    A    
C23   O7    A    
C20   C21   S    
C12   O4    A    
C10   C11   A    
O1    Zn1   S    
N6    H18   S    
C18   N2    A    
C17   N1    A    
C14   C15   S    
O3    Zn1   S    
O4    Zn2   S    
C21   H6    S    
N5    H15   S    
N5    H16   S    
C3    C26   A    
C3    C4    A    
C19   C20   S    
C28   H9    S    
C8    C9    A    
N8    H22   S    
N7    H20   S    
