data_mof_unit_30838.cif
_audit_creation_date              2012-12-11T17:12:43-0500
_audit_creation_method            fapswitch 2.2
_symmetry_space_group_name_H-M    P1
_symmetry_Int_Tables_number       1
_space_group_crystal_system       triclinic
_cell_length_a                    17.209176
_cell_length_b                    6.883624
_cell_length_c                    14.388275
_cell_angle_alpha                 89.072422
_cell_angle_beta                  110.06256
_cell_angle_gamma                 91.138169
_cell_volume                      1600.63217909

loop_
_atom_site_label
_atom_site_type_symbol
_atom_type_description
_atom_site_fract_x
_atom_site_fract_y
_atom_site_fract_z
_atom_type_partial_charge
O1    O     O_R   0.314130 0.635770 0.168990 -0.537334
O2    O     O_R   0.685870 0.364230 0.831010 -0.530744
O3    O     O_R   0.185870 0.135770 0.331010 -0.520858
O4    O     O_R   0.814130 0.864230 0.668990 -0.523265
O5    O     O_R   0.146800 0.302460 0.139760 -0.538560
O6    O     O_R   0.853200 0.697540 0.860240 -0.538018
O7    O     O_R   0.353200 0.802460 0.360240 -0.541071
O8    O     O_R   0.646800 0.197540 0.639760 -0.542139
C1    C     C_R   0.113985 0.475468 0.112804 0.757904
C2    C     C_R   0.885961 0.524505 0.887285 0.743399
C3    C     C_R   0.385983 0.976217 0.387222 0.730205
C4    C     C_R   0.614028 0.023781 0.612752 0.731905
O9    O     O_R   0.311100 0.305780 0.157130 -0.540690
O10   O     O_R   0.688900 0.694220 0.842870 -0.526860
O11   O     O_R   0.188900 0.805780 0.342870 -0.525835
O12   O     O_R   0.811100 0.194220 0.657130 -0.526964
O13   O     O_R   0.351340 0.139640 0.348510 -0.535015
O14   O     O_R   0.648660 0.860360 0.651490 -0.536528
O15   O     O_R   0.148660 0.639640 0.151490 -0.537216
O16   O     O_R   0.851340 0.360360 0.848510 -0.539253
C5    C     C_R   0.332469 0.477713 0.135285 0.832957
C6    C     C_R   0.667329 0.522354 0.864313 0.825856
C7    C     C_R   0.167006 0.972300 0.364311 0.831334
C8    C     C_R   0.832894 0.027694 0.635561 0.825295
C9    C     C_1   0.533607 0.008443 0.533046 -0.150935
C10   C     C_1   0.466406 0.991555 0.466919 -0.149164
C11   C     C_1   0.966378 0.509310 0.967082 -0.145892
C12   C     C_1   0.033502 0.490616 0.033105 -0.141005
O17   O     O_3   0.263010 0.470920 0.312770 -0.367000
O18   O     O_3   0.736990 0.529080 0.687230 -0.371922
O19   O     O_3   0.236990 0.970920 0.187230 -0.385262
O20   O     O_3   0.763010 0.029080 0.812770 -0.371091
V1    V     V_3+5 0.247590 0.194450 0.238360 1.517499
V2    V     V_3+5 0.752410 0.805550 0.761640 1.555731
V3    V     V_3+5 0.252410 0.694450 0.261640 1.523281
V4    V     V_3+5 0.747590 0.305550 0.738360 1.539916
C13   C     C_R   0.116888 0.970987 0.430127 -0.304725
C14   C     C_R   0.882968 0.029028 0.569670 -0.304434
C15   C     C_R   0.382850 0.498844 0.070206 -0.309659
C16   C     C_R   0.617340 0.500989 0.929564 -0.301179
C17   C     C_R   0.919860 0.181239 0.435743 0.678835
C18   C     C_R   0.080016 0.818848 0.564064 0.684562
C19   C     C_R   0.582918 0.320308 0.057935 0.681087
C20   C     C_R   0.415672 0.672206 0.938698 0.692108
C21   C     C_R   0.865481 0.161736 0.489293 0.091715
C22   C     C_R   0.134436 0.838472 0.510576 0.087065
C23   C     C_R   0.637011 0.357875 0.005289 0.088229
C24   C     C_R   0.363418 0.641198 0.994163 0.063256
C25   C     C_R   0.953287 0.912248 0.592945 0.628089
C26   C     C_R   0.046508 0.087594 0.406746 0.625256
C27   C     C_R   0.544521 0.607321 0.908678 0.621673
C28   C     C_R   0.454715 0.388831 0.089622 0.600651
C29   C     C_R   0.008187 0.931593 0.539331 -0.280444
C30   C     C_R   0.991630 0.068323 0.460391 -0.275809
C31   C     C_R   0.489763 0.569291 0.960964 -0.274758
C32   C     C_R   0.509097 0.424637 0.036444 -0.268802
F1    F     F_    0.029882 0.213042 0.328616 -0.630385
F2    F     F_    0.969842 0.786549 0.670961 -0.622514
F3    F     F_    0.473259 0.253968 0.163800 -0.643689
F4    F     F_    0.525865 0.742056 0.834412 -0.631631
N1    N     N_2   0.206919 0.723202 0.537653 -0.494974
H1    H     H_    0.201072 0.589500 0.568215 0.302323
C33   C     C_3   0.282190 0.825268 0.594251 -0.400407
H2    H     H_    0.278875 0.870331 0.666617 0.245201
H3    H     H_    0.292384 0.955541 0.553075 0.153274
H4    H     H_    0.335773 0.727993 0.607912 0.210448
N2    N     N_2   0.793103 0.277327 0.462351 -0.495369
H5    H     H_    0.799177 0.411351 0.432234 0.299987
C34   C     C_3   0.717839 0.175965 0.405148 -0.412061
H6    H     H_    0.721238 0.132450 0.332592 0.243245
H7    H     H_    0.664286 0.273178 0.391860 0.209985
H8    H     H_    0.707541 0.044826 0.445683 0.155691
N3    N     N_2   0.289746 0.750419 0.971536 -0.512689
H9    H     H_    0.251887 0.738027 0.898623 0.300741
C35   C     C_3   0.303104 0.951148 0.002364 -0.334557
H10   H     H_    0.332964 0.034862 0.956776 0.208727
H11   H     H_    0.342939 0.960534 0.081417 0.224766
H12   H     H_    0.242703 0.018110 0.993038 0.169735
N4    N     N_2   0.711123 0.249613 0.028021 -0.496594
H13   H     H_    0.707200 0.110248 0.053669 0.301308
C36   C     C_3   0.784976 0.352101 0.088292 -0.413949
H14   H     H_    0.781250 0.382225 0.162305 0.244067
H15   H     H_    0.793114 0.491094 0.052166 0.154728
H16   H     H_    0.839943 0.261469 0.098050 0.211409
F5    F     F_    0.901613 0.310366 0.359065 -0.644839
F6    F     F_    0.098352 0.689996 0.640871 -0.627744
F7    F     F_    0.603411 0.182332 0.130585 -0.643620
F8    F     F_    0.393900 0.805576 0.863884 -0.645991

loop_
_geom_bond_atom_site_label_1
_geom_bond_atom_site_label_2
_ccdc_geom_bond_type
C2    C11   S    
C16   C23   A    
C31   C32   A    
C33   H3    S    
O1    C5    A    
N3    H9    S    
O3    C7    A    
C23   N4    S    
C36   H14   S    
C14   C25   A    
C29   C30   A    
O7    C3    A    
O5    C1    A    
C26   C30   A    
O20   V4    S    
C18   C29   A    
O8    V4    S    
O4    C8    A    
O3    V1    S    
O17   V1    S    
N1    C33   S    
C18   C22   A    
C34   H7    S    
C14   C21   A    
C1    O15   A    
C2    O16   A    
O5    V1    S    
C21   N2    S    
C8    C14   S    
O19   V1    S    
C18   F6    S    
O11   C7    A    
C15   C28   A    
C33   H4    S    
O12   C8    A    
N3    C35   S    
N1    H1    S    
O13   V1    S    
O11   V3    S    
C36   H15   S    
O4    V2    S    
O18   V2    S    
C22   N1    S    
N2    H5    S    
N4    C36   S    
C3    C10   S    
C9    C10   T    
C7    C13   S    
C25   F2    S    
C33   H2    S    
N2    C34   S    
O20   V2    S    
C34   H8    S    
C35   H10   S    
O2    C6    A    
C28   F3    S    
C35   H11   S    
C5    C15   S    
O8    C4    A    
C6    C16   S    
O9    C5    A    
O14   V2    S    
O19   V3    S    
C36   H16   S    
O1    V3    S    
O2    V4    S    
C3    O13   A    
C26   F1    S    
O7    V3    S    
C24   N3    S    
O10   V2    S    
C16   C27   A    
C17   F5    S    
O17   V3    S    
O18   V4    S    
C4    C9    S    
C19   F7    S    
O10   C6    A    
O15   V3    S    
O12   V4    S    
C13   C26   A    
C20   C31   A    
C28   C32   A    
C25   C29   A    
C27   C31   A    
C34   H6    S    
C35   H12   S    
C17   C30   A    
O6    C2    A    
N4    H13   S    
O16   V4    S    
O6    V2    S    
C19   C32   A    
O9    V1    S    
C4    O14   A    
C11   C12   T    
C17   C21   A    
C27   F4    S    
C13   C22   A    
C20   F8    S    
C19   C23   A    
C20   C24   A    
C1    C12   S    
C15   C24   A    
