data_mof_unit_20788.cif
_audit_creation_date              2012-12-10T18:58:15-0500
_audit_creation_method            fapswitch 2.2
_symmetry_space_group_name_H-M    P1
_symmetry_Int_Tables_number       1
_space_group_crystal_system       triclinic
_cell_length_a                    11.016169
_cell_length_b                    10.855224
_cell_length_c                    9.57435
_cell_angle_alpha                 90.900646
_cell_angle_beta                  101.960925
_cell_angle_gamma                 91.006266
_cell_volume                      1119.67987707

loop_
_atom_site_label
_atom_site_type_symbol
_atom_type_description
_atom_site_fract_x
_atom_site_fract_y
_atom_site_fract_z
_atom_type_partial_charge
C1    C     C_R   0.495762 0.262487 0.497956 0.788065
C2    C     C_R   0.451044 0.403484 0.061034 -0.085126
C3    C     C_R   0.450233 0.403894 0.912187 -0.081057
C4    C     C_R   0.262905 0.495470 0.442634 0.862269
C5    C     C_R   0.537073 0.602170 0.936668 0.206169
C6    C     C_3   0.659587 0.667254 0.959771 -0.546912
C7    C     C_3   0.653650 0.678439 0.116762 0.036839
C8    C     C_R   0.497685 0.737857 0.499922 0.800472
C9    C     C_R   0.736948 0.496839 0.557666 0.874744
C10   C     C_2   0.128251 0.480605 0.411853 -0.372863
C11   C     C_2   0.067901 0.471836 0.518996 -0.160390
C12   C     C_R   0.480432 0.129473 0.492311 -0.090782
C13   C     C_2   0.871682 0.491117 0.591082 -0.348806
C14   C     C_2   0.933230 0.460966 0.489902 -0.156626
C15   C     C_R   0.469319 0.066124 0.614714 0.125454
C16   C     C_3   0.867771 0.698233 0.241239 -0.692320
C17   C     C_R   0.474469 0.062173 0.364387 -0.223891
C18   C     C_R   0.476061 0.933552 0.365944 -0.216728
C19   C     C_R   0.484408 0.871147 0.495540 -0.098180
C20   C     C_R   0.472489 0.939145 0.616703 0.133093
C21   C     C_3   0.551859 0.941322 0.763203 -0.494814
C22   C     C_3   0.545157 0.080188 0.762386 -0.461108
C23   C     C_R   0.535041 0.603394 0.082885 0.182621
Cu1   Cu    Cu3+1 0.499990 0.499980 0.640670 0.939742
Cu2   Cu    Cu3+1 0.500010 0.500020 0.359330 0.950911
H1    H     H_    0.884071 0.435309 0.382750 0.180116
H2    H     H_    0.078257 0.475708 0.301299 0.148700
H3    H     H_    0.475515 0.108302 0.265141 0.156365
H4    H     H_    0.477146 0.883993 0.267201 0.154229
H5    H     H_    0.503699 0.899120 0.842430 0.194276
H6    H     H_    0.647157 0.909653 0.762634 0.194437
H7    H     H_    0.490719 0.117207 0.838603 0.185690
H8    H     H_    0.773429 0.531669 0.177380 0.254900
H9    H     H_    0.940587 0.653654 0.319754 0.238795
H10   H     H_    0.847403 0.787595 0.288834 0.230720
H11   H     H_    0.904048 0.715153 0.143094 0.218156
H12   H     H_    0.636472 0.127039 0.766393 0.203886
H13   H     H_    0.413200 0.324362 0.105845 0.133756
H14   H     H_    0.410725 0.325571 0.846306 0.136235
H15   H     H_    0.733619 0.606529 0.936624 0.212410
H16   H     H_    0.656909 0.757008 0.909002 0.176655
H17   H     H_    0.637488 0.773791 0.152459 0.135433
H18   H     H_    0.117423 0.478877 0.629702 0.184922
H19   H     H_    0.921162 0.514256 0.699070 0.141852
N1    N     N_R   0.500780 0.500930 0.148120 -0.181294
N2    N     N_R   0.500790 0.500890 0.852210 -0.174363
N3    N     N_2   0.757087 0.620307 0.208312 -0.355894
O1    O     O_R   0.500000 0.319640 0.618810 -0.588759
O2    O     O_R   0.500010 0.319680 0.381230 -0.596876
O3    O     O_R   0.320680 0.500000 0.575130 -0.580617
O4    O     O_R   0.320690 0.500040 0.337550 -0.582259
O5    O     O_R   0.499990 0.680320 0.618770 -0.575250
O6    O     O_R   0.500000 0.680360 0.381190 -0.583316
O7    O     O_R   0.679310 0.499960 0.662450 -0.586472
O8    O     O_R   0.679320 0.500000 0.424870 -0.547210

loop_
_geom_bond_atom_site_label_1
_geom_bond_atom_site_label_2
_ccdc_geom_bond_type
C10   H2    S    
Cu1   O5    S    
Cu2   O4    S    
C1    O1    A    
C11   H18   S    
C6    C7    S    
C9    O8    A    
C7    N3    S    
C21   H5    S    
C8    O5    A    
C3    N2    A    
C19   C20   A    
C5    C23   A    
C12   C15   A    
Cu1   N2    S    
C20   C21   S    
C2    C3    A    
C8    O6    A    
C3    H14   S    
C16   H10   S    
C18   H4    S    
C21   C22   S    
C14   H1    S    
C12   C17   A    
C21   H6    S    
C5    C6    S    
C1    C12   S    
C22   H7    S    
C23   N1    A    
C7    C23   S    
C16   N3    S    
Cu2   O6    S    
C17   C18   A    
C6    H15   S    
C15   C22   S    
C2    N1    A    
Cu1   O3    S    
C15   C20   A    
H8    N3    S    
C11   C14   S    
Cu2   O2    S    
C8    C19   S    
C10   C11   D    
C4    O4    A    
Cu1   O7    S    
Cu1   O1    S    
Cu2   N1    S    
Cu1   Cu2   S    
C18   C19   A    
C5    N2    A    
C7    H17   S    
C2    H13   S    
C9    C13   S    
C9    O7    A    
C16   H9    S    
C13   C14   D    
C22   H12   S    
C4    C10   S    
C13   H19   S    
C16   H11   S    
Cu2   O8    S    
C17   H3    S    
C4    O3    A    
C6    H16   S    
C1    O2    A    
