data_mof_unit_37116.cif
_audit_creation_date              2012-12-11T14:47:58-0500
_audit_creation_method            fapswitch 2.2
_symmetry_space_group_name_H-M    P1
_symmetry_Int_Tables_number       1
_space_group_crystal_system       triclinic
_cell_length_a                    11.529391
_cell_length_b                    11.515336
_cell_length_c                    19.525747
_cell_angle_alpha                 90.214637
_cell_angle_beta                  90.025834
_cell_angle_gamma                 59.722359
_cell_volume                      2238.69942538

loop_
_atom_site_label
_atom_site_type_symbol
_atom_type_description
_atom_site_fract_x
_atom_site_fract_y
_atom_site_fract_z
_atom_type_partial_charge
C1    C     C_R   0.615558 0.085506 0.606354 0.546485
C2    C     C_1   0.641691 0.703458 0.667950 0.009777
C3    C     C_1   0.127261 0.198786 0.859397 0.007295
C4    C     C_1   0.171709 0.170019 0.727763 -0.026846
C5    C     C_1   0.150660 0.182137 0.799026 -0.028258
C6    C     C_1   0.195197 0.160697 0.667371 0.012049
C7    C     C_1   0.668264 0.182337 0.864498 0.004493
C8    C     C_1   0.633797 0.137179 0.736679 -0.025789
C9    C     C_1   0.647966 0.162001 0.806262 -0.025875
C10   C     C_1   0.625507 0.114665 0.677012 0.002821
C11   C     C_R   0.526823 0.758679 0.288062 -0.173040
C12   C     C_R   0.612914 0.745359 0.598517 0.546618
C13   C     C_R   0.539718 0.743543 0.218468 -0.144526
C14   C     C_R   0.666413 0.676157 0.189968 -0.029150
C15   C     C_R   0.781063 0.639144 0.229862 -0.130669
C16   C     C_R   0.770511 0.654641 0.300342 0.196254
C17   C     C_R   0.641394 0.708969 0.329919 0.000479
C18   C     C_R   0.243707 0.231930 0.287924 -0.133057
C19   C     C_R   0.214457 0.248597 0.219277 -0.165249
C20   C     C_R   0.159828 0.178403 0.188367 -0.021029
C21   C     C_R   0.148839 0.078179 0.226154 0.229066
C22   C     C_R   0.152817 0.081861 0.298220 0.212405
C23   C     C_R   0.240641 0.145418 0.598129 0.558165
C24   C     C_R   0.206062 0.155847 0.328725 -0.007480
C25   C     C_R   0.702894 0.013365 0.276438 -0.099721
C26   C     C_R   0.717024 0.045326 0.209707 -0.106594
C27   C     C_R   0.660083 0.180434 0.189815 0.064302
C28   C     C_R   0.577776 0.283970 0.235963 0.067236
C29   C     C_R   0.563238 0.250680 0.302534 -0.115954
C30   C     C_R   0.630354 0.115845 0.323780 0.017106
C31   C     C_R   0.082133 0.231139 0.928656 0.546102
C32   C     C_R   0.683398 0.605391 0.929615 0.544113
C33   C     C_R   0.706785 0.205777 0.930761 0.535730
C34   C     C_R   0.619861 0.082123 0.394485 0.537004
C35   C     C_R   0.087544 0.231698 0.123949 0.574902
C36   C     C_R   0.682469 0.615038 0.124067 0.558923
C37   C     C_R   0.705945 0.210258 0.126085 0.565015
C38   C     C_R   0.615961 0.741885 0.401446 0.568933
C39   C     C_R   0.247161 0.139471 0.400156 0.600303
C40   C     C_1   0.669735 0.647702 0.860246 0.008199
C41   C     C_1   0.654953 0.683806 0.728468 -0.028686
C42   C     C_1   0.663094 0.667601 0.799750 -0.029084
Cr1   Cr    Cr6+3 0.404720 0.198220 0.499960 1.070491
Cr2   Cr    Cr6+3 0.698290 0.897110 0.500380 1.126726
Cr3   Cr    Cr6+3 0.396970 0.904720 0.499610 1.090937
Cr4   Cr    Cr6+3 0.926180 0.152240 0.028110 1.110122
Cr5   Cr    Cr6+3 0.921340 0.452070 0.027460 1.038563
Cr6   Cr    Cr6+3 0.626260 0.447120 0.028700 1.058110
H1    H     H_    0.426095 0.810715 0.308943 0.214093
H2    H     H_    0.778139 0.964236 0.174481 0.157938
H3    H     H_    0.503169 0.331594 0.338059 0.154465
H4    H     H_    0.452188 0.776213 0.186864 0.222310
H5    H     H_    0.879767 0.588867 0.206614 0.177799
H6    H     H_    0.291257 0.284285 0.309522 0.180404
H7    H     H_    0.230961 0.319659 0.190826 0.162303
H8    H     H_    0.751245 0.909024 0.291521 0.159145
O1    O     O_R   0.267740 0.231990 0.575440 -0.498285
O2    O     O_R   0.685970 0.784630 0.430010 -0.457109
O3    O     O_R   0.502530 0.766960 0.423990 -0.500413
O4    O     O_R   0.288330 0.026310 0.429250 -0.449888
O5    O     O_3   0.499990 0.000020 0.499980 -0.339096
O6    O     O_R   0.821500 0.119550 0.952820 -0.508409
O7    O     O_R   0.037130 0.162750 0.957360 -0.488317
O8    O     O_R   0.056440 0.344950 0.951330 -0.506884
O9    O     O_R   0.797900 0.560570 0.957460 -0.495864
O10   O     O_R   0.596140 0.579600 0.952720 -0.504019
O11   O     O_R   0.639070 0.321380 0.958660 -0.499748
O12   O     O_R   0.527280 0.186680 0.570530 -0.476814
O13   O     O_R   0.821240 0.124490 0.104360 -0.471951
O14   O     O_R   0.036900 0.167320 0.097830 -0.421017
O15   O     O_R   0.056190 0.349890 0.102870 -0.525577
O16   O     O_R   0.797670 0.565150 0.097930 -0.511745
O17   O     O_R   0.595880 0.584540 0.104260 -0.485860
O18   O     O_R   0.638830 0.325960 0.099140 -0.468210
O19   O     O_3   0.824590 0.350480 0.028090 -0.272001
O20   O     O_R   0.728090 0.003480 0.576380 -0.475540
O21   O     O_R   0.682970 0.789220 0.570490 -0.502644
O22   O     O_R   0.499290 0.771920 0.575530 -0.497322
O23   O     O_R   0.285330 0.030900 0.569730 -0.484707
O24   O     O_R   0.270980 0.227040 0.423900 -0.494822
O25   O     O_R   0.530280 0.182090 0.430050 -0.507032
O26   O     O_R   0.731330 0.998530 0.424830 -0.416909
N1    N     N_3   0.515495 0.422881 0.217135 -0.571417
H9    H     H_    0.550816 0.470104 0.250001 0.254751
H10   H     H_    0.411980 0.467030 0.224904 0.245762
S1    S     S_3+6 0.920682 0.599372 0.348032 0.027647
O27   O     O_2   0.922916 0.716802 0.380484 -0.259134
O28   O     O_2   0.929423 0.504812 0.403292 -0.221444
O29   O     O_3   0.055666 0.519871 0.296795 -0.542551
H11   H     H_    0.064352 0.592192 0.274401 0.355683
S2    S     S_3+6 0.159822 0.934140 0.185005 0.031707
O30   O     O_2   0.235838 0.811891 0.229128 -0.285998
O31   O     O_2   0.022591 0.954439 0.173373 -0.229761
O32   O     O_3   0.239465 0.906464 0.109304 -0.557717
H12   H     H_    0.246193 0.822701 0.091360 0.357303
S3    S     S_3+6 0.079132 0.007924 0.349583 0.091631
O33   O     O_2   0.017416 0.091886 0.412759 -0.260169
O34   O     O_2   0.971150 0.999867 0.310622 -0.214658
O35   O     O_3   0.197820 0.852318 0.373118 -0.485419
H13   H     H_    0.149028 0.816440 0.399121 0.377798

loop_
_geom_bond_atom_site_label_1
_geom_bond_atom_site_label_2
_ccdc_geom_bond_type
C37   O18   A    
Cr3   O4    S    
C37   O13   A    
C41   C42   S    
C19   C20   A    
C25   H8    S    
C2    C12   S    
C1    O12   A    
Cr1   O5    S    
C26   C27   A    
Cr4   O6    S    
C18   C24   A    
C15   H5    S    
Cr2   O21   S    
C29   H3    S    
C33   O6    A    
Cr2   O26   S    
C26   H2    S    
C14   C36   S    
S1    O28   D    
C6    C23   S    
C2    C41   T    
C15   C16   A    
S3    O35   S    
C24   C39   S    
C7    C9    T    
C18   C19   A    
Cr2   O20   S    
Cr4   O13   S    
C38   O2    A    
C20   C35   S    
C11   C17   A    
N1    H9    S    
C35   O14   A    
Cr2   O2    S    
C8    C9    S    
S3    O34   D    
Cr3   O22   S    
C34   O25   A    
C40   C42   T    
C35   O15   A    
C21   C22   A    
S3    O33   D    
C28   N1    S    
C16   S1    S    
C7    C33   S    
Cr6   O19   S    
C31   O8    A    
Cr4   O19   S    
C30   C34   S    
Cr6   O18   S    
C4    C6    T    
Cr5   O8    S    
Cr1   O1    S    
S1    O27   D    
Cr1   O12   S    
Cr1   O24   S    
C12   O22   A    
C29   C30   A    
C11   H1    S    
C31   O7    A    
S2    O31   D    
C13   H4    S    
O35   H13   S    
C12   O21   A    
Cr3   O23   S    
C3    C31   S    
Cr5   O15   S    
N1    H10   S    
Cr1   O25   S    
C22   C24   A    
C28   C29   A    
S2    O30   D    
C33   O11   A    
C32   O10   A    
C21   S2    S    
C19   H7    S    
C25   C30   A    
C23   O1    A    
Cr3   O3    S    
C1    O20   A    
C22   S3    S    
Cr6   O17   S    
C1    C10   S    
C4    C5    S    
C3    C5    T    
S1    O29   S    
Cr2   O5    S    
Cr4   O7    S    
Cr6   O10   S    
C39   O24   A    
C25   C26   A    
Cr5   O19   S    
S2    O32   S    
C11   C13   A    
C16   C17   A    
C27   C37   S    
C39   O4    A    
Cr3   O5    S    
C17   C38   S    
C32   C40   S    
Cr6   O11   S    
O32   H12   S    
Cr5   O16   S    
Cr4   O14   S    
C36   O17   A    
C18   H6    S    
C38   O3    A    
C20   C21   A    
C8    C10   T    
C27   C28   A    
C14   C15   A    
C34   O26   A    
C23   O23   A    
O29   H11   S    
C13   C14   A    
Cr5   O9    S    
C36   O16   A    
C32   O9    A    
