data_mof_unit_39175.cif
_audit_creation_date              2013-03-05T16:42:23-0500
_audit_creation_method            fapswitch 2.2
_symmetry_space_group_name_H-M    P1
_symmetry_Int_Tables_number       1
_space_group_crystal_system       triclinic
_cell_length_a                    9.93287
_cell_length_b                    10.729793
_cell_length_c                    15.35644
_cell_angle_alpha                 89.828077
_cell_angle_beta                  68.686299
_cell_angle_gamma                 87.669917
_cell_volume                      1523.3305535

loop_
_atom_site_label
_atom_site_type_symbol
_atom_site_description
_atom_site_fract_x
_atom_site_fract_y
_atom_site_fract_z
_atom_type_partial_charge
O1    O     O_R   0.385310 0.683210 0.499990 -0.619704
O2    O     O_R   0.614650 0.683240 0.500000 -0.558025
C1    C     C_R   0.497898 0.740069 0.499546 0.926182
O3    O     O_R   0.319830 0.499970 0.632240 -0.608703
O4    O     O_R   0.549170 0.500000 0.632250 -0.620703
C2    C     C_R   0.410264 0.494484 0.676019 0.901795
Zn1   Zn    Zn3+2 0.346870 0.499980 0.499990 0.946267
Zn2   Zn    Zn3+2 0.653130 0.500020 0.500010 0.986657
O5    O     O_R   0.385350 0.316760 0.500000 -0.629967
O6    O     O_R   0.614690 0.316790 0.500010 -0.623622
O7    O     O_R   0.450830 0.500000 0.367750 -0.623951
O8    O     O_R   0.680170 0.500030 0.367760 -0.621988
C3    C     C_R   0.502605 0.260642 0.500196 0.877238
C4    C     C_R   0.589767 0.498387 0.323936 0.850233
C5    C     C_R   0.360308 0.460099 0.774951 -0.045412
C6    C     C_R   0.642841 0.482897 0.222366 -0.053664
C7    C     C_R   0.186768 0.368712 0.912783 -0.209661
C8    C     C_R   0.222256 0.415278 0.822241 -0.194215
C9    C     C_R   0.462357 0.453670 0.817753 -0.244151
C10   C     C_R   0.433189 0.397300 0.904233 0.095464
C11   C     C_R   0.290117 0.364419 0.955548 0.180580
C12   C     C_R   0.540168 0.386762 0.944648 0.057575
C13   C     C_R   0.494336 0.381891 0.043038 0.034786
C14   C     C_R   0.350865 0.346846 0.093970 -0.206244
C15   C     C_R   0.252124 0.333024 0.049474 -0.227961
C16   C     C_R   0.690650 0.386776 0.891205 0.160803
C17   C     C_R   0.785224 0.424451 0.933251 -0.243459
C18   C     C_R   0.735896 0.446449 0.029178 0.129082
C19   C     C_R   0.592468 0.417585 0.085721 0.089280
C20   C     C_R   0.829181 0.494945 0.069403 -0.187926
C21   C     C_R   0.782228 0.514481 0.165516 -0.199778
C22   C     C_R   0.549520 0.434641 0.182362 -0.236195
H1    H     H_    0.143100 0.306691 0.090201 0.151367
H2    H     H_    0.442113 0.413513 0.227985 0.144094
H3    H     H_    0.853628 0.556420 0.194783 0.149919
H4    H     H_    0.898115 0.434294 0.890971 0.149225
H5    H     H_    0.079087 0.336572 0.949476 0.142024
H6    H     H_    0.143067 0.415338 0.789036 0.146282
H7    H     H_    0.565748 0.494076 0.783262 0.171939
H8    H     H_    0.312151 0.328464 0.167843 0.136293
H9    H     H_    0.937252 0.520612 0.026334 0.152103
C23   C     C_R   0.375550 0.943638 0.557342 0.088198
C24   C     C_R   0.496315 0.872926 0.499775 -0.141840
C25   C     C_R   0.628256 0.930876 0.455814 -0.107423
H10   H     H_    0.725850 0.877312 0.415476 0.187553
C26   C     C_R   0.633419 0.059410 0.459888 -0.189294
H11   H     H_    0.733466 0.103903 0.421430 0.154794
C27   C     C_R   0.505966 0.129435 0.506843 -0.102547
C28   C     C_R   0.381560 0.070800 0.560044 0.036116
C29   C     C_3   0.228163 0.096738 0.570266 -0.131750
C30   C     C_3   0.217870 0.954582 0.567678 0.387637
H12   H     H_    0.217456 0.144366 0.508443 0.182748
C31   C     C_R   0.883292 0.523762 0.580105 0.055754
N1    N     N_R   0.856900 0.500860 0.500610 -0.079729
C32   C     C_R   0.973896 0.454018 0.425282 0.247154
C33   C     C_R   0.117370 0.458158 0.424804 -0.088574
H13   H     H_    0.208179 0.426253 0.363929 0.134840
N2    N     N_R   0.142540 0.500820 0.500610 -0.105051
C34   C     C_R   0.024729 0.520004 0.580776 0.067104
C35   C     C_3   0.993753 0.629982 0.644062 -0.429921
C36   C     C_3   0.841399 0.637032 0.642099 0.133485
H14   H     H_    0.997220 0.605337 0.713606 0.187776
H15   H     H_    0.062343 0.706013 0.608375 0.263043
H16   H     H_    0.756413 0.621469 0.711457 0.101292
C37   C     C_3   0.141556 0.165586 0.662142 -0.766892
H17   H     H_    0.158500 0.121091 0.723013 0.267968
H18   H     H_    0.174608 0.263551 0.658262 0.237161
H19   H     H_    0.025313 0.166918 0.672251 0.260320
N3    N     N_R   0.120417 0.904750 0.656324 0.217328
O9    O     O_R   0.981391 0.926709 0.682514 -0.356911
O10   O     O_R   0.171191 0.839988 0.710308 -0.412305
C38   C     C_3   0.186650 0.910482 0.481908 -0.879776
H20   H     H_    0.269381 0.943489 0.416294 0.206168
H21   H     H_    0.186566 0.807712 0.477834 0.274846
H22   H     H_    0.079334 0.949468 0.485866 0.288164
C39   C     C_3   0.954941 0.394221 0.342887 -0.860091
H23   H     H_    0.860807 0.333827 0.365920 0.266290
H24   H     H_    0.944184 0.467589 0.294995 0.244780
H25   H     H_    0.050658 0.333128 0.303093 0.190873
N4    N     N_R   0.812343 0.748599 0.595687 0.275810
O11   O     O_R   0.893453 0.773300 0.510036 -0.424841
O12   O     O_R   0.704512 0.824953 0.640849 -0.347078
C40   C     C_3   0.756895 0.329939 0.794633 -0.901752
H26   H     H_    0.676440 0.286417 0.771050 0.265059
H27   H     H_    0.814715 0.401087 0.744267 0.221012
H28   H     H_    0.835809 0.254407 0.795644 0.258646

loop_
_geom_bond_atom_site_label_1
_geom_bond_atom_site_label_2
_geom_bond_distance
_ccdc_geom_bond_type
C5    C8    1.402362 A    
C32   C33   1.424952 A    
C16   C40   1.505860 S    
C9    C10   1.393972 A    
C39   H25   1.111948 S    
C31   C34   1.407594 A    
C31   N1    1.363467 A    
C6    C21   1.396995 A    
Zn1   O7    1.914631 S    
C1    C24   1.424968 S    
C16   C17   1.391452 A    
C35   H15   1.095957 S    
C13   C19   1.422219 A    
C18   C19   1.419330 A    
C39   H24   1.104016 S    
C19   C22   1.397485 A    
O3    Zn1   1.949392 S    
C20   C21   1.390473 A    
O7    C4    1.296398 A    
C36   N4    1.463084 S    
C33   H13   1.080987 S    
C35   H14   1.111711 S    
N3    O10   1.302462 A    
O5    C3    1.290187 A    
C2    C5    1.467632 S    
C26   H11   1.083737 S    
C31   C36   1.494794 S    
C37   H18   1.108915 S    
C29   H12   1.113481 S    
C13   C14   1.419689 A    
C20   H9    1.082785 S    
Zn1   N2    2.025795 S    
C23   C30   1.515413 S    
C34   C35   1.480418 S    
C38   H22   1.109831 S    
C25   C26   1.384628 A    
C7    C8    1.400345 A    
C26   C27   1.396240 A    
C14   C15   1.396578 A    
C38   H21   1.104706 S    
Zn2   N1    2.027775 S    
N4    O11   1.301641 A    
N2    C34   1.364540 A    
C7    C11   1.404730 A    
C35   C36   1.523354 S    
O1    C1    1.293377 A    
C22   H2    1.075080 S    
C36   H16   1.109820 S    
C5    C9    1.393787 A    
C24   C25   1.407296 A    
C3    C27   1.411128 S    
C40   H26   1.108884 S    
Zn2   O8    1.949389 S    
C37   H19   1.107174 S    
C29   C30   1.534466 S    
C7    H5    1.082193 S    
C39   H23   1.107599 S    
C9    H7    1.078225 S    
C32   C39   1.495305 S    
N4    O12   1.300548 A    
C27   C28   1.384369 A    
C40   H27   1.104554 S    
C10   C12   1.412911 A    
C37   H17   1.111403 S    
C12   C16   1.419857 A    
C21   H3    1.079970 S    
O3    C2    1.302607 A    
C30   C38   1.538658 S    
C25   H10   1.083537 S    
Zn1   O5    1.987421 S    
C11   C15   1.395721 A    
N1    C32   1.385639 A    
O1    Zn1   2.017934 S    
O2    Zn2   1.987421 S    
O8    C4    1.303922 A    
C38   H20   1.111561 S    
O6    C3    1.286336 A    
O4    Zn2   1.914631 S    
C17   H4    1.081687 S    
C6    C22   1.399858 A    
C18   C20   1.402894 A    
O2    C1    1.290376 A    
C8    H6    1.081771 S    
O4    C2    1.300462 A    
C14   H8    1.077686 S    
C33   N2    1.360620 A    
C4    C6    1.461182 S    
N3    O9    1.301764 A    
C29   C37   1.532524 S    
C23   C28   1.369559 A    
C40   H28   1.108412 S    
C10   C11   1.410682 A    
Zn2   O6    2.017934 S    
C28   C29   1.488491 S    
C23   C24   1.398292 A    
C17   C18   1.390604 A    
C12   C13   1.412193 A    
C30   N3    1.468277 S    
C15   H1    1.084055 S    
