data_mof_unit_63762.cif
_audit_creation_date              2012-10-26T17:37:19-0400
_audit_creation_method            fapswitch 2.2
_symmetry_space_group_name_H-M    P1
_symmetry_Int_Tables_number       1
_space_group_crystal_system       triclinic
_cell_length_a                    21.678168
_cell_length_b                    21.678255
_cell_length_c                    39.034316
_cell_angle_alpha                 90.000094
_cell_angle_beta                  90.000235
_cell_angle_gamma                 89.99954
_cell_volume                      18343.9759265

loop_
_atom_site_label
_atom_site_type_symbol
_atom_type_description
_atom_site_fract_x
_atom_site_fract_y
_atom_site_fract_z
_atom_type_partial_charge
C1    C     C_R   0.618846 1.000000 0.500000 0.549272
C2    C     C_R   0.039013 0.781876 0.477649 -0.133523
C3    C     C_R   1.000000 0.500000 0.103900 0.017511
C4    C     C_R   0.999999 0.499999 0.396099 0.017245
C5    C     C_R   0.500000 1.000000 0.396100 0.017515
C6    C     C_R   0.000000 0.500000 0.603900 0.017263
C7    C     C_R   0.500000 1.000000 0.603902 0.017488
C8    C     C_R   0.444219 0.996321 0.767260 -0.113793
C9    C     C_R   0.944221 0.502455 0.768494 -0.114667
C10   C     C_R   0.555778 0.003675 0.767261 -0.113793
C11   C     C_R   0.055781 0.497545 0.768494 -0.114667
C12   C     C_R   0.444199 0.003307 0.232735 -0.113761
C13   C     C_R   0.218123 0.039004 0.477644 -0.133707
C14   C     C_R   0.944222 0.497462 0.231505 -0.114664
C15   C     C_R   0.555802 0.996693 0.232736 -0.113761
C16   C     C_R   0.055775 0.502534 0.231505 -0.114665
C17   C     C_R   0.944195 0.496721 0.267265 -0.113761
C18   C     C_R   0.444225 0.002567 0.268495 -0.114664
C19   C     C_R   0.055802 0.503274 0.267265 -0.113760
C20   C     C_R   0.555775 0.997433 0.268496 -0.114664
C21   C     C_R   0.944193 0.503195 0.732734 -0.113741
C22   C     C_R   0.444242 0.997057 0.731500 -0.114661
C23   C     C_R   0.055808 0.496805 0.732734 -0.113741
C24   C     C_R   0.960987 0.218124 0.477650 -0.133523
C25   C     C_R   0.555756 0.002940 0.731500 -0.114662
C26   C     C_R   0.499999 0.999999 0.713484 0.025036
C27   C     C_R   0.000001 0.500000 0.714330 0.031720
C28   C     C_R   0.500000 0.000000 0.286514 0.025123
C29   C     C_R   0.999998 0.499998 0.285669 0.031716
C30   C     C_R   0.999999 0.499998 0.213486 0.025126
C31   C     C_R   0.500000 1.000000 0.214332 0.031715
C32   C     C_R   0.000001 0.500000 0.786515 0.025195
C33   C     C_R   0.499998 0.999998 0.785663 0.031701
C34   C     C_R   0.717766 0.960236 0.478061 -0.133310
C35   C     C_R   0.781876 0.039003 0.522356 -0.133707
C36   C     C_R   0.039772 0.717766 0.478066 -0.133083
C37   C     C_R   0.282233 0.039764 0.478061 -0.133310
C38   C     C_R   0.960227 0.282233 0.478067 -0.133083
C39   C     C_R   0.717766 0.039762 0.521939 -0.133308
C40   C     C_R   0.039774 0.282233 0.521933 -0.133085
C41   C     C_R   0.282234 0.960238 0.521939 -0.133308
C42   C     C_R   0.960226 0.717767 0.521933 -0.133086
C43   C     C_R   0.217766 0.460237 0.978060 -0.133319
C44   C     C_R   0.539773 0.217767 0.978067 -0.133072
C45   C     C_R   0.782233 0.539763 0.978061 -0.133319
C46   C     C_R   0.039014 0.218123 0.522350 -0.133523
C47   C     C_R   0.460226 0.782233 0.978067 -0.133072
C48   C     C_R   0.217766 0.539761 0.021939 -0.133310
C49   C     C_R   0.539775 0.782233 0.021933 -0.133082
C50   C     C_R   0.782234 0.460239 0.021940 -0.133310
C51   C     C_R   0.460225 0.217767 0.021932 -0.133082
C52   C     C_R   0.218125 0.960998 0.522356 -0.133707
C53   C     C_R   0.960986 0.781877 0.522350 -0.133523
C54   C     C_R   0.281876 0.460997 0.977643 -0.133709
C55   C     C_R   0.539014 0.281876 0.977650 -0.133519
C56   C     C_R   0.718124 0.539003 0.977644 -0.133709
C57   C     C_R   1.000000 0.618846 0.500000 0.549393
C58   C     C_R   0.460985 0.718124 0.977650 -0.133519
C59   C     C_R   0.281875 0.539002 0.022356 -0.133709
C60   C     C_R   0.539015 0.718123 0.022350 -0.133520
C61   C     C_R   0.718125 0.460999 0.022357 -0.133709
C62   C     C_R   0.460985 0.281877 0.022349 -0.133520
C63   C     C_R   0.813946 1.000000 0.500000 0.026065
C64   C     C_R   1.000000 0.813946 0.500000 0.026034
C65   C     C_R   0.186054 0.000000 0.500000 0.026065
C66   C     C_R   0.000000 0.186054 0.500000 0.026034
C67   C     C_R   0.313946 0.500000 1.000000 0.026062
C68   C     C_R   0.381154 0.000000 0.500000 0.549272
C69   C     C_R   0.499999 0.313946 1.000000 0.026036
C70   C     C_R   0.686054 0.500000 0.000000 0.026062
C71   C     C_R   0.500000 0.686054 0.000000 0.026036
C72   C     C_R   0.685699 0.999999 0.500000 0.026508
C73   C     C_R   0.999999 0.685699 0.500000 0.026504
C74   C     C_R   0.314301 0.000001 0.500000 0.026508
C75   C     C_R   0.000001 0.314300 0.500000 0.026504
C76   C     C_R   0.185699 0.499999 1.000000 0.026502
C77   C     C_R   0.499999 0.185699 1.000000 0.026510
C78   C     C_R   0.814301 0.500001 0.000000 0.026502
C79   C     C_R   0.000000 0.381154 0.500000 0.549393
C80   C     C_R   0.500001 0.814300 0.000000 0.026510
C81   C     C_R   0.000000 0.119197 0.500000 0.548815
C82   C     C_R   0.880803 0.000000 0.500000 0.548814
C83   C     C_R   1.000000 0.880803 0.500000 0.548815
C84   C     C_R   0.119197 0.000000 0.500000 0.548814
C85   C     C_R   0.500000 0.619197 0.000000 0.548815
C86   C     C_R   0.380803 0.500000 1.000000 0.548813
C87   C     C_R   0.500000 0.380803 1.000000 0.548816
C88   C     C_R   0.619197 0.500000 0.000000 0.548813
C89   C     C_R   0.500000 0.000000 0.566214 0.544500
C90   C     C_R   0.118846 0.500000 1.000000 0.549251
C91   C     C_R   0.000000 0.500000 0.566213 0.544528
C92   C     C_R   0.500000 1.000000 0.433787 0.544494
C93   C     C_R   1.000000 0.500000 0.433787 0.544535
C94   C     C_R   0.000000 0.500000 0.066213 0.544493
C95   C     C_R   0.500000 1.000000 0.066213 0.544537
C96   C     C_R   1.000000 0.500000 0.933788 0.544466
C97   C     C_R   0.500000 0.000000 0.933785 0.544564
C98   C     C_R   0.549063 0.973378 0.877954 -0.128065
C99   C     C_R   0.027006 0.548984 0.877957 -0.129172
C100  C     C_R   0.450935 0.026620 0.877954 -0.128065
C101  C     C_R   0.500000 0.118846 0.000000 0.549420
C102  C     C_R   0.972995 0.451015 0.877957 -0.129172
C103  C     C_R   0.548926 0.026873 0.122039 -0.128047
C104  C     C_R   0.026774 0.450888 0.122049 -0.129203
C105  C     C_R   0.451075 0.973127 0.122038 -0.128047
C106  C     C_R   0.973225 0.549111 0.122049 -0.129203
C107  C     C_R   0.048912 0.473102 0.377962 -0.128046
C108  C     C_R   0.526787 0.049104 0.377951 -0.129203
C109  C     C_R   0.951087 0.526896 0.377962 -0.128045
C110  C     C_R   0.473213 0.950896 0.377951 -0.129203
C111  C     C_R   0.048882 0.526952 0.622036 -0.128041
C112  C     C_R   0.881154 0.500000 1.000000 0.549252
C113  C     C_R   0.526719 0.950858 0.622052 -0.129227
C114  C     C_R   0.951119 0.473047 0.622036 -0.128041
C115  C     C_R   0.473280 0.049142 0.622052 -0.129228
C116  C     C_R   0.548736 0.972701 0.842193 -0.118703
C117  C     C_R   0.027685 0.548577 0.842188 -0.120657
C118  C     C_R   0.451261 0.027295 0.842193 -0.118703
C119  C     C_R   0.972317 0.451422 0.842188 -0.120657
C120  C     C_R   0.548593 0.027554 0.157799 -0.118675
C121  C     C_R   0.027448 0.451289 0.157818 -0.120672
C122  C     C_R   0.451408 0.972445 0.157799 -0.118675
C123  C     C_R   0.500000 0.881154 0.000000 0.549420
C124  C     C_R   0.972551 0.548710 0.157818 -0.120672
C125  C     C_R   0.048577 0.472418 0.342202 -0.118673
C126  C     C_R   0.527462 0.048703 0.342183 -0.120671
C127  C     C_R   0.951420 0.527578 0.342202 -0.118673
C128  C     C_R   0.472538 0.951297 0.342182 -0.120672
C129  C     C_R   0.048547 0.527636 0.657796 -0.118666
C130  C     C_R   0.527391 0.951257 0.657821 -0.120672
C131  C     C_R   0.951454 0.472364 0.657796 -0.118665
C132  C     C_R   0.472608 0.048742 0.657821 -0.120672
C133  C     C_R   0.499998 0.999998 0.823794 0.031944
C134  C     C_R   0.781876 0.960996 0.477644 -0.133707
C135  C     C_R   0.000001 0.499999 0.824159 0.025459
C136  C     C_R   0.500000 1.000000 0.176200 0.031950
C137  C     C_R   0.999999 0.499999 0.175845 0.025397
C138  C     C_R   0.999998 0.499998 0.323801 0.031949
C139  C     C_R   0.500000 0.000000 0.324155 0.025393
C140  C     C_R   0.000001 0.500000 0.676198 0.031951
C141  C     C_R   0.499999 0.999999 0.675846 0.025304
C142  C     C_R   0.499999 1.000000 0.896093 0.017161
C143  C     C_R   0.000000 0.500000 0.896103 0.017582
C144  C     C_R   0.500000 1.000000 0.103901 0.017237
Cu1   Cu    Cu3+1 0.500000 0.061870 0.500000 0.925516
Cu2   Cu    Cu3+1 0.000000 0.000000 0.534130 0.927845
Cu3   Cu    Cu3+1 0.500000 0.500000 0.965870 0.927848
Cu4   Cu    Cu3+1 0.500000 0.500000 0.034130 0.927848
Cu5   Cu    Cu3+1 0.938130 0.500000 0.500000 0.925516
Cu6   Cu    Cu3+1 0.500000 0.938130 0.500000 0.925516
Cu7   Cu    Cu3+1 0.061870 0.500000 0.500000 0.925516
Cu8   Cu    Cu3+1 1.000000 0.561870 0.000000 0.925542
Cu9   Cu    Cu3+1 0.438130 0.000000 0.000000 0.925488
Cu10  Cu    Cu3+1 1.000000 0.438130 0.000000 0.925543
Cu11  Cu    Cu3+1 0.561870 0.000000 0.000000 0.925488
Cu12  Cu    Cu3+1 0.000000 0.000000 0.465870 0.927846
H1    H     H_    0.587136 0.951993 0.891444 0.124808
H2    H     H_    0.547969 0.087300 0.391427 0.125209
H3    H     H_    0.913138 0.548497 0.391455 0.124696
H4    H     H_    0.452031 0.912700 0.391427 0.125209
H5    H     H_    0.086805 0.548595 0.608543 0.124672
H6    H     H_    0.547850 0.912632 0.608577 0.125238
H7    H     H_    0.913196 0.451404 0.608543 0.124673
H8    H     H_    0.452150 0.087368 0.608577 0.125238
H9    H     H_    0.586361 0.949983 0.829053 0.103330
H10   H     H_    0.049139 0.586432 0.828540 0.111399
H11   H     H_    0.413636 0.050012 0.829052 0.103329
H12   H     H_    0.048357 0.587083 0.891435 0.125118
H13   H     H_    0.950864 0.413567 0.828540 0.111399
H14   H     H_    0.586096 0.050475 0.170937 0.103310
H15   H     H_    0.048717 0.413331 0.171468 0.111464
H16   H     H_    0.413905 0.949524 0.170937 0.103310
H17   H     H_    0.951282 0.586667 0.171468 0.111465
H18   H     H_    0.086068 0.449476 0.329064 0.103310
H19   H     H_    0.548741 0.086653 0.328533 0.111467
H20   H     H_    0.913929 0.550520 0.329064 0.103310
H21   H     H_    0.451259 0.913347 0.328532 0.111467
H22   H     H_    0.086010 0.550623 0.670934 0.103303
H23   H     H_    0.412862 0.048006 0.891443 0.124808
H24   H     H_    0.548619 0.913279 0.671473 0.111551
H25   H     H_    0.913990 0.449378 0.670934 0.103303
H26   H     H_    0.451381 0.086719 0.671473 0.111551
H27   H     H_    0.400475 0.992038 0.780396 0.101304
H28   H     H_    0.900783 0.504846 0.782152 0.108750
H29   H     H_    0.599522 0.007958 0.780396 0.101305
H30   H     H_    0.099219 0.495153 0.782152 0.108750
H31   H     H_    0.400425 0.007304 0.219602 0.101283
H32   H     H_    0.900789 0.495013 0.217844 0.108817
H33   H     H_    0.599576 0.992696 0.219603 0.101283
H34   H     H_    0.951644 0.412916 0.891435 0.125117
H35   H     H_    0.099209 0.504983 0.217845 0.108817
H36   H     H_    0.900419 0.492748 0.280397 0.101283
H37   H     H_    0.400793 0.005040 0.282156 0.108819
H38   H     H_    0.099578 0.507247 0.280398 0.101283
H39   H     H_    0.599207 0.994960 0.282156 0.108819
H40   H     H_    0.900411 0.507105 0.719602 0.101276
H41   H     H_    0.400829 0.994295 0.717837 0.108902
H42   H     H_    0.099591 0.492895 0.719602 0.101276
H43   H     H_    0.599169 0.005701 0.717838 0.108902
H44   H     H_    0.693195 0.929531 0.460929 0.122113
H45   H     H_    0.586885 0.048454 0.108546 0.124705
H46   H     H_    0.070485 0.693195 0.460938 0.122315
H47   H     H_    0.306804 0.070469 0.460929 0.122112
H48   H     H_    0.929515 0.306805 0.460938 0.122314
H49   H     H_    0.693195 0.070467 0.539071 0.122108
H50   H     H_    0.070487 0.306803 0.539061 0.122315
H51   H     H_    0.306806 0.929533 0.539071 0.122109
H52   H     H_    0.929513 0.693197 0.539061 0.122315
H53   H     H_    0.193195 0.429533 0.960928 0.122117
H54   H     H_    0.570487 0.193195 0.960940 0.122309
H55   H     H_    0.806804 0.570467 0.960928 0.122117
H56   H     H_    0.047946 0.412686 0.108573 0.125214
H57   H     H_    0.429512 0.806805 0.960940 0.122309
H58   H     H_    0.193194 0.570465 0.039072 0.122114
H59   H     H_    0.570489 0.806803 0.039060 0.122313
H60   H     H_    0.806806 0.429535 0.039072 0.122114
H61   H     H_    0.429511 0.193197 0.039060 0.122313
H62   H     H_    0.806445 0.930531 0.460379 0.122378
H63   H     H_    0.069486 0.806444 0.460388 0.122477
H64   H     H_    0.193555 0.069469 0.460379 0.122378
H65   H     H_    0.930514 0.193556 0.460389 0.122477
H66   H     H_    0.806444 0.069468 0.539621 0.122374
H67   H     H_    0.413116 0.951546 0.108546 0.124706
H68   H     H_    0.069487 0.193555 0.539611 0.122479
H69   H     H_    0.193557 0.930532 0.539621 0.122374
H70   H     H_    0.930513 0.806446 0.539611 0.122480
H71   H     H_    0.306444 0.430533 0.960378 0.122383
H72   H     H_    0.569488 0.306444 0.960390 0.122472
H73   H     H_    0.693555 0.569467 0.960378 0.122383
H74   H     H_    0.430511 0.693556 0.960390 0.122472
H75   H     H_    0.306443 0.569466 0.039622 0.122378
H76   H     H_    0.569489 0.693555 0.039610 0.122477
H77   H     H_    0.693557 0.430534 0.039622 0.122378
H78   H     H_    0.952054 0.587313 0.108574 0.125214
H79   H     H_    0.430511 0.306446 0.039610 0.122478
H80   H     H_    0.086860 0.451502 0.391455 0.124696
O1    O     O_R   0.590130 0.052260 0.500070 -0.509708
O2    O     O_R   0.447740 0.090130 0.000070 -0.509691
O3    O     O_R   0.909870 0.447740 0.000070 -0.509719
O4    O     O_R   0.552260 0.909870 0.000070 -0.509691
O5    O     O_R   0.090130 0.447740 0.999930 -0.509700
O6    O     O_R   0.447740 0.909870 0.999930 -0.509713
O7    O     O_R   0.909870 0.552260 0.999930 -0.509700
O8    O     O_R   0.552260 0.090130 0.999930 -0.509713
O9    O     O_R   0.499930 0.052260 0.549980 -0.511516
O10   O     O_R   0.947740 0.499930 0.549980 -0.511502
O11   O     O_R   0.500070 0.947740 0.549980 -0.511516
O12   O     O_R   0.947740 0.590130 0.500070 -0.509707
O13   O     O_R   0.052260 0.500070 0.549980 -0.511502
O14   O     O_R   0.499930 0.947740 0.450020 -0.511506
O15   O     O_R   0.947740 0.500070 0.450020 -0.511510
O16   O     O_R   0.500070 0.052260 0.450020 -0.511506
O17   O     O_R   0.052260 0.499930 0.450020 -0.511510
O18   O     O_R   0.999930 0.552260 0.049980 -0.511508
O19   O     O_R   0.447740 0.999930 0.049980 -0.511514
O20   O     O_R   0.000070 0.447740 0.049980 -0.511508
O21   O     O_R   0.552260 0.000070 0.049980 -0.511514
O22   O     O_R   0.999930 0.447740 0.950020 -0.511471
O23   O     O_R   0.409870 0.947740 0.500070 -0.509707
O24   O     O_R   0.447740 0.000070 0.950020 -0.511553
O25   O     O_R   0.000070 0.552260 0.950020 -0.511471
O26   O     O_R   0.552260 0.999930 0.950020 -0.511553
O27   O     O_R   0.999990 0.090340 0.471200 -0.511029
O28   O     O_R   0.909660 0.999990 0.471200 -0.511096
O29   O     O_R   0.000010 0.909660 0.471200 -0.511029
O30   O     O_R   0.090340 0.000010 0.471200 -0.511097
O31   O     O_R   0.999990 0.909660 0.528800 -0.511030
O32   O     O_R   0.909660 0.000010 0.528800 -0.511096
O33   O     O_R   0.000010 0.090340 0.528800 -0.511030
O34   O     O_R   0.052260 0.409870 0.500070 -0.509707
O35   O     O_R   0.090340 0.999990 0.528800 -0.511096
O36   O     O_R   0.499990 0.590340 0.971200 -0.511027
O37   O     O_R   0.409660 0.499990 0.971200 -0.511098
O38   O     O_R   0.500010 0.409660 0.971200 -0.511027
O39   O     O_R   0.590340 0.500010 0.971200 -0.511098
O40   O     O_R   0.499990 0.409660 0.028800 -0.511029
O41   O     O_R   0.409660 0.500010 0.028800 -0.511095
O42   O     O_R   0.500010 0.590340 0.028800 -0.511030
O43   O     O_R   0.590340 0.499990 0.028800 -0.511095
O44   O     O_R   0.590130 0.947740 0.499930 -0.509701
O45   O     O_R   0.947740 0.409870 0.499930 -0.509712
O46   O     O_R   0.409870 0.052260 0.499930 -0.509701
O47   O     O_R   0.052260 0.590130 0.499930 -0.509713
O48   O     O_R   0.090130 0.552260 0.000070 -0.509719

loop_
_geom_bond_atom_site_label_1
_geom_bond_atom_site_label_2
_ccdc_geom_bond_type
C3    C104  A    
C61   C70   A    
C4    C109  A    
Cu5   O15   S    
C96   O25   A    
C127  H20   S    
C34   C72   A    
C11   H30   S    
C61   H77   S    
C6    C111  A    
C48   C76   A    
Cu1   O16   S    
C77   C101  S    
C103  C120  A    
C111  H5    S    
C117  C135  A    
C37   C74   A    
C70   C88   S    
C103  C144  A    
C105  C144  A    
C51   C77   A    
Cu7   O13   S    
C13   C65   A    
C24   H65   S    
C51   H61   S    
C15   H33   S    
C40   C46   A    
C29   C138  S    
C28   C139  S    
C23   H42   S    
C45   H55   S    
C49   C60   A    
Cu9   O2    S    
C48   C59   A    
C25   H43   S    
C85   O36   A    
C99   C143  A    
Cu2   O35   S    
C88   O39   A    
C33   C133  S    
C99   H12   S    
C94   O20   A    
Cu5   Cu7   S    
C42   C53   A    
Cu11  O21   S    
C53   C64   A    
C93   O17   A    
C58   C71   A    
C108  H2    S    
C5    C110  A    
C34   C134  A    
C7    C115  A    
C6    C91   S    
C7    C89   S    
C39   H49   S    
C118  H11   S    
C132  C141  A    
C10   H29   S    
C46   H68   S    
Cu4   O41   S    
C114  C131  A    
C86   O41   A    
C121  C137  A    
C115  H8    S    
C130  C141  A    
C101  O8    A    
C6    C114  A    
C131  C140  A    
C22   H41   S    
C9    C32   A    
C59   C67   A    
C41   C74   A    
C71   C85   S    
Cu11  O26   S    
C98   C116  A    
C109  C127  A    
C112  O7    A    
Cu12  O29   S    
Cu3   Cu4   S    
C45   C56   A    
Cu4   O42   S    
C67   C86   S    
Cu1   O1    S    
C105  C122  A    
C24   C38   A    
C39   C72   A    
Cu4   O40   S    
Cu6   O23   S    
C42   H52   S    
C45   C78   A    
C87   O38   A    
C23   C27   A    
C102  C119  A    
Cu9   Cu11  S    
C26   C141  S    
C106  H78   S    
C20   H39   S    
C13   C37   A    
Cu1   Cu6   S    
C69   C87   S    
C24   C66   A    
Cu7   O17   S    
C132  H26   S    
Cu11  O8    S    
C76   C90   S    
C66   C81   S    
C113  H6    S    
Cu10  O5    S    
C59   H75   S    
C95   C144  S    
C3    C106  A    
C30   C137  S    
C38   H48   S    
Cu9   O6    S    
C98   C142  A    
C18   H37   S    
C125  H18   S    
C14   C17   A    
C15   C20   A    
C51   C62   A    
C36   H46   S    
C47   C80   A    
C14   C30   A    
C57   O12   A    
Cu1   O46   S    
C50   C78   A    
C2    C64   A    
Cu6   O14   S    
C68   O46   A    
C115  C132  A    
C92   O16   A    
C17   H36   S    
Cu6   O11   S    
C97   C142  S    
C4    C107  A    
C48   H58   S    
C126  C139  A    
C19   H38   S    
C1    C72   S    
C113  C130  A    
C63   C82   S    
C90   O48   A    
C79   O34   A    
C86   O37   A    
Cu12  O28   S    
C124  C137  A    
C83   O29   A    
C18   C28   A    
C107  C125  A    
C1    O44   A    
C35   H66   S    
C82   O32   A    
C65   C84   S    
Cu10  O20   S    
C104  C121  A    
C20   C28   A    
C60   C71   A    
C1    O1    A    
C25   C26   A    
C134  H62   S    
C12   H31   S    
Cu10  O3    S    
C68   C74   S    
C119  C135  A    
C89   O11   A    
C62   C69   A    
Cu9   O24   S    
C120  C136  A    
C40   H50   S    
C63   C134  A    
C41   H51   S    
C35   C39   A    
C103  H45   S    
C64   C83   S    
Cu3   O36   S    
C58   H74   S    
C16   H35   S    
Cu7   O47   S    
C53   H70   S    
C99   C117  A    
Cu12  O27   S    
C14   H32   S    
C46   C66   A    
C43   C54   A    
C8    C22   A    
C100  C142  A    
C98   H1    S    
C50   H60   S    
C117  H10   S    
C112  O3    A    
C5    C108  A    
C81   O33   A    
C37   H47   S    
C84   O30   A    
C55   C69   A    
Cu3   O38   S    
Cu2   O32   S    
C122  C136  A    
Cu3   O37   S    
C118  C133  A    
C130  H24   S    
C38   C75   A    
Cu8   O7    S    
C52   H69   S    
C97   O26   A    
C8    H27   S    
C32   C135  S    
C127  C138  A    
C119  H13   S    
Cu11  O4    S    
C81   O27   A    
Cu5   O12   S    
C122  H16   S    
C12   C31   A    
C82   O28   A    
C2    H63   S    
C21   C27   A    
C116  H9    S    
C100  C118  A    
C87   O40   A    
C104  H56   S    
C106  C124  A    
C19   C29   A    
C95   O19   A    
C110  H4    S    
C10   C25   A    
C55   H72   S    
C111  C129  A    
C123  O4    A    
C91   O13   A    
C2    C36   A    
C43   C76   A    
C95   O21   A    
C44   C77   A    
C42   C73   A    
C62   H79   S    
C41   C52   A    
C84   O35   A    
C121  H15   S    
C101  O2    A    
C60   H76   S    
C57   C73   S    
C128  C139  A    
Cu2   O33   S    
C131  H25   S    
Cu8   Cu10  S    
C31   C136  S    
Cu5   O10   S    
Cu10  O22   S    
C11   C32   A    
C68   O23   A    
C78   C112  S    
Cu4   O43   S    
Cu7   O34   S    
C15   C31   A    
C21   H40   S    
C124  H17   S    
C92   O14   A    
C125  C138  A    
C79   O45   A    
C10   C33   A    
C129  H22   S    
C49   H59   S    
C56   C70   A    
C27   C140  S    
C40   C75   A    
Cu1   O9    S    
C7    C113  A    
C94   O18   A    
C102  C143  A    
C83   O31   A    
C54   C67   A    
C9    H28   S    
C105  H67   S    
C17   C29   A    
C47   C58   A    
Cu8   O18   S    
C57   O47   A    
C44   C55   A    
C9    C21   A    
C114  H7    S    
C129  C140  A    
C75   C79   S    
C116  C133  A    
C16   C19   A    
C47   H57   S    
C11   C23   A    
Cu8   O48   S    
C102  H34   S    
C89   O9    A    
C56   H73   S    
C3    C94   S    
C44   H54   S    
C8    C33   A    
Cu8   O25   S    
Cu9   O19   S    
Cu2   O31   S    
C43   H53   S    
C88   O43   A    
Cu6   O44   S    
C54   H71   S    
C91   O10   A    
C5    C92   S    
C36   C73   A    
C52   C65   A    
C4    C93   S    
C34   H44   S    
C13   H64   S    
C50   C61   A    
Cu12  O30   S    
C107  H80   S    
C96   O22   A    
C22   C26   A    
C90   O5    A    
C12   C18   A    
C49   C80   A    
Cu5   O45   S    
C85   O42   A    
C35   C63   A    
C128  H21   S    
Cu2   Cu12  S    
C108  C126  A    
C100  H23   S    
C16   C30   A    
C120  H14   S    
C123  O6    A    
Cu3   O39   S    
C126  H19   S    
C93   O15   A    
C97   O24   A    
C110  C128  A    
C96   C143  S    
C80   C123  S    
C109  H3    S    
