data_mof_unit_44235.cif
_audit_creation_date              2012-12-11T14:42:08-0500
_audit_creation_method            fapswitch 2.2
_symmetry_space_group_name_H-M    P1
_symmetry_Int_Tables_number       1
_space_group_crystal_system       triclinic
_cell_length_a                    19.011699
_cell_length_b                    10.907342
_cell_length_c                    18.923885
_cell_angle_alpha                 90.000088
_cell_angle_beta                  90.322941
_cell_angle_gamma                 89.999968
_cell_volume                      3924.12887654

loop_
_atom_site_label
_atom_site_type_symbol
_atom_type_description
_atom_site_fract_x
_atom_site_fract_y
_atom_site_fract_z
_atom_type_partial_charge
C1    C     C_R   0.727232 0.956227 0.853487 0.550248
C2    C     C_R   0.272769 0.956227 0.146513 0.550248
C3    C     C_R   0.225252 0.459798 0.855380 0.555192
C4    C     C_R   0.774748 0.459798 0.144620 0.555191
C5    C     C_R   0.696615 0.453674 0.038870 -0.060736
C6    C     C_R   0.303385 0.453675 0.961130 -0.060738
C7    C     C_R   0.203742 0.985418 0.036422 -0.113362
C8    C     C_R   0.796261 0.985413 0.963577 -0.113360
C9    C     C_R   0.762336 0.433802 0.070286 -0.081985
C10   C     C_R   0.237664 0.433802 0.929714 -0.081984
C11   C     C_R   0.252341 0.916483 0.076298 -0.097226
C12   C     C_R   0.747660 0.916480 0.923701 -0.097225
C13   C     C_R   0.821027 0.409649 0.028001 -0.095813
C14   C     C_R   0.178973 0.409647 0.971999 -0.095810
C15   C     C_R   0.292449 0.826053 0.044068 -0.105152
C16   C     C_R   0.707550 0.826052 0.955931 -0.105152
C17   C     C_R   0.814437 0.402760 0.955624 0.320162
C18   C     C_R   0.185563 0.402758 0.044375 0.320161
C19   C     C_R   0.289253 0.811083 0.972093 0.312364
C20   C     C_R   0.710746 0.811081 0.027907 0.312364
C21   C     C_R   0.747819 0.413329 0.923974 0.025274
C22   C     C_R   0.252180 0.413329 0.076026 0.025274
C23   C     C_R   0.243074 0.883753 0.930644 0.022380
C24   C     C_R   0.756927 0.883751 0.069355 0.022373
C25   C     C_R   0.495166 0.276809 0.535693 0.390581
C26   C     C_R   0.504812 0.276813 0.464314 0.390582
C27   C     C_R   0.995165 0.776809 0.535693 0.390326
C28   C     C_R   0.004812 0.776813 0.464314 0.390326
C29   C     C_R   0.501345 0.166787 0.426401 -0.078710
C30   C     C_R   0.498647 0.166782 0.573603 -0.078704
C31   C     C_R   0.001346 0.666786 0.426401 -0.079192
C32   C     C_R   0.998645 0.666781 0.573603 -0.079186
C33   C     C_R   0.502569 0.053057 0.462661 -0.074375
C34   C     C_R   0.497432 0.053054 0.537341 -0.074376
C35   C     C_R   0.002572 0.553056 0.462660 -0.075264
C36   C     C_R   0.997429 0.553052 0.537341 -0.075266
C37   C     C_R   0.801323 0.339385 0.532735 0.352194
C38   C     C_R   0.198682 0.339372 0.467267 0.352202
C39   C     C_R   0.301312 0.839361 0.532729 0.352484
C40   C     C_R   0.698692 0.839349 0.467274 0.352491
C41   C     C_R   0.802783 0.347438 0.460671 -0.078909
C42   C     C_R   0.197223 0.347426 0.539332 -0.078908
C43   C     C_R   0.302771 0.847414 0.460664 -0.078711
C44   C     C_R   0.697235 0.847402 0.539338 -0.078710
C45   C     C_R   0.558095 0.181815 0.858231 0.563914
C46   C     C_R   0.441903 0.181815 0.141769 0.563912
C47   C     C_R   0.058218 0.681908 0.858227 0.541683
C48   C     C_R   0.941781 0.681908 0.141773 0.541683
C49   C     C_R   0.754502 0.419617 0.424371 -0.071924
C50   C     C_R   0.245499 0.419616 0.575629 -0.071925
C51   C     C_R   0.254495 0.919602 0.424365 -0.071700
C52   C     C_R   0.745506 0.919601 0.575635 -0.071702
C53   C     C_R   0.701166 0.479916 0.461383 -0.120209
C54   C     C_R   0.298831 0.479926 0.538616 -0.120199
C55   C     C_R   0.201160 0.979905 0.461377 -0.119933
C56   C     C_R   0.798836 0.979915 0.538621 -0.119923
C57   C     C_R   0.698232 0.473386 0.535223 -0.026853
C58   C     C_R   0.301764 0.473393 0.464776 -0.026842
C59   C     C_R   0.198226 0.973373 0.535217 -0.027783
C60   C     C_R   0.801770 0.973381 0.464782 -0.027772
C61   C     C_R   0.748454 0.399795 0.571697 -0.001080
C62   C     C_R   0.251545 0.399793 0.428304 -0.001073
C63   C     C_R   0.248448 0.899779 0.571691 -0.001512
C64   C     C_R   0.751552 0.899777 0.428310 -0.001505
C65   C     C_R   0.738079 0.364457 0.852821 0.583714
C66   C     C_R   0.261921 0.364457 0.147179 0.583714
C67   C     C_R   0.236415 0.856107 0.855558 0.586612
C68   C     C_R   0.763586 0.856106 0.144442 0.586611
C69   C     C_R   0.727828 0.955452 0.647377 0.563254
C70   C     C_R   0.272172 0.955452 0.352623 0.563259
C71   C     C_R   0.227826 0.455456 0.647375 0.562845
C72   C     C_R   0.772174 0.455456 0.352625 0.562849
C73   C     C_R   0.528186 0.175796 0.645034 0.586522
C74   C     C_R   0.471812 0.175797 0.354968 0.586520
C75   C     C_R   0.028185 0.675796 0.645034 0.588576
C76   C     C_R   0.971813 0.675797 0.354967 0.588574
C77   C     C_R   0.738954 0.360894 0.645290 0.587419
C78   C     C_R   0.261046 0.360894 0.354710 0.587425
C79   C     C_R   0.238952 0.860888 0.645288 0.587485
C80   C     C_R   0.761048 0.860887 0.354712 0.587492
C81   C     C_2   0.534724 0.177553 0.931269 -0.099673
C82   C     C_2   0.465273 0.177553 0.068730 -0.099675
C83   C     C_2   0.035368 0.677919 0.931500 -0.111425
C84   C     C_2   0.964631 0.677919 0.068499 -0.111426
C85   C     C_2   0.486759 0.074426 0.036584 -0.151391
C86   C     C_2   0.513238 0.074426 0.963415 -0.151391
C87   C     C_2   0.987833 0.575562 0.036890 -0.116873
C88   C     C_2   0.012167 0.575562 0.963110 -0.116871
C89   C     C_R   0.689085 0.443520 0.965881 0.312643
C90   C     C_R   0.310914 0.443522 0.034120 0.312641
C91   C     C_R   0.198767 0.968668 0.963706 0.308516
C92   C     C_R   0.801236 0.968663 0.036293 0.308514
Cr1   Cr    Cr6+3 0.769270 0.163730 0.750710 1.107900
Cr2   Cr    Cr6+3 0.230730 0.163730 0.249290 1.107895
Cr3   Cr    Cr6+3 0.269270 0.663730 0.750710 1.114955
Cr4   Cr    Cr6+3 0.730730 0.663730 0.249290 1.114950
Cr5   Cr    Cr6+3 0.612620 0.009790 0.748780 1.080708
Cr6   Cr    Cr6+3 0.387380 0.009790 0.251220 1.080709
Cr7   Cr    Cr6+3 0.112620 0.509790 0.748780 1.096839
Cr8   Cr    Cr6+3 0.887380 0.509790 0.251220 1.096840
Cr9   Cr    Cr6+3 0.614160 0.322500 0.747710 1.151931
Cr10  Cr    Cr6+3 0.385840 0.322500 0.252290 1.151932
Cr11  Cr    Cr6+3 0.114160 0.822500 0.747710 1.152554
Cr12  Cr    Cr6+3 0.885840 0.822500 0.252290 1.152555
H1    H     H_    0.484440 0.987009 0.063950 0.185604
H2    H     H_    0.515558 0.987009 0.936050 0.185604
H3    H     H_    0.988233 0.488825 0.065001 0.205560
H4    H     H_    0.011769 0.488825 0.934999 0.205558
H5    H     H_    0.844985 0.301675 0.433507 0.233441
H6    H     H_    0.155025 0.301655 0.566496 0.233444
H7    H     H_    0.344972 0.801649 0.433500 0.233403
H8    H     H_    0.655038 0.801629 0.566504 0.233406
H9    H     H_    0.664448 0.537938 0.433023 0.252208
H10   H     H_    0.335545 0.537957 0.566974 0.252209
H11   H     H_    0.164446 0.037936 0.433019 0.252432
H12   H     H_    0.835546 0.037955 0.566978 0.252433
H13   H     H_    0.463288 0.264275 0.041018 0.169030
H14   H     H_    0.536707 0.264275 0.958981 0.169032
H15   H     H_    0.960619 0.763745 0.039876 0.131699
H16   H     H_    0.039378 0.763746 0.960123 0.131698
H17   H     H_    0.651306 0.476421 0.070756 0.212584
H18   H     H_    0.348694 0.476423 0.929245 0.212585
H19   H     H_    0.172446 0.056761 0.060694 0.200465
H20   H     H_    0.827558 0.056754 0.939304 0.200464
H21   H     H_    0.872971 0.398517 0.050717 0.182959
H22   H     H_    0.127029 0.398514 0.949282 0.182960
H23   H     H_    0.329752 0.771367 0.074013 0.204337
H24   H     H_    0.670246 0.771367 0.925986 0.204336
O1    O     O_R   0.784320 0.290430 0.830510 -0.455065
O2    O     O_R   0.215680 0.290430 0.169490 -0.455067
O3    O     O_R   0.284320 0.790430 0.830510 -0.448250
O4    O     O_R   0.715680 0.790430 0.169490 -0.448253
O5    O     O_R   0.554640 0.080370 0.673500 -0.491384
O6    O     O_R   0.445360 0.080370 0.326500 -0.491387
O7    O     O_R   0.054640 0.580370 0.673500 -0.489842
O8    O     O_R   0.945360 0.580370 0.326500 -0.489844
O9    O     O_R   0.543920 0.282180 0.666790 -0.434026
O10   O     O_R   0.456080 0.282180 0.333210 -0.434024
O11   O     O_R   0.043920 0.782180 0.666790 -0.432658
O12   O     O_R   0.956080 0.782180 0.333210 -0.432656
O13   O     O_R   0.679040 0.374160 0.674430 -0.480099
O14   O     O_R   0.320960 0.374160 0.325570 -0.480095
O15   O     O_R   0.179040 0.874160 0.674430 -0.476389
O16   O     O_R   0.820960 0.874160 0.325570 -0.476386
O17   O     O_3   0.665350 0.165340 0.749070 -0.325082
O18   O     O_3   0.334650 0.165340 0.250930 -0.325083
O19   O     O_3   0.165350 0.665340 0.749070 -0.332707
O20   O     O_3   0.834650 0.665340 0.250930 -0.332707
O21   O     O_R   0.762640 0.040960 0.825200 -0.503307
O22   O     O_R   0.237360 0.040960 0.174800 -0.503308
O23   O     O_R   0.262640 0.540960 0.825200 -0.477994
O24   O     O_R   0.737360 0.540960 0.174800 -0.477995
O25   O     O_R   0.667400 0.923970 0.829950 -0.511856
O26   O     O_R   0.332600 0.923970 0.170050 -0.511855
O27   O     O_R   0.167400 0.423970 0.829950 -0.502953
O28   O     O_R   0.832600 0.423970 0.170050 -0.502952
O29   O     O_R   0.553960 0.081340 0.821780 -0.496907
O30   O     O_R   0.446040 0.081340 0.178220 -0.496908
O31   O     O_R   0.053960 0.581340 0.821780 -0.485531
O32   O     O_R   0.946040 0.581340 0.178220 -0.485533
O33   O     O_R   0.543180 0.283240 0.826740 -0.455113
O34   O     O_R   0.456820 0.283240 0.173260 -0.455114
O35   O     O_R   0.043180 0.783240 0.826740 -0.471074
O36   O     O_R   0.956820 0.783240 0.173260 -0.471073
O37   O     O_R   0.678360 0.375140 0.822710 -0.460788
O38   O     O_R   0.321640 0.375140 0.177290 -0.460788
O39   O     O_R   0.178360 0.875140 0.822710 -0.462070
O40   O     O_R   0.821640 0.875140 0.177290 -0.462068
O41   O     O_R   0.785050 0.289380 0.670560 -0.437155
O42   O     O_R   0.214950 0.289380 0.329440 -0.437163
O43   O     O_R   0.285050 0.789380 0.670560 -0.441534
O44   O     O_R   0.714950 0.789380 0.329440 -0.441542
O45   O     O_R   0.763320 0.039990 0.676930 -0.488581
O46   O     O_R   0.236680 0.039990 0.323070 -0.488579
O47   O     O_R   0.263320 0.539990 0.676930 -0.490884
O48   O     O_R   0.736680 0.539990 0.323070 -0.490882
O49   O     O_R   0.668130 0.922920 0.670000 -0.492065
O50   O     O_R   0.331870 0.922920 0.330000 -0.492063
O51   O     O_R   0.168130 0.422920 0.670000 -0.489735
O52   O     O_R   0.831870 0.422920 0.330000 -0.489733
C93   C     C_2   0.643908 0.547934 0.571292 0.618591
O53   O     O_2   0.655870 0.593585 0.629157 -0.509439
O54   O     O_R   0.579819 0.570817 0.537286 -0.541145
H25   H     H_    0.545875 0.617968 0.568103 0.408209
C94   C     C_2   0.356082 0.547950 0.428705 0.618590
O55   O     O_2   0.344114 0.593597 0.370839 -0.509441
O56   O     O_R   0.420170 0.570846 0.462707 -0.541147
H26   H     H_    0.454112 0.617994 0.431888 0.408201
C95   C     C_2   0.143904 0.047928 0.571284 0.618448
O57   O     O_2   0.155869 0.093586 0.629147 -0.503234
O58   O     O_R   0.079815 0.070813 0.537279 -0.541260
H27   H     H_    0.045873 0.117969 0.568094 0.408650
C96   C     C_2   0.856085 0.047945 0.428712 0.618448
O59   O     O_2   0.844116 0.093598 0.370849 -0.503237
O60   O     O_R   0.920174 0.070841 0.462715 -0.541261
H28   H     H_    0.954114 0.117995 0.431896 0.408643
F1    F     F_    0.624047 0.457999 0.937143 -0.603827
F2    F     F_    0.375952 0.458002 0.062858 -0.603827
F3    F     F_    0.152783 0.037979 0.925806 -0.593763
F4    F     F_    0.847222 0.037972 0.074193 -0.593760
F5    F     F_    0.873082 0.380493 0.916964 -0.607045
F6    F     F_    0.126918 0.380490 0.083036 -0.607046
F7    F     F_    0.332171 0.724822 0.943753 -0.602517
F8    F     F_    0.667827 0.724822 0.056246 -0.602515
F9    F     F_    0.486605 0.386763 0.568271 -0.546213
F10   F     F_    0.513363 0.386773 0.431741 -0.546196
F11   F     F_    0.986604 0.886762 0.568271 -0.545758
F12   F     F_    0.013364 0.886771 0.431741 -0.545741
C97   C     C_2   0.510979 0.937636 0.421704 0.682321
O61   O     O_2   0.474885 0.848044 0.434702 -0.466999
O62   O     O_R   0.558485 0.934204 0.365554 -0.643605
H29   H     H_    0.557729 0.852899 0.339589 0.370197
C98   C     C_2   0.489032 0.937626 0.578294 0.682325
O63   O     O_2   0.525127 0.848040 0.565288 -0.466993
O64   O     O_R   0.441532 0.934182 0.634449 -0.643582
H30   H     H_    0.442294 0.852873 0.660410 0.370192
C99   C     C_2   0.010993 0.437640 0.421700 0.681623
O65   O     O_2   0.974911 0.348033 0.434697 -0.466747
O66   O     O_R   0.058491 0.434235 0.365541 -0.638579
H31   H     H_    0.057737 0.352939 0.339567 0.373878
C100  C     C_2   0.989018 0.437631 0.578299 0.681626
O67   O     O_2   0.025101 0.348029 0.565293 -0.466741
O68   O     O_R   0.941527 0.434213 0.634463 -0.638555
H32   H     H_    0.942286 0.352913 0.660433 0.373874
F13   F     F_    0.851808 0.268778 0.563270 -0.595871
F14   F     F_    0.148199 0.268757 0.436733 -0.595875
F15   F     F_    0.351798 0.768755 0.563263 -0.596144
F16   F     F_    0.648209 0.768735 0.436740 -0.596147

loop_
_geom_bond_atom_site_label_1
_geom_bond_atom_site_label_2
_ccdc_geom_bond_type
Cr2   O18   S    
C87   C88   S    
Cr6   O26   S    
C58   C62   A    
Cr7   O31   S    
C14   C18   A    
C5    C89   A    
Cr1   O21   S    
C35   C36   A    
C84   C87   D    
Cr5   O5    S    
O64   H30   S    
Cr3   O47   S    
C32   C75   S    
C57   C93   S    
C48   O36   A    
C31   C76   S    
Cr11  O19   S    
C21   C89   A    
C98   O63   D    
C15   C19   A    
C48   O32   A    
C74   O6    A    
Cr9   O17   S    
C5    C9    A    
Cr2   O2    S    
C55   H11   S    
C43   H7    S    
C2    O22   A    
C37   C41   A    
C32   C36   A    
C56   C60   A    
C38   C42   A    
C55   C59   A    
C78   O14   A    
Cr3   O19   S    
C88   H4    S    
Cr1   O1    S    
C94   O56   S    
C71   O51   A    
C47   O35   A    
C46   O30   A    
C5    H17   S    
C78   O42   A    
C68   O4    A    
Cr10  O10   S    
C79   O43   A    
C95   O58   S    
C45   O33   A    
C22   C66   S    
C9    C13   A    
C52   C69   S    
C69   O49   A    
C93   O53   D    
C46   C82   S    
C33   C97   S    
C79   O15   A    
C12   C16   A    
C29   C33   A    
C61   C77   S    
C96   O60   S    
C49   C72   S    
Cr7   O27   S    
Cr12  O16   S    
Cr1   O17   S    
C8    C92   A    
C51   C70   S    
Cr5   O25   S    
Cr6   O50   S    
C39   F15   S    
C81   C86   D    
C8    C12   A    
C38   F14   S    
C13   H21   S    
Cr8   O28   S    
C37   F13   S    
C83   C88   D    
Cr10  O38   S    
C41   H5    S    
C58   C94   S    
Cr3   O3    S    
C64   C80   S    
C26   F10   S    
C1    C12   S    
Cr9   O13   S    
C25   F9    S    
C2    C11   S    
C24   C92   A    
C41   C49   A    
C53   H9    S    
C60   C96   S    
C97   O61   D    
C93   O54   S    
C22   C90   A    
C4    O24   A    
C45   C81   S    
C30   C34   A    
C52   C56   A    
O58   H27   S    
Cr6   O30   S    
C45   O29   A    
C20   F8    S    
O68   H32   S    
C10   C14   A    
C7    H19   S    
O66   H31   S    
C30   C73   S    
C53   C57   A    
C19   C23   A    
C70   O50   A    
O60   H28   S    
C47   O31   A    
C29   C74   S    
Cr6   O18   S    
C51   C55   A    
C80   O16   A    
C25   C26   A    
C85   C86   S    
C81   H14   S    
C69   O45   A    
C17   C21   A    
C48   C84   S    
Cr4   O20   S    
Cr5   O29   S    
C83   H16   S    
C40   F16   S    
C7    C11   A    
C50   C71   S    
Cr12  O36   S    
O54   H25   S    
Cr7   O51   S    
C100  O67   D    
Cr11  O11   S    
C65   O1    A    
Cr12  O40   S    
C70   O46   A    
Cr8   O32   S    
Cr5   O49   S    
O62   H29   S    
C16   C20   A    
C7    C91   A    
C19   F7    S    
C33   C34   A    
C56   H12   S    
Cr7   O7    S    
C95   O57   D    
C18   F6    S    
C50   C54   A    
Cr11  O39   S    
C17   F5    S    
C16   H24   S    
C42   C50   A    
C90   F2    S    
C44   H8    S    
C8    H20   S    
C4    O28   A    
Cr2   O46   S    
C11   C15   A    
Cr4   O44   S    
C28   F12   S    
Cr10  O14   S    
C23   C91   A    
C59   C63   A    
C59   C95   S    
Cr3   O23   S    
C3    O27   A    
C6    H18   S    
C76   O12   A    
Cr8   O52   S    
C15   H23   S    
C68   O40   A    
C89   F1    S    
Cr10  O34   S    
C54   C58   A    
C67   O39   A    
C25   C30   A    
Cr7   O19   S    
Cr1   O41   S    
Cr9   O9    S    
C37   C61   A    
Cr4   O48   S    
C21   C65   S    
C27   C32   A    
C18   C22   A    
Cr5   O17   S    
C62   C78   S    
C28   C31   A    
C67   O3    A    
C66   O38   A    
C73   O5    A    
C3    O23   A    
C34   C98   S    
Cr11  O15   S    
C44   C52   A    
C6    C10   A    
C39   C43   A    
C57   C61   A    
C63   C79   S    
Cr2   O22   S    
C82   C85   D    
C39   C63   A    
Cr6   O6    S    
Cr11  O35   S    
C14   H22   S    
C13   C17   A    
C60   C64   A    
C72   O52   A    
Cr9   O33   S    
C86   H2    S    
C99   O65   D    
C98   O64   S    
C91   F3    S    
Cr12  O20   S    
C100  O68   S    
C3    C10   S    
C6    C90   A    
Cr4   O4    S    
Cr9   O37   S    
C74   O10   A    
C43   C51   A    
C94   O55   D    
C2    O26   A    
C75   O7    A    
C73   O9    A    
Cr8   O20   S    
C84   H15   S    
C49   C53   A    
C40   C64   A    
C54   H10   S    
C31   C35   A    
Cr1   O45   S    
C97   O62   S    
C71   O47   A    
C27   F11   S    
Cr10  O18   S    
C72   O48   A    
C42   H6    S    
C99   O66   S    
C35   C99   S    
C77   O13   A    
C1    O25   A    
C23   C67   S    
C24   C68   S    
C47   C83   S    
C76   O8    A    
Cr12  O12   S    
C40   C44   A    
C65   O37   A    
C87   H3    S    
O56   H26   S    
C26   C29   A    
C77   O41   A    
C96   O59   D    
C46   O34   A    
C27   C28   A    
C80   O44   A    
C1    O21   A    
C75   O11   A    
C85   H1    S    
C82   H13   S    
C66   O2    A    
C4    C9    S    
C92   F4    S    
Cr3   O43   S    
C36   C100  S    
C20   C24   A    
Cr2   O42   S    
Cr8   O8    S    
C38   C62   A    
Cr4   O24   S    
