data_mof_unit_26791.cif
_audit_creation_date              2012-12-10T19:11:32-0500
_audit_creation_method            fapswitch 2.2
_symmetry_space_group_name_H-M    P1
_symmetry_Int_Tables_number       1
_space_group_crystal_system       triclinic
_cell_length_a                    7.778237
_cell_length_b                    9.093772
_cell_length_c                    17.245412
_cell_angle_alpha                 90.030858
_cell_angle_beta                  85.929953
_cell_angle_gamma                 89.988443
_cell_volume                      1216.75199823

loop_
_atom_site_label
_atom_site_type_symbol
_atom_type_description
_atom_site_fract_x
_atom_site_fract_y
_atom_site_fract_z
_atom_type_partial_charge
C1    C     C_R   0.500008 0.779994 0.499933 0.846260
C2    C     C_R   0.500016 0.220000 0.499983 0.836597
C3    C     C_1   0.500022 0.934625 0.499920 -0.170401
C4    C     C_1   0.500041 0.065359 0.499939 -0.170535
C5    C     C_R   0.477818 0.504037 0.650529 0.857228
C6    C     C_R   0.522289 0.497973 0.349352 0.836979
C7    C     C_R   0.464869 0.517089 0.735279 -0.193437
C8    C     C_R   0.533185 0.487166 0.264385 -0.224073
C9    C     C_R   0.594554 0.589566 0.774106 0.378055
C10   C     C_R   0.682334 0.530678 0.218598 0.369828
C11   C     C_R   0.573962 0.606555 0.854835 0.571589
C12   C     C_R   0.686528 0.515985 0.137665 0.554111
C13   C     C_R   0.431951 0.543651 0.896900 -0.103514
C14   C     C_R   0.542013 0.462296 0.102584 -0.126004
C15   C     C_R   0.304694 0.470932 0.858412 -0.262553
C16   C     C_R   0.395697 0.417730 0.148216 -0.210200
C17   C     C_R   0.320011 0.459268 0.777856 -0.278411
C18   C     C_R   0.390931 0.430768 0.228388 -0.224838
C19   C     C_2   0.424420 0.543060 0.982635 0.411731
C20   C     C_2   0.540572 0.459114 0.017097 0.479966
Cu1   Cu    Cu3+1 0.330920 0.500000 0.500000 1.000616
Cu2   Cu    Cu3+1 0.669080 0.500000 0.500000 1.032897
H1    H     H_    0.195180 0.421565 0.890914 0.195770
H2    H     H_    0.284421 0.374318 0.121482 0.197432
H3    H     H_    0.275747 0.395589 0.262334 0.203510
H4    H     H_    0.220461 0.402270 0.748852 0.176925
N1    N     N_1   0.923170 0.500000 0.500010 -0.041490
N2    N     N_1   0.076830 0.500000 0.499990 -0.049120
O1    O     O_R   0.357240 0.711600 0.500000 -0.579914
O2    O     O_R   0.642760 0.288400 0.500000 -0.583209
O3    O     O_R   0.642760 0.711600 0.500000 -0.571128
O4    O     O_R   0.357240 0.288400 0.500000 -0.581453
O5    O     O_R   0.340660 0.500000 0.613590 -0.603532
O6    O     O_R   0.659340 0.500000 0.386410 -0.541584
O7    O     O_R   0.626230 0.500000 0.613600 -0.554485
O8    O     O_R   0.373770 0.500000 0.386400 -0.588897
F1    F     F_    0.829431 0.557985 0.093312 -0.620214
F2    F     F_    0.692412 0.683606 0.892509 -0.651918
O9    O     O_3   0.732499 0.655430 0.732509 -0.556545
C21   C     C_3   0.881871 0.570251 0.740676 -0.186866
H5    H     H_    0.862550 0.453305 0.724101 0.137643
H6    H     H_    0.924384 0.576775 0.800760 0.202072
H7    H     H_    0.987673 0.614821 0.700967 0.184327
O10   O     O_3   0.826115 0.582910 0.252497 -0.537913
C22   C     C_3   0.816633 0.737689 0.255439 -0.209357
H8    H     H_    0.699437 0.775386 0.290773 0.119498
H9    H     H_    0.820150 0.786110 0.196083 0.177440
H10   H     H_    0.930457 0.779626 0.283841 0.183986
O11   O     O_3   0.669450 0.387060 0.971176 -0.562341
C23   C     C_3   0.705097 0.247828 0.002371 -0.268666
H11   H     H_    0.584992 0.184110 0.017353 0.137901
H12   H     H_    0.782458 0.258541 0.053807 0.185304
H13   H     H_    0.783301 0.184149 0.957751 0.196266
O12   O     O_3   0.296184 0.616457 0.028665 -0.588297
C24   C     C_3   0.225981 0.736097 0.989529 -0.170495
H14   H     H_    0.140866 0.697109 0.944703 0.195516
H15   H     H_    0.328555 0.810093 0.963589 0.143600
H16   H     H_    0.145098 0.801684 0.032357 0.198340

loop_
_geom_bond_atom_site_label_1
_geom_bond_atom_site_label_2
_ccdc_geom_bond_type
C11   F2    S    
C23   H12   S    
C24   H14   S    
C20   O11   S    
C14   C20   S    
C11   C13   A    
C2    C4    S    
C19   C20   D    
C13   C15   A    
C9    O9    S    
C2    O2    A    
N1    N2    T    
C16   C18   A    
C21   H7    S    
C1    O1    A    
C23   H11   S    
C16   H2    S    
Cu1   O8    S    
C22   H8    S    
Cu2   O7    S    
C9    C11   A    
C18   H3    S    
C10   C12   A    
C17   H4    S    
C5    O7    A    
C19   O12   S    
C15   H1    S    
C21   H5    S    
Cu1   N2    S    
C12   C14   A    
C5    C7    S    
Cu2   N1    S    
C24   H15   S    
Cu2   O6    S    
Cu1   O4    S    
C14   C16   A    
C24   H16   S    
C23   H13   S    
Cu1   O5    S    
Cu2   O3    S    
C13   C19   S    
C10   O10   S    
C3    C4    T    
O9    C21   S    
C7    C9    A    
C1    O3    A    
C22   H9    S    
O10   C22   S    
C2    O4    A    
O11   C23   S    
C22   H10   S    
C12   F1    S    
C15   C17   A    
O12   C24   S    
C6    C8    S    
Cu2   O2    S    
C7    C17   A    
Cu1   Cu2   S    
Cu1   O1    S    
C8    C10   A    
C8    C18   A    
C6    O6    A    
C6    O8    A    
C21   H6    S    
C1    C3    S    
C5    O5    A    
