data_mof_unit_67168.cif
_audit_creation_date              2012-12-11T17:48:47-0500
_audit_creation_method            fapswitch 2.2
_symmetry_space_group_name_H-M    P1
_symmetry_Int_Tables_number       1
_space_group_crystal_system       triclinic
_cell_length_a                    8.383904
_cell_length_b                    13.258362
_cell_length_c                    14.851044
_cell_angle_alpha                 97.681646
_cell_angle_beta                  97.779924
_cell_angle_gamma                 98.431889
_cell_volume                      1597.94923176

loop_
_atom_site_label
_atom_site_type_symbol
_atom_type_description
_atom_site_fract_x
_atom_site_fract_y
_atom_site_fract_z
_atom_type_partial_charge
Ba1   Ba    Ba6+2 0.843750 0.550210 0.455600 1.619039
Ba2   Ba    Ba6+2 0.346090 0.449880 0.544410 1.634930
C1    C     C_3   0.654464 0.926158 0.241803 -0.400954
C2    C     C_R   0.890320 0.454175 0.925071 -0.031327
C3    C     C_R   0.039473 0.463479 0.111637 -0.032463
C4    C     C_3   0.178910 0.831297 0.213834 0.383880
C5    C     C_R   0.880563 0.409636 0.078130 -0.032088
C6    C     C_R   0.805504 0.408582 0.988464 -0.095443
C7    C     C_R   0.114166 0.464629 0.204021 0.055269
C8    C     C_R   0.282546 0.507572 0.228733 -0.204947
C9    C     C_R   0.079114 0.532795 0.795289 0.040932
C10   C     C_R   0.139090 0.552463 0.891360 -0.057723
C11   C     C_R   0.051640 0.507171 0.955387 0.016917
C12   C     C_3   0.637286 0.821468 0.272304 0.405358
C13   C     C_R   0.283356 0.618891 0.925336 -0.025229
C14   C     C_R   0.351472 0.635573 0.017759 0.018429
C15   C     C_R   0.284491 0.574943 0.080894 -0.042146
C16   C     C_3   0.124924 0.842611 0.113686 0.067601
C17   C     C_R   0.125922 0.514960 0.049691 -0.000070
C18   C     C_R   0.366381 0.569480 0.171460 -0.012976
C19   C     C_R   0.924508 0.470377 0.766323 -0.196473
C20   C     C_R   0.769704 0.177112 0.527878 -0.259970
C21   C     C_R   0.433922 0.812158 0.460722 -0.263107
C22   C     C_R   0.397782 0.981839 0.426671 -0.111899
C23   C     C_3   0.511627 0.239424 0.242184 0.324821
C24   C     C_R   0.335054 0.876873 0.423472 -0.040830
C25   C     C_R   0.592107 0.849391 0.508285 0.064343
C26   C     C_R   0.657988 0.960698 0.516556 -0.034926
C27   C     C_R   0.556363 0.026335 0.472844 -0.051114
C28   C     C_3   0.280898 0.781547 0.667953 0.312196
C29   C     C_R   0.613511 0.135888 0.479652 0.026149
C30   C     C_R   0.870453 0.118085 0.572130 -0.015410
C31   C     C_R   0.814690 0.012123 0.568993 0.003465
C32   C     C_3   0.308287 0.894767 0.711906 -0.238063
C33   C     C_3   0.960705 0.227249 0.352664 0.307017
C34   C     C_3   0.604811 0.164812 0.192179 -0.319676
C35   C     C_3   0.999235 0.118583 0.336104 -0.321055
C36   C     C_3   0.784991 0.773000 0.767315 0.466095
C37   C     C_3   0.852728 0.873725 0.838660 -0.194769
C38   C     C_3   0.376730 0.967545 0.652559 -0.477666
C39   C     C_3   0.922307 0.726733 0.737814 -0.260589
C40   C     C_3   0.740045 0.905708 0.906472 -0.374165
C41   C     C_3   0.387516 0.270829 0.169304 -0.347444
C42   C     C_3   0.154061 0.290581 0.844684 -0.271329
C43   C     C_3   0.479334 0.729187 0.044026 -0.361411
C44   C     C_3   0.377395 0.476434 0.312061 -0.242407
C45   C     C_3   0.111500 0.177600 0.801260 0.365493
C46   C     C_3   0.869725 0.424658 0.667384 -0.262187
C47   C     C_3   0.928490 0.962282 0.626927 -0.307313
C48   C     C_3   0.973500 0.764521 0.069669 -0.314733
C49   C     C_3   0.161906 0.112281 0.874453 -0.351726
C50   C     C_3   0.649781 0.198427 0.774191 0.368292
C51   C     C_3   0.658607 0.108097 0.825127 -0.411955
C52   C     C_R   0.822587 0.442347 0.830887 0.039238
H1    H     H_    0.720909 0.826784 0.337879 0.112786
H2    H     H_    0.884182 0.939890 0.803895 0.082060
H3    H     H_    0.969007 0.866092 0.880971 0.111217
H4    H     H_    0.509152 0.800559 0.283710 -0.106142
H5    H     H_    0.669077 0.986450 0.303005 0.064742
H6    H     H_    0.597484 0.308476 0.278185 0.065823
H7    H     H_    0.519606 0.097916 0.149997 0.131057
H8    H     H_    0.679053 0.204113 0.146611 0.095755
H9    H     H_    0.685069 0.134522 0.242523 0.104819
H10   H     H_    0.544626 0.932510 0.193680 0.096551
H11   H     H_    0.224117 0.830083 0.073763 0.049799
H12   H     H_    0.392710 0.906421 0.777702 0.143199
H13   H     H_    0.978375 0.155870 0.779690 -0.035715
H14   H     H_    0.293308 0.135912 0.903906 0.134593
H15   H     H_    0.087835 0.121101 0.930734 0.116200
H16   H     H_    0.143003 0.029866 0.844593 0.101440
H17   H     H_    0.776757 0.238016 0.777564 -0.094193
H18   H     H_    0.596455 0.171526 0.700820 0.038701
H19   H     H_    0.740803 0.134444 0.891928 0.111448
H20   H     H_    0.706832 0.048173 0.782671 0.082091
H21   H     H_    0.213450 0.753548 0.215689 -0.085696
H22   H     H_    0.535965 0.075863 0.838568 0.135515
H23   H     H_    0.192395 0.915391 0.729250 0.096004
H24   H     H_    0.811249 0.365723 0.119890 0.091059
H25   H     H_    0.682330 0.366951 0.968880 0.095760
H26   H     H_    0.341945 0.663778 0.880436 0.145264
H27   H     H_    0.318277 0.029329 0.396287 0.111693
H28   H     H_    0.817880 0.256710 0.526352 0.036114
H29   H     H_    0.287129 0.891632 0.241340 -0.013338
H30   H     H_    0.382292 0.731740 0.457412 0.043074
H31   H     H_    0.389329 0.760220 0.641352 0.072321
H32   H     H_    0.176518 0.764980 0.610437 0.020086
H33   H     H_    0.504034 0.958228 0.649438 0.126666
H34   H     H_    0.838066 0.225202 0.371856 -0.072584
H35   H     H_    0.299180 0.954211 0.584848 0.147087
H36   H     H_    0.378054 0.047224 0.684344 0.205386
H37   H     H_    0.989605 0.781175 0.702035 0.082710
H38   H     H_    0.000654 0.715079 0.800530 0.052786
H39   H     H_    0.876317 0.652403 0.691685 0.085088
H40   H     H_    0.788049 0.985084 0.942753 0.150518
H41   H     H_    0.614804 0.901905 0.870679 0.146527
H42   H     H_    0.737081 0.856330 0.960750 0.154404
H43   H     H_    0.341234 0.207806 0.110269 0.141308
H44   H     H_    0.278197 0.288486 0.198242 0.119641
H45   H     H_    0.051775 0.270140 0.411118 0.102478
H46   H     H_    0.444947 0.338926 0.142015 0.055324
H47   H     H_    0.075031 0.305511 0.897283 0.034410
H48   H     H_    0.282965 0.310053 0.878995 0.153822
H49   H     H_    0.135232 0.340039 0.791638 0.115005
H50   H     H_    0.471196 0.784615 0.994313 0.106901
H51   H     H_    0.456042 0.772238 0.107908 0.106243
H52   H     H_    0.600620 0.705659 0.045373 0.170762
H53   H     H_    0.499233 0.461932 0.299194 0.124785
H54   H     H_    0.385175 0.535491 0.373607 0.141346
H55   H     H_    0.325157 0.400414 0.327172 0.087129
H56   H     H_    0.927554 0.076521 0.271035 0.141872
H57   H     H_    0.786142 0.470299 0.632820 0.152010
H58   H     H_    0.962518 0.416201 0.625982 0.156246
H59   H     H_    0.822601 0.342027 0.664312 0.032258
H60   H     H_    0.991772 0.012343 0.688767 0.056366
H61   H     H_    0.863136 0.910545 0.661158 0.110147
H62   H     H_    0.021177 0.932227 0.590390 0.163155
H63   H     H_    0.979668 0.687894 0.090823 0.124932
H64   H     H_    0.863962 0.792134 0.090553 0.187529
H65   H     H_    0.963464 0.755235 0.993829 0.114414
H66   H     H_    0.972045 0.076652 0.393474 0.095427
H67   H     H_    0.128998 0.121249 0.328536 0.173004
H68   H     H_    0.761180 0.937008 0.205454 0.177746
I1    I     I_    0.671438 0.664187 0.840374 -0.528227
I2    I     I_    0.086383 0.997001 0.103594 -0.607401
O1    O     O_2   0.827880 0.435260 0.277750 -0.480343
O2    O     O_2   0.192466 0.131107 0.553549 -0.465589
O3    O     O_3   0.196030 0.157609 0.726817 -0.565961
O4    O     O_3   0.100280 0.438960 0.391170 -0.513949
O5    O     O_3   0.587780 0.631850 0.546230 -0.475791
O6    O     O_2   0.332590 0.233690 0.456160 -0.446731
O7    O     O_3   0.427128 0.188681 0.303334 -0.621669
O8    O     O_2   0.477251 0.444700 0.824087 -0.450929
O9    O     O_3   0.552890 0.262064 0.816039 -0.589280
O10   O     O_3   0.625580 0.634130 0.333250 -0.491319
O11   O     O_2   0.705476 0.555379 0.179564 -0.463723
O12   O     O_3   0.674681 0.791695 0.691946 -0.637730
O13   O     O_3   0.960926 0.268543 0.270387 -0.635393
O14   O     O_3   0.680727 0.750178 0.204920 -0.590348
O15   O     O_2   0.857130 0.766340 0.543890 -0.505761
O16   O     O_3   0.056550 0.691050 0.379010 -0.455027
O17   O     O_2   0.002997 0.878914 0.432686 -0.500720
O18   O     O_3   0.052469 0.844544 0.265197 -0.554806
O19   O     O_2   0.361830 0.564780 0.722310 -0.403270
O20   O     O_3   0.089430 0.561130 0.608830 -0.527007
O21   O     O_3   0.564130 0.365960 0.666760 -0.460486
O22   O     O_3   0.250157 0.729034 0.740245 -0.645267
O23   O     O_3   0.601940 0.368240 0.453770 -0.502549
O24   O     O_3   0.133170 0.309040 0.621000 -0.489811
P1    P     P_3+3 0.998730 0.403530 0.291970 0.961928
P2    P     P_3+3 0.687380 0.751030 0.571310 0.954813
P3    P     P_3+3 0.116243 0.823335 0.377175 0.965408
P4    P     P_3+3 0.190990 0.596560 0.708040 0.973423
P5    P     P_3+3 0.089652 0.178161 0.621426 0.939333
P6    P     P_3+3 0.589577 0.626200 0.215336 0.950094
P7    P     P_3+3 0.503608 0.232574 0.421549 0.921958
P8    P     P_3+3 0.604016 0.383625 0.786600 1.011317

loop_
_geom_bond_atom_site_label_1
_geom_bond_atom_site_label_2
_ccdc_geom_bond_type
C50   O9    S    
C48   H63   S    
Ba2   O20   S    
C51   H20   S    
C41   H44   S    
C2    C6    A    
C32   H12   S    
C4    H21   S    
O10   P6    S    
C1    H10   S    
C50   C51   S    
C16   H11   S    
C7    P1    S    
O11   P6    D    
C20   C30   A    
C47   H61   S    
C32   C38   S    
C16   C48   S    
C20   H28   S    
C38   H33   S    
C26   C27   A    
C33   C35   S    
Ba1   O1    S    
Ba1   O5    S    
C32   H23   S    
C52   P8    S    
C36   C37   S    
C34   H8    S    
Ba2   O24   S    
C13   C14   A    
C37   H3    S    
C15   C18   A    
O3    P5    S    
Ba1   Ba2   S    
C21   C24   A    
C2    C11   A    
C22   C27   A    
Ba2   O6    S    
O21   P8    S    
C39   H39   S    
C12   O14   S    
C8    C18   A    
C14   C15   A    
C44   H54   S    
C8    C44   S    
C6    H25   S    
Ba1   O4    S    
Ba1   P1    S    
O6    P7    D    
C23   H6    S    
C21   C25   A    
C38   H35   S    
C28   H32   S    
C34   H9    S    
O23   P7    S    
C7    C8    A    
C36   I1    S    
Ba1   O15   S    
C42   C45   S    
C19   C46   S    
C2    C52   A    
O14   P6    S    
C12   H1    S    
C48   H64   S    
Ba2   O19   S    
O13   P1    S    
C12   H4    S    
C45   H13   S    
C42   H49   S    
C43   H51   S    
C28   O22   S    
C37   C40   S    
Ba2   P4    S    
C4    C16   S    
C20   C29   A    
C28   C32   S    
C40   H41   S    
C5    C6    A    
C41   H46   S    
C36   C39   S    
C21   H30   S    
C3    C5    A    
C11   C17   A    
C45   C49   S    
Ba2   O23   S    
C9    C19   A    
C48   H65   S    
Ba2   O21   S    
O18   P3    S    
C22   H27   S    
C3    C7    A    
C50   H18   S    
C43   H50   S    
C33   H34   S    
O4    P1    S    
C29   P7    S    
C37   H2    S    
C10   C13   A    
C9    C10   A    
C44   H53   S    
C46   H57   S    
Ba1   P2    S    
C49   H16   S    
C10   C11   A    
C28   H31   S    
C33   H45   S    
O16   P3    S    
C35   H56   S    
C1    C12   S    
C18   P6    S    
C5    H24   S    
C35   H67   S    
O19   P4    D    
C39   H37   S    
C26   C31   A    
C25   P2    S    
C36   O12   S    
O8    P8    D    
O22   P4    S    
Ba1   O23   S    
C51   H22   S    
C4    O18   S    
O24   P5    S    
Ba1   O10   S    
C23   O7    S    
C25   C26   A    
C43   H52   S    
O17   P3    D    
O9    P8    S    
C24   P3    S    
C42   H48   S    
C4    H29   S    
C46   H58   S    
C40   H40   S    
C51   H19   S    
C41   H43   S    
C22   C24   A    
C14   C43   S    
O12   P2    S    
C42   H47   S    
C1    H68   S    
C45   O3    S    
C3    C17   A    
C23   C41   S    
O15   P2    D    
Ba2   O4    S    
C40   H42   S    
C30   C31   A    
O7    P7    S    
O5    P2    S    
O20   P4    S    
C50   H17   S    
C33   O13   S    
C19   C52   A    
C35   H66   S    
C15   C17   A    
C47   H60   S    
C49   H14   S    
O1    P1    D    
C13   H26   S    
C23   C34   S    
C30   P5    S    
O2    P5    D    
C9    P4    S    
C47   H62   S    
C39   H38   S    
C27   C29   A    
C44   H55   S    
Ba2   O5    S    
Ba1   O20   S    
Ba1   O16   S    
C49   H15   S    
C38   H36   S    
C31   C47   S    
C34   H7    S    
C16   I2    S    
C46   H59   S    
C1    H5    S    
