data_mof_unit_57148.cif
_audit_creation_date              2012-12-10T17:47:38-0500
_audit_creation_method            fapswitch 2.2
_symmetry_space_group_name_H-M    P1
_symmetry_Int_Tables_number       1
_space_group_crystal_system       triclinic
_cell_length_a                    10.631543
_cell_length_b                    10.642482
_cell_length_c                    9.89909
_cell_angle_alpha                 91.491561
_cell_angle_beta                  90.152176
_cell_angle_gamma                 92.25399
_cell_volume                      1118.78910766

loop_
_atom_site_label
_atom_site_type_symbol
_atom_type_description
_atom_site_fract_x
_atom_site_fract_y
_atom_site_fract_z
_atom_type_partial_charge
C1    C     C_R   0.518192 0.261883 0.497958 0.873302
C2    C     C_R   0.605352 0.074566 0.607690 0.067756
C3    C     C_R   0.556569 0.132110 0.491805 -0.160665
C4    C     C_R   0.257741 0.497891 0.499642 0.850997
C5    C     C_R   0.541778 0.060296 0.370109 0.170709
C6    C     C_R   0.526539 0.932520 0.378870 -0.223818
C7    C     C_R   0.544296 0.873661 0.501139 -0.188196
C8    C     C_R   0.329294 0.339808 0.135114 -0.210624
C9    C     C_R   0.245522 0.258776 0.062483 0.222902
C10   C     C_R   0.245498 0.260011 0.922310 -0.209313
C11   C     C_R   0.329722 0.339099 0.854906 -0.214445
C12   C     C_3   0.878363 0.496681 0.499487 0.159450
C13   C     C_R   0.415294 0.421463 0.925237 0.176388
C14   C     C_R   0.415129 0.421719 0.069768 0.128796
C15   C     C_R   0.582247 0.573857 0.074026 -0.118514
C16   C     C_R   0.513177 0.740254 0.501498 0.891720
C17   C     C_R   0.582571 0.573336 0.930908 -0.123781
C18   C     C_R   0.742148 0.499063 0.499900 0.812799
C19   C     C_3   0.066530 0.383034 0.584571 0.039316
C20   C     C_3   0.921376 0.385442 0.583994 -0.396620
C21   C     C_3   0.077560 0.620254 0.562534 -0.454434
C22   C     C_3   0.070009 0.482476 0.351781 -0.390057
C23   C     C_3   0.933358 0.622012 0.561580 -0.425904
C24   C     C_3   0.121003 0.494380 0.499057 0.168263
C25   C     C_3   0.537435 0.112969 0.230109 -0.848195
C26   C     C_3   0.110589 0.252617 0.538175 -0.984788
C27   C     C_3   0.158869 0.167450 0.133263 -0.977236
C28   C     C_3   0.927217 0.479868 0.352434 -0.391153
C29   C     C_R   0.665327 0.144613 0.715070 -0.162416
C30   C     C_R   0.715915 0.084531 0.824921 -0.142090
C31   C     C_R   0.713175 0.954043 0.827390 -0.158293
C32   C     C_R   0.658953 0.883188 0.720524 -0.170250
C33   C     C_R   0.600985 0.941978 0.611431 0.109902
H1    H     H_    0.099058 0.398324 0.691009 0.161609
H2    H     H_    0.649472 0.634139 0.129787 0.136881
H3    H     H_    0.328791 0.332608 0.242116 0.213917
H4    H     H_    0.181686 0.197339 0.864556 0.158182
H5    H     H_    0.326229 0.331110 0.747784 0.221612
H6    H     H_    0.651061 0.632094 0.879488 0.125821
H7    H     H_    0.877641 0.295809 0.542073 0.168435
H8    H     H_    0.887924 0.395539 0.690091 0.154555
H9    H     H_    0.112333 0.632317 0.668471 0.181906
H10   H     H_    0.898877 0.636229 0.666794 0.173835
H11   H     H_    0.105268 0.563859 0.292120 0.182784
H12   H     H_    0.894797 0.556674 0.288020 0.178385
H13   H     H_    0.102675 0.395983 0.299951 0.192039
H14   H     H_    0.890209 0.388799 0.307154 0.175048
H15   H     H_    0.561914 0.041399 0.151695 0.220687
H16   H     H_    0.440853 0.140876 0.208545 0.258709
H17   H     H_    0.607490 0.192178 0.219264 0.251669
H18   H     H_    0.079758 0.181469 0.612570 0.250282
H19   H     H_    0.068837 0.223934 0.438863 0.259106
H20   H     H_    0.214686 0.251611 0.531090 0.237198
H21   H     H_    0.177539 0.168557 0.243518 0.237355
H22   H     H_    0.059600 0.191669 0.115801 0.243351
H23   H     H_    0.116894 0.701186 0.504916 0.175082
H24   H     H_    0.173152 0.070559 0.093428 0.254386
H25   H     H_    0.902469 0.702527 0.501766 0.168552
H26   H     H_    0.680760 0.245357 0.712622 0.162998
H27   H     H_    0.761693 0.139397 0.905949 0.131209
H28   H     H_    0.757009 0.907470 0.910210 0.126558
H29   H     H_    0.670253 0.783244 0.721245 0.148138
H30   H     H_    0.498095 0.879216 0.288255 0.183435
N1    N     N_R   0.498810 0.498800 0.142780 -0.114683
N2    N     N_R   0.498760 0.498720 0.857170 -0.116205
O1    O     O_R   0.500000 0.316780 0.614690 -0.644580
O2    O     O_R   0.499990 0.316750 0.385360 -0.627312
O3    O     O_R   0.314800 0.499990 0.614670 -0.640201
O4    O     O_R   0.314790 0.499970 0.385330 -0.637433
O5    O     O_R   0.500010 0.683250 0.614640 -0.614179
O6    O     O_R   0.500000 0.683220 0.385310 -0.617385
O7    O     O_R   0.685210 0.500030 0.614670 -0.644788
O8    O     O_R   0.685200 0.500010 0.385330 -0.631435
Zn1   Zn    Zn3+2 0.500010 0.500020 0.653130 0.915658
Zn2   Zn    Zn3+2 0.499990 0.499980 0.346870 0.917313

loop_
_geom_bond_atom_site_label_1
_geom_bond_atom_site_label_2
_ccdc_geom_bond_type
C23   H25   S    
C28   H14   S    
O8    Zn2   S    
C31   H28   S    
C19   C20   S    
C20   H8    S    
C27   H21   S    
C13   N2    A    
C12   C23   S    
C12   C28   S    
C2    C29   A    
C17   H6    S    
C30   C31   A    
C20   H7    S    
C27   H22   S    
O3    Zn1   S    
O1    Zn1   S    
C23   H10   S    
C8    H3    S    
C19   C26   S    
C25   H17   S    
C22   H11   S    
C29   H26   S    
C8    C9    A    
C30   H27   S    
O5    Zn1   S    
C15   N1    A    
C9    C10   A    
C22   C28   S    
C13   C14   A    
C7    C33   A    
C16   O6    A    
C15   H2    S    
C4    O4    A    
C18   O7    A    
C28   H12   S    
C16   O5    A    
O7    Zn1   S    
C27   H24   S    
C4    O3    A    
N2    Zn1   S    
C1    C3    S    
C6    H30   S    
C11   H5    S    
C29   C30   A    
C26   H19   S    
C31   C32   A    
C14   N1    A    
C12   C20   S    
C1    O1    A    
C25   H15   S    
C5    C25   S    
C2    C33   A    
C7    C16   S    
C22   H13   S    
C18   O8    A    
C21   C23   S    
C22   C24   S    
O2    Zn2   S    
C26   H20   S    
C9    C27   S    
C15   C17   A    
C8    C14   A    
C19   C24   S    
C3    C5    A    
C19   H1    S    
C21   H23   S    
C6    C7    A    
C10   H4    S    
C17   N2    A    
C32   C33   A    
C2    C3    A    
C32   H29   S    
C26   H18   S    
O6    Zn2   S    
C11   C13   A    
C5    C6    A    
C4    C24   S    
C1    O2    A    
N1    Zn2   S    
O4    Zn2   S    
C25   H16   S    
C10   C11   A    
C21   H9    S    
C21   C24   S    
C12   C18   S    
