data_mof_unit_24160.cif
_audit_creation_date              2012-10-26T20:00:13-0400
_audit_creation_method            fapswitch 2.2
_symmetry_space_group_name_H-M    P1
_symmetry_Int_Tables_number       1
_space_group_crystal_system       triclinic
_cell_length_a                    23.467386
_cell_length_b                    10.954064
_cell_length_c                    9.71994
_cell_angle_alpha                 88.938731
_cell_angle_beta                  90.956353
_cell_angle_gamma                 91.204256
_cell_volume                      2497.32679764

loop_
_atom_site_label
_atom_site_type_symbol
_atom_type_description
_atom_site_fract_x
_atom_site_fract_y
_atom_site_fract_z
_atom_type_partial_charge
C1    C     C_R   0.496546 0.265489 0.501773 0.523406
C2    C     C_R   0.119242 0.504963 0.370134 0.389180
C3    C     C_R   0.238814 0.597987 0.516059 -0.052025
C4    C     C_R   0.391270 0.497682 0.499221 0.536213
C5    C     C_R   0.298499 0.602487 0.520121 -0.024634
C6    C     C_R   0.328848 0.494231 0.497430 0.026287
C7    C     C_R   0.298714 0.382160 0.476493 -0.029887
C8    C     C_R   0.239028 0.381485 0.472309 -0.047117
C9    C     C_R   0.209334 0.488405 0.492135 0.220653
C10   C     C_R   0.758562 0.386007 0.528789 -0.072059
C11   C     C_R   0.699009 0.386500 0.526517 -0.054702
C12   C     C_R   0.973754 0.436874 0.743054 -0.136775
C13   C     C_R   0.671054 0.497919 0.501778 0.009570
C14   C     C_R   0.702999 0.607008 0.478036 0.224806
C15   C     C_R   0.762913 0.606713 0.491374 0.081531
C16   C     C_R   0.504117 0.734243 0.498576 0.559080
C17   C     C_R   0.790544 0.494127 0.511278 0.195664
C18   C     C_2   0.491646 0.937852 0.397168 0.025761
C19   C     C_2   0.518369 0.864742 0.492510 0.042846
C20   C     C_2   0.503851 0.069254 0.399186 -0.115579
C21   C     C_2   0.486538 0.133384 0.505759 0.223020
C22   C     C_2   0.462197 0.441684 0.919954 -0.010380
C23   C     C_R   0.032964 0.436250 0.739220 -0.136197
C24   C     C_2   0.462348 0.438673 0.074995 0.122367
C25   C     C_R   0.608743 0.501251 0.500696 0.570762
C26   C     C_R   0.878010 0.502384 0.382951 0.386834
C27   C     C_R   0.882000 0.463734 0.625212 0.386970
C28   C     C_R   0.941732 0.460142 0.622791 0.030716
C29   C     C_R   0.969881 0.481492 0.497042 -0.033342
C30   C     C_R   0.937727 0.502125 0.376244 0.009864
C31   C     C_3   0.666746 0.266357 0.546738 -0.274631
C32   C     C_3   0.658420 0.237471 0.699287 -0.421405
C33   C     C_3   0.656866 0.721844 0.311264 -0.008981
C34   C     C_R   0.061506 0.459997 0.615441 0.029820
C35   C     C_3   0.679125 0.838915 0.242361 -0.395946
C36   C     C_3   0.796809 0.726429 0.489191 -0.241889
C37   C     C_3   0.814346 0.763787 0.634555 -0.428365
C38   C     C_3   0.445792 0.891311 0.296280 -0.241997
C39   C     C_3   0.407730 0.990894 0.234629 -0.452755
C40   C     C_3   0.570487 0.912941 0.575019 -0.281921
C41   C     C_3   0.594302 0.828607 0.688290 -0.395699
C42   C     C_3   0.465445 0.108273 0.740166 -0.000197
C43   C     C_3   0.448782 0.003869 0.837574 -0.395661
C44   C     C_3   0.415047 0.357881 0.133149 -0.231383
C45   C     C_R   0.030097 0.482194 0.492592 -0.042590
C46   C     C_3   0.356884 0.416948 0.113531 -0.422347
C47   C     C_3   0.049664 0.556408 0.103393 -0.234337
C48   C     C_3   0.069604 0.689844 0.091567 -0.389404
C49   C     C_3   0.327952 0.724036 0.548889 -0.275043
C50   C     C_3   0.320722 0.759999 0.698374 -0.421433
C51   C     C_3   0.328136 0.261283 0.461386 -0.285567
C52   C     C_3   0.318833 0.178405 0.587467 -0.417530
C53   C     C_R   0.058660 0.505262 0.366502 0.031755
C54   C     C_R   0.025201 0.527033 0.244156 -0.000048
C55   C     C_R   0.965482 0.523819 0.251752 -0.116913
C56   C     C_R   0.120996 0.462435 0.612209 0.394817
Cu1   Cu    Cu3+1 0.500010 0.500020 0.638630 0.896361
Cu2   Cu    Cu3+1 0.499990 0.499980 0.361370 0.882199
H1    H     H_    0.953208 0.419322 0.840622 0.159697
H2    H     H_    0.780566 0.300669 0.543940 0.138151
H3    H     H_    0.700358 0.231132 0.753371 0.166279
H4    H     H_    0.633133 0.309378 0.747259 0.183043
H5    H     H_    0.635224 0.148683 0.711441 0.117680
H6    H     H_    0.624585 0.267370 0.493266 0.151212
H7    H     H_    0.690601 0.191144 0.500390 0.134333
H8    H     H_    0.609636 0.724573 0.309480 0.173316
H9    H     H_    0.669519 0.643136 0.247691 0.137719
H10   H     H_    0.725875 0.834518 0.228655 0.150806
H11   H     H_    0.658497 0.850378 0.139394 0.098231
H12   H     H_    0.526272 0.111637 0.313175 0.093002
H13   H     H_    0.669423 0.919108 0.305437 0.150038
H14   H     H_    0.776034 0.772107 0.699104 0.167868
H15   H     H_    0.837163 0.853583 0.630458 0.133216
H16   H     H_    0.843209 0.695959 0.682809 0.189385
H17   H     H_    0.835165 0.720221 0.424948 0.161342
H18   H     H_    0.771655 0.801655 0.443064 0.179992
H19   H     H_    0.385279 0.037892 0.317580 0.167090
H20   H     H_    0.433352 0.058764 0.174717 0.137305
H21   H     H_    0.375368 0.949035 0.164366 0.133206
H22   H     H_    0.466726 0.844464 0.210833 0.151948
H23   H     H_    0.428783 0.391175 0.865800 0.134586
H24   H     H_    0.417048 0.824715 0.348994 0.151644
H25   H     H_    0.562598 0.813676 0.770737 0.145993
H26   H     H_    0.606622 0.739899 0.646389 0.217895
H27   H     H_    0.632996 0.872061 0.735038 0.126647
H28   H     H_    0.605127 0.934726 0.501560 0.147744
H29   H     H_    0.560769 0.998580 0.626388 0.145254
H30   H     H_    0.440459 0.189004 0.767525 0.152766
H31   H     H_    0.511761 0.128363 0.756714 0.131319
H32   H     H_    0.467909 0.917590 0.804341 0.174905
H33   H     H_    0.464427 0.024235 0.943166 0.090202
H34   H     H_    0.532134 0.545545 0.894787 0.197371
H35   H     H_    0.401705 0.992405 0.838976 0.140683
H36   H     H_    0.356867 0.508556 0.160468 0.184764
H37   H     H_    0.345704 0.426817 0.002502 0.140939
H38   H     H_    0.323545 0.358630 0.162968 0.142959
H39   H     H_    0.414182 0.269538 0.078572 0.082209
H40   H     H_    0.421370 0.332464 0.241307 0.207077
H41   H     H_    0.032560 0.750633 0.099819 0.138773
H42   H     H_    0.101115 0.713606 0.173549 0.193959
H43   H     H_    0.089510 0.706628 0.989929 0.151473
H44   H     H_    0.083715 0.492731 0.077176 0.207560
H45   H     H_    0.056384 0.417374 0.833839 0.152856
H46   H     H_    0.016663 0.542090 0.021634 0.111627
H47   H     H_    0.274933 0.768730 0.722612 0.151622
H48   H     H_    0.340048 0.690587 0.768608 0.173385
H49   H     H_    0.342446 0.849407 0.715671 0.141597
H50   H     H_    0.374192 0.722219 0.528772 0.160546
H51   H     H_    0.309856 0.795748 0.479587 0.134419
H52   H     H_    0.337498 0.221887 0.680703 0.160862
H53   H     H_    0.272708 0.159734 0.603356 0.147289
H54   H     H_    0.339740 0.089797 0.572415 0.178047
H55   H     H_    0.310981 0.214823 0.368358 0.128039
H56   H     H_    0.529537 0.553806 0.106749 0.184090
H57   H     H_    0.374614 0.273106 0.447345 0.157499
H58   H     H_    0.940308 0.541007 0.159158 0.165591
H59   H     H_    0.214926 0.679993 0.532000 0.117790
H60   H     H_    0.215271 0.297111 0.454986 0.122496
N1    N     N_R   0.851569 0.487331 0.506786 -0.395084
N2    N     N_R   0.148285 0.485113 0.491407 -0.398311
N3    N     N_2   0.499380 0.498660 0.846910 -0.364722
N4    N     N_2   0.499370 0.498630 0.153040 -0.338244
O1    O     O_R   0.500010 0.321960 0.617040 -0.508503
O2    O     O_R   0.582130 0.500060 0.617050 -0.501250
O3    O     O_R   0.582110 0.500020 0.382900 -0.506749
O4    O     O_2   0.846488 0.518579 0.266837 -0.507983
O5    O     O_3   0.675870 0.716219 0.450517 -0.600501
O6    O     O_3   0.451943 0.074541 0.603654 -0.581437
O7    O     O_2   0.854557 0.445286 0.744965 -0.506021
O8    O     O_2   0.151604 0.442586 0.729043 -0.505025
O9    O     O_2   0.149545 0.523725 0.255021 -0.521047
O10   O     O_R   0.499990 0.321920 0.382900 -0.531050
O11   O     O_R   0.417890 0.499980 0.617100 -0.488476
O12   O     O_R   0.417870 0.499940 0.382950 -0.511435
O13   O     O_R   0.500010 0.678080 0.617100 -0.492327
O14   O     O_R   0.499990 0.678040 0.382960 -0.522912

loop_
_geom_bond_atom_site_label_1
_geom_bond_atom_site_label_2
_ccdc_geom_bond_type
C37   H16   S    
C1    C21   S    
C1    O10   A    
C20   H12   S    
C8    H60   S    
C7    C8    A    
C53   C54   A    
Cu2   O12   S    
C34   C56   A    
C12   C23   A    
C51   H55   S    
C12   C28   A    
C39   H19   S    
C40   H29   S    
C49   H51   S    
C36   C37   S    
C32   H3    S    
C38   C39   S    
C55   H58   S    
C52   H54   S    
C10   C17   A    
C41   H25   S    
C33   O5    S    
C31   H7    S    
C18   C19   D    
C26   O4    S    
C40   H28   S    
C25   O3    A    
C36   H18   S    
C22   H23   S    
C43   H35   S    
C12   H1    S    
C44   H40   S    
C23   H45   S    
C46   H37   S    
C47   C48   S    
Cu2   O10   S    
C8    C9    A    
C50   H47   S    
C3    H59   S    
C42   O6    S    
C11   C31   S    
C47   H44   S    
C13   C14   A    
C38   H24   S    
C56   N2    A    
Cu1   O11   S    
C44   C46   S    
C33   H8    S    
C49   H50   S    
C48   H42   S    
Cu2   N4    S    
C43   H32   S    
C51   C52   S    
C39   H20   S    
C26   N1    A    
C4    C6    S    
C10   C11   A    
C2    N2    A    
C52   H53   S    
Cu2   O14   S    
C41   H26   S    
Cu1   N3    S    
C51   H57   S    
C14   O5    S    
C29   C45   A    
C39   H21   S    
C10   H2    S    
C1    O1    A    
C29   C30   A    
C3    C9    A    
C36   H17   S    
Cu1   O1    S    
C44   H39   S    
C31   C32   S    
C46   H36   S    
C52   H52   S    
C23   C34   A    
C24   N4    D    
C2    O9    S    
C34   C45   A    
C21   O6    S    
C47   C54   S    
C40   C41   S    
C26   C30   A    
C50   H49   S    
C27   O7    S    
C22   C24   S    
C42   H30   S    
C42   C43   S    
C16   O14   A    
C3    C5    A    
C15   C36   S    
C33   H9    S    
C22   N3    D    
C4    O12   A    
C15   C17   A    
C48   H41   S    
C37   H15   S    
C54   C55   A    
C28   C29   A    
C47   H46   S    
C31   H6    S    
C32   H5    S    
C13   C25   S    
C2    C53   A    
C6    C7    A    
C27   N1    A    
C41   H27   S    
C30   C55   A    
C42   H31   S    
C18   C38   S    
C7    C51   S    
C35   H13   S    
H34   N3    S    
Cu1   O2    S    
C11   C13   A    
Cu1   Cu2   S    
C5    C6    A    
C38   H22   S    
C35   H10   S    
C16   C19   S    
C24   C44   S    
C48   H43   S    
C33   C35   S    
C18   C20   S    
C25   O2    A    
C43   H33   S    
C5    C49   S    
C19   C40   S    
C17   N1    S    
C45   C53   A    
H56   N4    S    
C46   H38   S    
C20   C21   D    
C35   H11   S    
Cu2   O3    S    
C49   C50   S    
C37   H14   S    
C27   C28   A    
C50   H48   S    
C9    N2    S    
C14   C15   A    
Cu1   O13   S    
C32   H4    S    
C16   O13   A    
C56   O8    S    
C4    O11   A    
