data_mof_unit_60860.cif
_audit_creation_date              2012-12-10T16:51:52-0500
_audit_creation_method            fapswitch 2.2
_symmetry_space_group_name_H-M    P1
_symmetry_Int_Tables_number       1
_space_group_crystal_system       triclinic
_cell_length_a                    18.416561
_cell_length_b                    18.31173
_cell_length_c                    18.455068
_cell_angle_alpha                 90.791517
_cell_angle_beta                  119.740105
_cell_angle_gamma                 119.438183
_cell_volume                      4424.7215405

loop_
_atom_site_label
_atom_site_type_symbol
_atom_type_description
_atom_site_fract_x
_atom_site_fract_y
_atom_site_fract_z
_atom_type_partial_charge
C1    C     C_R   0.776739 0.639749 0.638458 0.851850
C2    C     C_2   0.111381 0.303777 0.303895 -0.300165
C3    C     C_2   0.443032 0.162349 0.719013 -0.149128
C4    C     C_R   0.222669 0.360859 0.362367 0.852086
C5    C     C_2   0.499137 0.195716 0.807893 -0.293713
C6    C     C_2   0.440221 0.218266 0.662537 -0.153497
C7    C     C_2   0.504377 0.307468 0.695172 -0.289844
C8    C     C_2   0.055387 0.784754 0.722301 -0.217114
C9    C     C_2   0.113479 0.792309 0.807515 -0.115653
C10   C     C_2   0.943783 0.720920 0.663934 -0.168389
C11   C     C_2   0.886787 0.702827 0.694750 -0.271849
C12   C     C_3   0.568758 0.766671 0.834395 0.011846
C13   C     C_2   0.468314 0.162847 0.247935 -0.204377
C14   C     C_2   0.518033 0.197422 0.210785 -0.311929
C15   C     C_2   0.478665 0.220924 0.311559 0.015999
C16   C     C_R   0.498503 0.637673 0.360514 0.851704
C17   C     C_2   0.498505 0.301060 0.305455 -0.327117
C18   C     C_2   0.432901 0.771043 0.212799 -0.164763
C19   C     C_2   0.495574 0.799505 0.187037 -0.343370
C20   C     C_2   0.422422 0.705580 0.259139 0.199807
C21   C     C_2   0.499943 0.696304 0.307765 -0.299064
C22   C     C_R   0.500014 0.138762 0.861717 0.857727
C23   C     C_3   0.593072 0.792184 0.766381 -0.062991
C24   C     C_R   0.499735 0.860848 0.137790 0.866616
C25   C     C_R   0.777180 0.138851 0.139244 0.872716
C26   C     C_R   0.223177 0.859786 0.861608 0.799307
C27   C     C_R   0.502947 0.141341 0.143432 0.876318
C28   C     C_R   0.500285 0.361416 0.638429 0.852074
C29   C     C_R   0.500382 0.858525 0.858687 0.803663
C30   C     C_R   0.500924 0.358481 0.360553 0.858499
C31   C     C_R   0.499795 0.641620 0.641348 0.801798
C32   C     C_3   0.475032 0.672759 0.766054 -0.220643
C33   C     C_3   0.406784 0.708310 0.733414 -0.220631
C34   C     C_3   0.525637 0.827303 0.734125 -0.063955
C35   C     C_3   0.501341 0.801763 0.802156 -0.055753
C36   C     C_1   0.073755 0.729424 0.846816 0.199632
C37   C     C_1   0.464461 0.187898 0.377659 0.226041
C38   C     C_3   0.322522 0.651774 0.250041 -0.792030
C39   C     C_1   0.644029 0.783612 0.927122 0.211436
C40   C     C_1   0.694621 0.837432 0.783927 0.174007
C41   C     C_1   0.553107 0.911960 0.717119 0.172720
C42   C     C_1   0.356350 0.716716 0.572836 0.209851
C43   C     C_3   0.099023 0.170814 0.349294 -0.805249
C44   C     C_3   0.432177 0.734275 0.665593 0.012438
C45   C     C_3   0.499574 0.699159 0.697846 -0.054991
C46   C     C_2   0.942215 0.161606 0.229384 -0.166795
C47   C     C_2   0.887619 0.195900 0.200574 -0.345358
C48   C     C_2   0.053903 0.216823 0.294934 0.205924
H1    H     H_    0.330023 0.674471 0.720081 0.151133
H2    H     H_    0.418715 0.091144 0.231086 0.186882
H3    H     H_    0.454647 0.608829 0.778963 0.150302
H4    H     H_    0.575233 0.268407 0.232906 0.157281
H5    H     H_    0.508096 0.324516 0.255179 0.141185
H6    H     H_    0.384185 0.794082 0.196598 0.186939
H7    H     H_    0.541253 0.774469 0.197614 0.157752
H8    H     H_    0.570254 0.735662 0.312462 0.127331
H9    H     H_    0.903390 0.089724 0.206637 0.187753
H10   H     H_    0.922833 0.266733 0.225376 0.157955
H11   H     H_    0.265554 0.662074 0.199547 0.217309
H12   H     H_    0.076515 0.334787 0.264288 0.126966
H13   H     H_    0.289076 0.579434 0.228134 0.235365
H14   H     H_    0.334604 0.672561 0.314021 0.261739
H15   H     H_    0.038466 0.103543 0.339272 0.215617
H16   H     H_    0.142582 0.161869 0.329144 0.259196
H17   H     H_    0.149175 0.210016 0.421152 0.234999
H18   H     H_    0.395696 0.090797 0.685327 0.181901
H19   H     H_    0.545089 0.266184 0.843951 0.151715
H20   H     H_    0.383695 0.184013 0.591392 0.181858
H21   H     H_    0.563578 0.343938 0.765233 0.154222
H22   H     H_    0.091048 0.827230 0.693303 0.175080
H23   H     H_    0.908291 0.692114 0.593908 0.184164
H24   H     H_    0.921114 0.736791 0.763069 0.169107
N1    N     N_1   0.042469 0.679348 0.878360 -0.198798
N2    N     N_1   0.453158 0.161481 0.430400 -0.197799
N3    N     N_1   0.703367 0.797004 0.000208 -0.191151
N4    N     N_1   0.774587 0.873010 0.797712 -0.195644
N5    N     N_1   0.574704 0.978652 0.703754 -0.191469
N6    N     N_1   0.296640 0.702885 0.499722 -0.194174
O1    O     O_3   0.500000 0.500000 0.500000 -0.496445
O2    O     O_R   0.270900 0.886160 0.946260 -0.635128
O3    O     O_R   0.560160 0.177420 0.117340 -0.649634
O4    O     O_R   0.729180 0.615300 0.675360 -0.634680
O5    O     O_R   0.440020 0.882760 0.822680 -0.635632
O6    O     O_R   0.439990 0.057240 0.117340 -0.642728
O7    O     O_R   0.560190 0.882760 0.942820 -0.641554
O8    O     O_R   0.729270 0.053840 0.113900 -0.640647
O9    O     O_R   0.270910 0.884750 0.824690 -0.646007
O10   O     O_R   0.560170 0.175430 0.946260 -0.643146
O11   O     O_R   0.440000 0.886160 0.115330 -0.643420
O12   O     O_R   0.439910 0.615300 0.386140 -0.635554
O13   O     O_R   0.270820 0.446200 0.386140 -0.643155
O14   O     O_R   0.560090 0.613880 0.384720 -0.642802
O15   O     O_R   0.439920 0.324620 0.553780 -0.641117
O16   O     O_R   0.560100 0.442800 0.382710 -0.642803
O17   O     O_R   0.560070 0.617290 0.677370 -0.635089
O18   O     O_R   0.439930 0.322630 0.382710 -0.634924
O19   O     O_R   0.439900 0.617290 0.557220 -0.641593
O20   O     O_R   0.560080 0.446200 0.675360 -0.641371
O21   O     O_R   0.729180 0.613880 0.553780 -0.642581
O22   O     O_R   0.270820 0.324620 0.384720 -0.638190
O23   O     O_3   0.500090 0.000040 0.000040 -0.496031
O24   O     O_R   0.440010 0.053840 0.824690 -0.639003
O25   O     O_R   0.560180 0.884750 0.113900 -0.642073
O26   O     O_R   0.729260 0.175430 0.115330 -0.642654
Zn1   Zn    Zn3+2 0.414150 0.543930 0.458110 0.970229
Zn2   Zn    Zn3+2 0.585850 0.541910 0.456060 0.972227
Zn3   Zn    Zn3+2 0.414160 0.370220 0.456060 0.969488
Zn4   Zn    Zn3+2 0.585840 0.543930 0.629770 0.984268
Zn5   Zn    Zn3+2 0.585940 0.956110 0.041940 0.978461
Zn6   Zn    Zn3+2 0.585930 0.129820 0.043980 0.975469
Zn7   Zn    Zn3+2 0.414240 0.958130 0.043980 0.972573
Zn8   Zn    Zn3+2 0.414250 0.956110 0.870280 0.974839

loop_
_geom_bond_atom_site_label_1
_geom_bond_atom_site_label_2
_ccdc_geom_bond_type
C37   N2    T    
C16   O12   A    
C16   C21   S    
C23   C45   S    
C32   C45   S    
O13   Zn1   S    
O24   Zn8   S    
C1    C11   S    
C5    H19   S    
C3    C6    S    
C24   O11   A    
C1    O21   A    
C43   H15   S    
O23   Zn8   S    
C12   C23   S    
C27   O6    A    
C29   O5    A    
O7    Zn5   S    
C41   N5    T    
C2    H12   S    
O23   Zn5   S    
C23   C40   S    
O20   Zn4   S    
O1    Zn1   S    
C34   C35   S    
C15   C37   S    
C30   O18   A    
C14   H4    S    
C5    C22   S    
C26   O9    A    
C9    C26   S    
C9    C36   S    
C22   O10   A    
C14   C27   S    
C43   C48   S    
C25   C47   S    
C29   O7    A    
C38   H13   S    
O10   Zn6   S    
C10   H23   S    
C6    H20   S    
C13   C14   D    
C12   C32   S    
C17   C30   S    
C34   C41   S    
C42   C44   S    
C43   H16   S    
C46   C48   S    
O6    Zn7   S    
C27   O3    A    
O8    Zn5   S    
C34   C44   S    
C10   C11   D    
C11   H24   S    
C8    C9    D    
O9    Zn8   S    
C2    C48   D    
O23   Zn6   S    
C26   O2    A    
C7    C28   S    
C38   H11   S    
O1    Zn2   S    
C28   O15   A    
C2    C4    S    
C32   H3    S    
C28   O20   A    
C20   C38   S    
C43   H17   S    
C23   C34   S    
O1    Zn3   S    
O3    Zn6   S    
C12   C35   S    
O14   Zn2   S    
O18   Zn3   S    
C16   O14   A    
C39   N3    T    
C4    O22   A    
C46   H9    S    
C3    H18   S    
C17   H5    S    
C44   C45   S    
C19   H7    S    
O4    Zn4   S    
C15   C17   D    
O21   Zn2   S    
O11   Zn7   S    
C46   C47   D    
O16   Zn2   S    
O22   Zn3   S    
C33   C44   S    
O12   Zn1   S    
C3    C5    D    
C7    H21   S    
C21   H8    S    
C25   O26   A    
C42   N6    T    
C6    C7    D    
O23   Zn7   S    
C29   C35   S    
C8    H22   S    
C22   O24   A    
O25   Zn5   S    
C24   O25   A    
C32   C33   S    
C4    O13   A    
C12   C39   S    
C13   C15   S    
C19   C24   S    
C1    O4    A    
O19   Zn1   S    
C30   O16   A    
O15   Zn3   S    
C47   H10   S    
O26   Zn6   S    
C31   O17   A    
O2    Zn7   S    
C25   O8    A    
C33   C35   S    
O1    Zn4   S    
C18   C20   S    
C31   O19   A    
O17   Zn4   S    
C18   H6    S    
C13   H2    S    
C40   N4    T    
C20   C21   D    
C8    C10   S    
C31   C45   S    
C18   C19   D    
O5    Zn8   S    
C33   H1    S    
C36   N1    T    
C38   H14   S    
